MODEL 1
REMARK VINA RESULT:      -8.1      0.000      0.000
REMARK  6 active torsions:
REMARK  status: ('A' for Active; 'I' for Inactive)
REMARK    1  A    between atoms: C2_2  and  N1_3 
REMARK    2  A    between atoms: N1_3  and  O1_4 
REMARK    3  A    between atoms: N1_3  and  C3_5 
REMARK    4  A    between atoms: C3_5  and  C4_6 
REMARK    5  A    between atoms: C5_7  and  C6_8 
REMARK       I    between atoms: C6_8  and  N2_10 
REMARK    6  A    between atoms: C12_17  and  N4_18 
ROOT
HETATM    1  C6  UNL     1      25.739   4.033  49.572  1.00  0.00     0.323 C 
HETATM    2  O2  UNL     1      24.701   4.385  48.964  1.00  0.00    -0.256 OA
HETATM    3  N2  UNL     1      25.970   3.102  50.617  1.00  0.00    -0.188 N 
HETATM    4  N3  UNL     1      27.164   2.860  51.163  1.00  0.00    -0.174 NA
HETATM    5  C7  UNL     1      27.049   1.928  52.113  1.00  0.00     0.173 A 
HETATM    6  C8  UNL     1      25.715   1.590  52.139  1.00  0.00     0.099 A 
HETATM    7  C9  UNL     1      25.040   2.328  51.199  1.00  0.00     0.092 A 
HETATM    8  C10 UNL     1      23.747   2.282  50.923  1.00  0.00     0.036 A 
HETATM    9  C11 UNL     1      22.651   1.492  51.478  1.00  0.00     0.029 A 
HETATM   10  C12 UNL     1      22.896   0.623  52.451  1.00  0.00     0.031 A 
HETATM   11  C18 UNL     1      24.021   0.123  53.261  1.00  0.00     0.206 A 
HETATM   12  N5  UNL     1      25.275   0.711  52.952  1.00  0.00    -0.280 NA
ENDROOT
BRANCH   1  13
HETATM   13  C5  UNL     1      26.888   4.762  49.046  1.00  0.00    -0.002 C 
HETATM   14  C4  UNL     1      27.861   5.358  48.595  1.00  0.00    -0.080 C 
BRANCH  14  15
HETATM   15  C3  UNL     1      29.029   6.045  48.050  1.00  0.00     0.214 C 
BRANCH  15  16
HETATM   16  N1  UNL     1      30.239   5.483  48.586  1.00  0.00    -0.189 NA
BRANCH  16  17
HETATM   17  C2  UNL     1      31.302   6.429  48.768  1.00  0.00     0.117 C 
HETATM   18  C1  UNL     1      30.704   7.812  48.779  1.00  0.00     0.023 C 
ENDBRANCH  16  17
BRANCH  16  19
HETATM   19  O1  UNL     1      30.621   4.465  47.768  1.00  0.00    -0.312 OA
HETATM   20  H6  UNL     1      31.241   3.866  48.275  1.00  0.00     0.237 HD
ENDBRANCH  16  19
ENDBRANCH  15  16
ENDBRANCH  14  15
ENDBRANCH   1  13
BRANCH  10  21
HETATM   21  N4  UNL     1      21.780  -0.105  52.936  1.00  0.00    -0.353 N 
HETATM   22  C13 UNL     1      20.572   0.225  52.240  1.00  0.00     0.118 A 
HETATM   23  C14 UNL     1      19.422  -0.329  52.508  1.00  0.00     0.087 A 
HETATM   24 CL1  UNL     1      17.927   0.047  51.678  1.00  0.00    -0.080 Cl
HETATM   25  C15 UNL     1      19.283  -1.350  53.569  1.00  0.00     0.137 A 
HETATM   26  F1  UNL     1      18.144  -1.987  53.927  1.00  0.00    -0.205 F 
HETATM   27  C16 UNL     1      20.420  -1.638  54.207  1.00  0.00     0.037 A 
HETATM   28  C17 UNL     1      21.784  -1.087  54.006  1.00  0.00     0.158 A 
ENDBRANCH  10  21
TORSDOF 6
ENDMDL
MODEL 2
REMARK VINA RESULT:      -7.9      5.548     10.028
REMARK  6 active torsions:
REMARK  status: ('A' for Active; 'I' for Inactive)
REMARK    1  A    between atoms: C2_2  and  N1_3 
REMARK    2  A    between atoms: N1_3  and  O1_4 
REMARK    3  A    between atoms: N1_3  and  C3_5 
REMARK    4  A    between atoms: C3_5  and  C4_6 
REMARK    5  A    between atoms: C5_7  and  C6_8 
REMARK       I    between atoms: C6_8  and  N2_10 
REMARK    6  A    between atoms: C12_17  and  N4_18 
ROOT
HETATM    1  C6  UNL     1      19.964   0.693  51.613  1.00  0.00     0.323 C 
HETATM    2  O2  UNL     1      20.348   1.459  50.699  1.00  0.00    -0.256 OA
HETATM    3  N2  UNL     1      20.657   0.002  52.641  1.00  0.00    -0.188 N 
HETATM    4  N3  UNL     1      20.076  -0.798  53.538  1.00  0.00    -0.174 NA
HETATM    5  C7  UNL     1      20.996  -1.289  54.372  1.00  0.00     0.173 A 
HETATM    6  C8  UNL     1      22.194  -0.755  53.956  1.00  0.00     0.099 A 
HETATM    7  C9  UNL     1      21.979   0.055  52.869  1.00  0.00     0.092 A 
HETATM    8  C10 UNL     1      22.883   0.746  52.194  1.00  0.00     0.036 A 
HETATM    9  C11 UNL     1      24.330   0.883  52.345  1.00  0.00     0.029 A 
HETATM   10  C12 UNL     1      24.952   0.230  53.319  1.00  0.00     0.031 A 
HETATM   11  C18 UNL     1      24.656  -0.694  54.428  1.00  0.00     0.206 A 
HETATM   12  N5  UNL     1      23.285  -1.034  54.559  1.00  0.00    -0.280 NA
ENDROOT
BRANCH   1  13
HETATM   13  C5  UNL     1      18.516   0.533  51.544  1.00  0.00    -0.002 C 
HETATM   14  C4  UNL     1      17.299   0.395  51.466  1.00  0.00    -0.080 C 
BRANCH  14  15
HETATM   15  C3  UNL     1      15.853   0.230  51.347  1.00  0.00     0.214 C 
BRANCH  15  16
HETATM   16  N1  UNL     1      15.392  -0.814  52.221  1.00  0.00    -0.189 NA
BRANCH  16  17
HETATM   17  C2  UNL     1      13.974  -1.035  52.184  1.00  0.00     0.117 C 
HETATM   18  C1  UNL     1      13.293   0.200  52.713  1.00  0.00     0.023 C 
ENDBRANCH  16  17
BRANCH  16  19
HETATM   19  O1  UNL     1      15.812  -0.516  53.481  1.00  0.00    -0.312 OA
HETATM   20  H6  UNL     1      15.043  -0.123  53.986  1.00  0.00     0.237 HD
ENDBRANCH  16  19
ENDBRANCH  15  16
ENDBRANCH  14  15
ENDBRANCH   1  13
BRANCH  10  21
HETATM   21  N4  UNL     1      26.356   0.416  53.400  1.00  0.00    -0.353 N 
HETATM   22  C13 UNL     1      27.074  -0.819  53.301  1.00  0.00     0.118 A 
HETATM   23  C14 UNL     1      28.376  -0.890  53.339  1.00  0.00     0.087 A 
HETATM   24 CL1  UNL     1      29.287  -2.380  53.221  1.00  0.00    -0.080 Cl
HETATM   25  C15 UNL     1      29.213   0.319  53.492  1.00  0.00     0.137 A 
HETATM   26  F1  UNL     1      30.565   0.360  53.542  1.00  0.00    -0.205 F 
HETATM   27  C16 UNL     1      28.522   1.458  53.586  1.00  0.00     0.037 A 
HETATM   28  C17 UNL     1      27.054   1.679  53.561  1.00  0.00     0.158 A 
ENDBRANCH  10  21
TORSDOF 6
ENDMDL
MODEL 3
REMARK VINA RESULT:      -7.6      2.504      3.160
REMARK  6 active torsions:
REMARK  status: ('A' for Active; 'I' for Inactive)
REMARK    1  A    between atoms: C2_2  and  N1_3 
REMARK    2  A    between atoms: N1_3  and  O1_4 
REMARK    3  A    between atoms: N1_3  and  C3_5 
REMARK    4  A    between atoms: C3_5  and  C4_6 
REMARK    5  A    between atoms: C5_7  and  C6_8 
REMARK       I    between atoms: C6_8  and  N2_10 
REMARK    6  A    between atoms: C12_17  and  N4_18 
ROOT
HETATM    1  C6  UNL     1      26.452   5.018  49.234  1.00  0.00     0.323 C 
HETATM    2  O2  UNL     1      26.999   3.926  48.953  1.00  0.00    -0.256 OA
HETATM    3  N2  UNL     1      25.275   5.344  49.955  1.00  0.00    -0.188 N 
HETATM    4  N3  UNL     1      24.827   6.587  50.147  1.00  0.00    -0.174 NA
HETATM    5  C7  UNL     1      23.705   6.560  50.870  1.00  0.00     0.173 A 
HETATM    6  C8  UNL     1      23.464   5.229  51.128  1.00  0.00     0.099 A 
HETATM    7  C9  UNL     1      24.451   4.468  50.552  1.00  0.00     0.092 A 
HETATM    8  C10 UNL     1      24.568   3.151  50.585  1.00  0.00     0.036 A 
HETATM    9  C11 UNL     1      23.749   2.106  51.194  1.00  0.00     0.029 A 
HETATM   10  C12 UNL     1      22.655   2.441  51.869  1.00  0.00     0.031 A 
HETATM   11  C18 UNL     1      21.892   3.639  52.261  1.00  0.00     0.206 A 
HETATM   12  N5  UNL     1      22.448   4.863  51.809  1.00  0.00    -0.280 NA
ENDROOT
BRANCH   1  13
HETATM   13  C5  UNL     1      27.236   6.116  48.680  1.00  0.00    -0.002 C 
HETATM   14  C4  UNL     1      27.908   7.026  48.205  1.00  0.00    -0.080 C 
BRANCH  14  15
HETATM   15  C3  UNL     1      28.723   8.093  47.629  1.00  0.00     0.214 C 
BRANCH  15  16
HETATM   16  N1  UNL     1      29.808   8.429  48.510  1.00  0.00    -0.189 NA
BRANCH  16  17
HETATM   17  C2  UNL     1      30.796   7.399  48.653  1.00  0.00     0.117 C 
HETATM   18  C1  UNL     1      31.846   7.886  49.617  1.00  0.00     0.023 C 
ENDBRANCH  16  17
BRANCH  16  19
HETATM   19  O1  UNL     1      29.273   8.770  49.714  1.00  0.00    -0.312 OA
HETATM   20  H6  UNL     1      29.785   8.299  50.432  1.00  0.00     0.237 HD
ENDBRANCH  16  19
ENDBRANCH  15  16
ENDBRANCH  14  15
ENDBRANCH   1  13
BRANCH  10  21
HETATM   21  N4  UNL     1      21.915   1.369  52.432  1.00  0.00    -0.353 N 
HETATM   22  C13 UNL     1      22.670   0.639  53.405  1.00  0.00     0.118 A 
HETATM   23  C14 UNL     1      22.189  -0.381  54.061  1.00  0.00     0.087 A 
HETATM   24 CL1  UNL     1      23.081  -1.296  55.257  1.00  0.00    -0.080 Cl
HETATM   25  C15 UNL     1      20.809  -0.863  53.838  1.00  0.00     0.137 A 
HETATM   26  F1  UNL     1      20.211  -1.905  54.460  1.00  0.00    -0.205 F 
HETATM   27  C16 UNL     1      20.126  -0.170  52.924  1.00  0.00     0.037 A 
HETATM   28  C17 UNL     1      20.549   0.998  52.110  1.00  0.00     0.158 A 
ENDBRANCH  10  21
TORSDOF 6
ENDMDL
MODEL 4
REMARK VINA RESULT:      -7.6      5.240     10.083
REMARK  6 active torsions:
REMARK  status: ('A' for Active; 'I' for Inactive)
REMARK    1  A    between atoms: C2_2  and  N1_3 
REMARK    2  A    between atoms: N1_3  and  O1_4 
REMARK    3  A    between atoms: N1_3  and  C3_5 
REMARK    4  A    between atoms: C3_5  and  C4_6 
REMARK    5  A    between atoms: C5_7  and  C6_8 
REMARK       I    between atoms: C6_8  and  N2_10 
REMARK    6  A    between atoms: C12_17  and  N4_18 
ROOT
HETATM    1  C6  UNL     1      25.001   1.403  51.976  1.00  0.00     0.323 C 
HETATM    2  O2  UNL     1      26.022   0.782  51.601  1.00  0.00    -0.256 OA
HETATM    3  N2  UNL     1      24.523   2.713  51.713  1.00  0.00    -0.188 N 
HETATM    4  N3  UNL     1      23.399   3.223  52.220  1.00  0.00    -0.174 NA
HETATM    5  C7  UNL     1      23.225   4.470  51.775  1.00  0.00     0.173 A 
HETATM    6  C8  UNL     1      24.301   4.724  50.957  1.00  0.00     0.099 A 
HETATM    7  C9  UNL     1      25.116   3.620  50.919  1.00  0.00     0.092 A 
HETATM    8  C10 UNL     1      26.242   3.478  50.239  1.00  0.00     0.036 A 
HETATM    9  C11 UNL     1      26.975   4.378  49.354  1.00  0.00     0.029 A 
HETATM   10  C12 UNL     1      26.502   5.596  49.119  1.00  0.00     0.031 A 
HETATM   11  C18 UNL     1      25.363   6.456  49.487  1.00  0.00     0.206 A 
HETATM   12  N5  UNL     1      24.431   5.850  50.368  1.00  0.00    -0.280 NA
ENDROOT
BRANCH   1  13
HETATM   13  C5  UNL     1      24.199   0.550  52.845  1.00  0.00    -0.002 C 
HETATM   14  C4  UNL     1      23.539  -0.170  53.589  1.00  0.00    -0.080 C 
BRANCH  14  15
HETATM   15  C3  UNL     1      22.776  -1.030  54.489  1.00  0.00     0.214 C 
BRANCH  15  16
HETATM   16  N1  UNL     1      21.415  -1.146  54.041  1.00  0.00    -0.189 NA
BRANCH  16  17
HETATM   17  C2  UNL     1      20.735   0.109  53.882  1.00  0.00     0.117 C 
HETATM   18  C1  UNL     1      19.661  -0.068  52.841  1.00  0.00     0.023 C 
ENDBRANCH  16  17
BRANCH  16  19
HETATM   19  O1  UNL     1      20.757  -1.954  54.916  1.00  0.00    -0.312 OA
HETATM   20  H6  UNL     1      21.055  -2.896  54.762  1.00  0.00     0.237 HD
ENDBRANCH  16  19
ENDBRANCH  15  16
ENDBRANCH  14  15
ENDBRANCH   1  13
BRANCH  10  21
HETATM   21  N4  UNL     1      27.272   6.409  48.248  1.00  0.00    -0.353 N 
HETATM   22  C13 UNL     1      28.639   5.987  48.177  1.00  0.00     0.118 A 
HETATM   23  C14 UNL     1      29.529   6.580  47.429  1.00  0.00     0.087 A 
HETATM   24 CL1  UNL     1      31.206   6.092  47.317  1.00  0.00    -0.080 Cl
HETATM   25  C15 UNL     1      29.182   7.749  46.593  1.00  0.00     0.137 A 
HETATM   26  F1  UNL     1      30.022   8.435  45.784  1.00  0.00    -0.205 F 
HETATM   27  C16 UNL     1      27.904   8.127  46.678  1.00  0.00     0.037 A 
HETATM   28  C17 UNL     1      26.798   7.549  47.483  1.00  0.00     0.158 A 
ENDBRANCH  10  21
TORSDOF 6
ENDMDL
MODEL 5
REMARK VINA RESULT:      -7.5      5.207      6.851
REMARK  6 active torsions:
REMARK  status: ('A' for Active; 'I' for Inactive)
REMARK    1  A    between atoms: C2_2  and  N1_3 
REMARK    2  A    between atoms: N1_3  and  O1_4 
REMARK    3  A    between atoms: N1_3  and  C3_5 
REMARK    4  A    between atoms: C3_5  and  C4_6 
REMARK    5  A    between atoms: C5_7  and  C6_8 
REMARK       I    between atoms: C6_8  and  N2_10 
REMARK    6  A    between atoms: C12_17  and  N4_18 
ROOT
HETATM    1  C6  UNL     1      22.599  -0.491  53.616  1.00  0.00     0.323 C 
HETATM    2  O2  UNL     1      22.378  -1.178  54.640  1.00  0.00    -0.256 OA
HETATM    3  N2  UNL     1      21.758  -0.026  52.572  1.00  0.00    -0.188 N 
HETATM    4  N3  UNL     1      22.175   0.698  51.531  1.00  0.00    -0.174 NA
HETATM    5  C7  UNL     1      21.144   0.983  50.732  1.00  0.00     0.173 A 
HETATM    6  C8  UNL     1      20.047   0.401  51.325  1.00  0.00     0.099 A 
HETATM    7  C9  UNL     1      20.434  -0.232  52.480  1.00  0.00     0.092 A 
HETATM    8  C10 UNL     1      19.665  -0.899  53.325  1.00  0.00     0.036 A 
HETATM    9  C11 UNL     1      18.233  -1.186  53.333  1.00  0.00     0.029 A 
HETATM   10  C12 UNL     1      17.468  -0.734  52.346  1.00  0.00     0.031 A 
HETATM   11  C18 UNL     1      17.575   0.047  51.101  1.00  0.00     0.206 A 
HETATM   12  N5  UNL     1      18.887   0.494  50.799  1.00  0.00    -0.280 NA
ENDROOT
BRANCH   1  13
HETATM   13  C5  UNL     1      24.013  -0.138  53.557  1.00  0.00    -0.002 C 
HETATM   14  C4  UNL     1      25.207   0.142  53.516  1.00  0.00    -0.080 C 
BRANCH  14  15
HETATM   15  C3  UNL     1      26.634   0.453  53.481  1.00  0.00     0.214 C 
BRANCH  15  16
HETATM   16  N1  UNL     1      27.378  -0.509  54.249  1.00  0.00    -0.189 NA
BRANCH  16  17
HETATM   17  C2  UNL     1      28.678  -0.061  54.660  1.00  0.00     0.117 C 
HETATM   18  C1  UNL     1      29.699  -0.679  53.741  1.00  0.00     0.023 C 
ENDBRANCH  16  17
BRANCH  16  19
HETATM   19  O1  UNL     1      27.460  -1.651  53.514  1.00  0.00    -0.312 OA
HETATM   20  H6  UNL     1      27.145  -2.414  54.078  1.00  0.00     0.237 HD
ENDBRANCH  16  19
ENDBRANCH  15  16
ENDBRANCH  14  15
ENDBRANCH   1  13
BRANCH  10  21
HETATM   21  N4  UNL     1      16.088  -1.054  52.427  1.00  0.00    -0.353 N 
HETATM   22  C13 UNL     1      15.292   0.069  52.824  1.00  0.00     0.118 A 
HETATM   23  C14 UNL     1      13.995   0.012  52.954  1.00  0.00     0.087 A 
HETATM   24 CL1  UNL     1      12.991   1.362  53.436  1.00  0.00    -0.080 Cl
HETATM   25  C15 UNL     1      13.247  -1.237  52.699  1.00  0.00     0.137 A 
HETATM   26  F1  UNL     1      11.908  -1.407  52.802  1.00  0.00    -0.205 F 
HETATM   27  C16 UNL     1      14.009  -2.271  52.335  1.00  0.00     0.037 A 
HETATM   28  C17 UNL     1      15.481  -2.344  52.153  1.00  0.00     0.158 A 
ENDBRANCH  10  21
TORSDOF 6
ENDMDL
MODEL 6
REMARK VINA RESULT:      -7.3      5.341      9.124
REMARK  6 active torsions:
REMARK  status: ('A' for Active; 'I' for Inactive)
REMARK    1  A    between atoms: C2_2  and  N1_3 
REMARK    2  A    between atoms: N1_3  and  O1_4 
REMARK    3  A    between atoms: N1_3  and  C3_5 
REMARK    4  A    between atoms: C3_5  and  C4_6 
REMARK    5  A    between atoms: C5_7  and  C6_8 
REMARK       I    between atoms: C6_8  and  N2_10 
REMARK    6  A    between atoms: C12_17  and  N4_18 
ROOT
HETATM    1  C6  UNL     1      20.617   1.321  52.078  1.00  0.00     0.323 C 
HETATM    2  O2  UNL     1      20.526   0.342  52.856  1.00  0.00    -0.256 OA
HETATM    3  N2  UNL     1      21.726   2.055  51.585  1.00  0.00    -0.188 N 
HETATM    4  N3  UNL     1      21.634   3.099  50.758  1.00  0.00    -0.174 NA
HETATM    5  C7  UNL     1      22.854   3.563  50.474  1.00  0.00     0.173 A 
HETATM    6  C8  UNL     1      23.727   2.755  51.165  1.00  0.00     0.099 A 
HETATM    7  C9  UNL     1      23.017   1.809  51.862  1.00  0.00     0.092 A 
HETATM    8  C10 UNL     1      23.503   0.853  52.638  1.00  0.00     0.036 A 
HETATM    9  C11 UNL     1      24.867   0.489  53.011  1.00  0.00     0.029 A 
HETATM   10  C12 UNL     1      25.888   1.189  52.529  1.00  0.00     0.031 A 
HETATM   11  C18 UNL     1      26.152   2.342  51.649  1.00  0.00     0.206 A 
HETATM   12  N5  UNL     1      24.988   2.941  51.102  1.00  0.00    -0.280 NA
ENDROOT
BRANCH   1  13
HETATM   13  C5  UNL     1      19.286   1.724  51.637  1.00  0.00    -0.002 C 
HETATM   14  C4  UNL     1      18.160   2.044  51.271  1.00  0.00    -0.080 C 
BRANCH  14  15
HETATM   15  C3  UNL     1      16.811   2.400  50.838  1.00  0.00     0.214 C 
BRANCH  15  16
HETATM   16  N1  UNL     1      16.385   3.619  51.471  1.00  0.00    -0.189 NA
BRANCH  16  17
HETATM   17  C2  UNL     1      14.962   3.759  51.590  1.00  0.00     0.117 C 
HETATM   18  C1  UNL     1      14.573   3.420  53.005  1.00  0.00     0.023 C 
ENDBRANCH  16  17
BRANCH  16  19
HETATM   19  O1  UNL     1      16.926   4.657  50.778  1.00  0.00    -0.312 OA
HETATM   20  H6  UNL     1      17.832   4.384  50.454  1.00  0.00     0.237 HD
ENDBRANCH  16  19
ENDBRANCH  15  16
ENDBRANCH  14  15
ENDBRANCH   1  13
BRANCH  10  21
HETATM   21  N4  UNL     1      27.181   0.772  52.937  1.00  0.00    -0.353 N 
HETATM   22  C13 UNL     1      27.345  -0.648  52.852  1.00  0.00     0.118 A 
HETATM   23  C14 UNL     1      28.456  -1.256  53.165  1.00  0.00     0.087 A 
HETATM   24 CL1  UNL     1      28.695  -2.988  53.072  1.00  0.00    -0.080 Cl
HETATM   25  C15 UNL     1      29.640  -0.508  53.641  1.00  0.00     0.137 A 
HETATM   26  F1  UNL     1      30.836  -1.035  53.991  1.00  0.00    -0.205 F 
HETATM   27  C16 UNL     1      29.462   0.813  53.717  1.00  0.00     0.037 A 
HETATM   28  C17 UNL     1      28.261   1.626  53.397  1.00  0.00     0.158 A 
ENDBRANCH  10  21
TORSDOF 6
ENDMDL
MODEL 7
REMARK VINA RESULT:      -7.1      2.921      3.331
REMARK  6 active torsions:
REMARK  status: ('A' for Active; 'I' for Inactive)
REMARK    1  A    between atoms: C2_2  and  N1_3 
REMARK    2  A    between atoms: N1_3  and  O1_4 
REMARK    3  A    between atoms: N1_3  and  C3_5 
REMARK    4  A    between atoms: C3_5  and  C4_6 
REMARK    5  A    between atoms: C5_7  and  C6_8 
REMARK       I    between atoms: C6_8  and  N2_10 
REMARK    6  A    between atoms: C12_17  and  N4_18 
ROOT
HETATM    1  C6  UNL     1      24.442   7.169  50.564  1.00  0.00     0.323 C 
HETATM    2  O2  UNL     1      23.453   7.573  51.219  1.00  0.00    -0.256 OA
HETATM    3  N2  UNL     1      25.011   5.882  50.380  1.00  0.00    -0.188 N 
HETATM    4  N3  UNL     1      26.097   5.634  49.644  1.00  0.00    -0.174 NA
HETATM    5  C7  UNL     1      26.371   4.327  49.664  1.00  0.00     0.173 A 
HETATM    6  C8  UNL     1      25.397   3.758  50.452  1.00  0.00     0.099 A 
HETATM    7  C9  UNL     1      24.544   4.735  50.901  1.00  0.00     0.092 A 
HETATM    8  C10 UNL     1      23.485   4.579  51.677  1.00  0.00     0.036 A 
HETATM    9  C11 UNL     1      22.885   3.400  52.296  1.00  0.00     0.029 A 
HETATM   10  C12 UNL     1      23.434   2.207  52.102  1.00  0.00     0.031 A 
HETATM   11  C18 UNL     1      24.572   1.588  51.398  1.00  0.00     0.206 A 
HETATM   12  N5  UNL     1      25.379   2.500  50.672  1.00  0.00    -0.280 NA
ENDROOT
BRANCH   1  13
HETATM   13  C5  UNL     1      25.077   8.295  49.889  1.00  0.00    -0.002 C 
HETATM   14  C4  UNL     1      25.623   9.245  49.337  1.00  0.00    -0.080 C 
BRANCH  14  15
HETATM   15  C3  UNL     1      26.286  10.381  48.702  1.00  0.00     0.214 C 
BRANCH  15  16
HETATM   16  N1  UNL     1      27.551  10.643  49.333  1.00  0.00    -0.189 NA
BRANCH  16  17
HETATM   17  C2  UNL     1      28.694  10.281  48.543  1.00  0.00     0.117 C 
HETATM   18  C1  UNL     1      29.651   9.520  49.423  1.00  0.00     0.023 C 
ENDBRANCH  16  17
BRANCH  16  19
HETATM   19  O1  UNL     1      27.558   9.999  50.532  1.00  0.00    -0.312 OA
HETATM   20  H6  UNL     1      28.505   9.906  50.836  1.00  0.00     0.237 HD
ENDBRANCH  16  19
ENDBRANCH  15  16
ENDBRANCH  14  15
ENDBRANCH   1  13
BRANCH  10  21
HETATM   21  N4  UNL     1      22.792   1.112  52.736  1.00  0.00    -0.353 N 
HETATM   22  C13 UNL     1      21.401   1.033  52.406  1.00  0.00     0.118 A 
HETATM   23  C14 UNL     1      20.613   0.100  52.865  1.00  0.00     0.087 A 
HETATM   24 CL1  UNL     1      18.909  -0.029  52.483  1.00  0.00    -0.080 Cl
HETATM   25  C15 UNL     1      21.109  -0.955  53.774  1.00  0.00     0.137 A 
HETATM   26  F1  UNL     1      20.383  -1.965  54.305  1.00  0.00    -0.205 F 
HETATM   27  C16 UNL     1      22.407  -0.858  54.071  1.00  0.00     0.037 A 
HETATM   28  C17 UNL     1      23.408   0.144  53.625  1.00  0.00     0.158 A 
ENDBRANCH  10  21
TORSDOF 6
ENDMDL
MODEL 8
REMARK VINA RESULT:      -7.1      4.222      5.225
REMARK  6 active torsions:
REMARK  status: ('A' for Active; 'I' for Inactive)
REMARK    1  A    between atoms: C2_2  and  N1_3 
REMARK    2  A    between atoms: N1_3  and  O1_4 
REMARK    3  A    between atoms: N1_3  and  C3_5 
REMARK    4  A    between atoms: C3_5  and  C4_6 
REMARK    5  A    between atoms: C5_7  and  C6_8 
REMARK       I    between atoms: C6_8  and  N2_10 
REMARK    6  A    between atoms: C12_17  and  N4_18 
ROOT
HETATM    1  C6  UNL     1      25.607   8.252  49.666  1.00  0.00     0.323 C 
HETATM    2  O2  UNL     1      24.635   8.638  50.356  1.00  0.00    -0.256 OA
HETATM    3  N2  UNL     1      26.148   6.967  49.404  1.00  0.00    -0.188 N 
HETATM    4  N3  UNL     1      27.220   6.740  48.640  1.00  0.00    -0.174 NA
HETATM    5  C7  UNL     1      27.469   5.430  48.584  1.00  0.00     0.173 A 
HETATM    6  C8  UNL     1      26.496   4.836  49.356  1.00  0.00     0.099 A 
HETATM    7  C9  UNL     1      25.668   5.803  49.870  1.00  0.00     0.092 A 
HETATM    8  C10 UNL     1      24.617   5.624  50.652  1.00  0.00     0.036 A 
HETATM    9  C11 UNL     1      24.005   4.424  51.216  1.00  0.00     0.029 A 
HETATM   10  C12 UNL     1      24.529   3.233  50.950  1.00  0.00     0.031 A 
HETATM   11  C18 UNL     1      25.645   2.633  50.197  1.00  0.00     0.206 A 
HETATM   12  N5  UNL     1      26.458   3.569  49.508  1.00  0.00    -0.280 NA
ENDROOT
BRANCH   1  13
HETATM   13  C5  UNL     1      26.253   9.402  49.043  1.00  0.00    -0.002 C 
HETATM   14  C4  UNL     1      26.805  10.374  48.536  1.00  0.00    -0.080 C 
BRANCH  14  15
HETATM   15  C3  UNL     1      27.472  11.537  47.956  1.00  0.00     0.214 C 
BRANCH  15  16
HETATM   16  N1  UNL     1      27.446  12.641  48.876  1.00  0.00    -0.189 NA
BRANCH  16  17
HETATM   17  C2  UNL     1      27.254  13.923  48.258  1.00  0.00     0.117 C 
HETATM   18  C1  UNL     1      25.795  14.064  47.913  1.00  0.00     0.023 C 
ENDBRANCH  16  17
BRANCH  16  19
HETATM   19  O1  UNL     1      28.601  12.609  49.595  1.00  0.00    -0.312 OA
HETATM   20  H6  UNL     1      28.565  11.828  50.218  1.00  0.00     0.237 HD
ENDBRANCH  16  19
ENDBRANCH  15  16
ENDBRANCH  14  15
ENDBRANCH   1  13
BRANCH  10  21
HETATM   21  N4  UNL     1      23.876   2.117  51.534  1.00  0.00    -0.353 N 
HETATM   22  C13 UNL     1      24.728   1.399  52.434  1.00  0.00     0.118 A 
HETATM   23  C14 UNL     1      24.338   0.345  53.094  1.00  0.00     0.087 A 
HETATM   24 CL1  UNL     1      25.350  -0.557  54.203  1.00  0.00    -0.080 Cl
HETATM   25  C15 UNL     1      22.968  -0.193  52.954  1.00  0.00     0.137 A 
HETATM   26  F1  UNL     1      22.460  -1.275  53.589  1.00  0.00    -0.205 F 
HETATM   27  C16 UNL     1      22.193   0.489  52.107  1.00  0.00     0.037 A 
HETATM   28  C17 UNL     1      22.508   1.693  51.297  1.00  0.00     0.158 A 
ENDBRANCH  10  21
TORSDOF 6
ENDMDL
MODEL 9
REMARK VINA RESULT:      -7.1      1.387      1.821
REMARK  6 active torsions:
REMARK  status: ('A' for Active; 'I' for Inactive)
REMARK    1  A    between atoms: C2_2  and  N1_3 
REMARK    2  A    between atoms: N1_3  and  O1_4 
REMARK    3  A    between atoms: N1_3  and  C3_5 
REMARK    4  A    between atoms: C3_5  and  C4_6 
REMARK    5  A    between atoms: C5_7  and  C6_8 
REMARK       I    between atoms: C6_8  and  N2_10 
REMARK    6  A    between atoms: C12_17  and  N4_18 
ROOT
HETATM    1  C6  UNL     1      25.717   5.093  49.057  1.00  0.00     0.323 C 
HETATM    2  O2  UNL     1      24.745   5.703  48.555  1.00  0.00    -0.256 OA
HETATM    3  N2  UNL     1      25.804   3.968  49.918  1.00  0.00    -0.188 N 
HETATM    4  N3  UNL     1      26.947   3.452  50.374  1.00  0.00    -0.174 NA
HETATM    5  C7  UNL     1      26.692   2.397  51.152  1.00  0.00     0.173 A 
HETATM    6  C8  UNL     1      25.321   2.271  51.164  1.00  0.00     0.099 A 
HETATM    7  C9  UNL     1      24.765   3.258  50.389  1.00  0.00     0.092 A 
HETATM    8  C10 UNL     1      23.480   3.462  50.152  1.00  0.00     0.036 A 
HETATM    9  C11 UNL     1      22.276   2.767  50.599  1.00  0.00     0.029 A 
HETATM   10  C12 UNL     1      22.386   1.713  51.399  1.00  0.00     0.031 A 
HETATM   11  C18 UNL     1      23.422   0.910  52.072  1.00  0.00     0.206 A 
HETATM   12  N5  UNL     1      24.751   1.341  51.828  1.00  0.00    -0.280 NA
ENDROOT
BRANCH   1  13
HETATM   13  C5  UNL     1      26.964   5.716  48.627  1.00  0.00    -0.002 C 
HETATM   14  C4  UNL     1      28.019   6.240  48.284  1.00  0.00    -0.080 C 
BRANCH  14  15
HETATM   15  C3  UNL     1      29.283   6.864  47.902  1.00  0.00     0.214 C 
BRANCH  15  16
HETATM   16  N1  UNL     1      30.388   6.185  48.520  1.00  0.00    -0.189 NA
BRANCH  16  17
HETATM   17  C2  UNL     1      31.655   6.839  48.354  1.00  0.00     0.117 C 
HETATM   18  C1  UNL     1      32.703   6.021  49.062  1.00  0.00     0.023 C 
ENDBRANCH  16  17
BRANCH  16  19
HETATM   19  O1  UNL     1      30.422   4.916  48.030  1.00  0.00    -0.312 OA
HETATM   20  H6  UNL     1      29.908   4.323  48.651  1.00  0.00     0.237 HD
ENDBRANCH  16  19
ENDBRANCH  15  16
ENDBRANCH  14  15
ENDBRANCH   1  13
BRANCH  10  21
HETATM   21  N4  UNL     1      21.171   1.093  51.788  1.00  0.00    -0.353 N 
HETATM   22  C13 UNL     1      21.377   0.046  52.742  1.00  0.00     0.118 A 
HETATM   23  C14 UNL     1      20.401  -0.656  53.250  1.00  0.00     0.087 A 
HETATM   24 CL1  UNL     1      20.615  -1.942  54.419  1.00  0.00    -0.080 Cl
HETATM   25  C15 UNL     1      18.994  -0.417  52.866  1.00  0.00     0.137 A 
HETATM   26  F1  UNL     1      17.910  -1.082  53.330  1.00  0.00    -0.205 F 
HETATM   27  C16 UNL     1      18.827   0.561  51.972  1.00  0.00     0.037 A 
HETATM   28  C17 UNL     1      19.839   1.428  51.318  1.00  0.00     0.158 A 
ENDBRANCH  10  21
TORSDOF 6
ENDMDL
