MODEL 1
REMARK VINA RESULT:      -8.4      0.000      0.000
REMARK  2 active torsions:
REMARK  status: ('A' for Active; 'I' for Inactive)
REMARK    1  A    between atoms: C3_3  and  C4_4 
REMARK       I    between atoms: C4_4  and  N1_6 
REMARK    2  A    between atoms: N1_6  and  C5_7 
ROOT
HETATM    1  C1  UNL     1      29.319   5.987  48.103  1.00  0.00     0.112 C 
HETATM    2  C2  UNL     1      28.107   5.314  48.541  1.00  0.00    -0.101 C 
HETATM    3  C3  UNL     1      27.113   4.761  48.907  1.00  0.00    -0.006 C 
ENDROOT
BRANCH   3   4
HETATM    4  C4  UNL     1      25.950   4.103  49.355  1.00  0.00     0.300 C 
HETATM    5  O1  UNL     1      24.756   4.087  49.011  1.00  0.00    -0.258 OA
HETATM    6  N1  UNL     1      26.170   3.239  50.496  1.00  0.00    -0.319 N 
HETATM    7  H4  UNL     1      27.091   3.109  50.978  1.00  0.00     0.169 HD
BRANCH   6   8
HETATM    8  C5  UNL     1      25.453   2.373  51.321  1.00  0.00     0.066 A 
HETATM    9  C6  UNL     1      24.254   1.897  51.802  1.00  0.00     0.310 A 
HETATM   10  C7  UNL     1      24.632   0.922  52.767  1.00  0.00     0.258 A 
HETATM   11  N3  UNL     1      24.563   1.224  52.473  1.00  0.00     0.016 N 
HETATM   12  C11 UNL     1      23.352   1.045  52.657  1.00  0.00     0.278 A 
HETATM   13  C8  UNL     1      23.862   0.076  53.680  1.00  0.00     0.165 A 
HETATM   14  C12 UNL     1      25.748   1.426  52.268  1.00  0.00     0.223 A 
HETATM   15  C9  UNL     1      22.650  -0.389  54.198  1.00  0.00     0.064 A 
HETATM   16  N4  UNL     1      25.181  -0.365  54.060  1.00  0.00    -0.390 N 
HETATM   17 CL1  UNL     1      22.854  -1.602  55.485  1.00  0.00    -0.085 Cl
HETATM   18  C10 UNL     1      21.474   0.175  53.619  1.00  0.00     0.136 A 
HETATM   19  N2  UNL     1      21.975   1.084  52.635  1.00  0.00    -0.257 NA
HETATM   20  C16 UNL     1      25.400  -1.598  53.289  1.00  0.00     0.145 C 
HETATM   21  C17 UNL     1      26.097   0.279  54.988  1.00  0.00     0.119 C 
HETATM   22  C15 UNL     1      26.775  -1.530  52.693  1.00  0.00    -0.011 C 
HETATM   23  C14 UNL     1      27.389  -0.414  52.220  1.00  0.00    -0.021 C 
HETATM   24  C13 UNL     1      27.046   0.939  52.763  1.00  0.00     0.055 C 
HETATM   25  C18 UNL     1      27.211   0.995  54.255  1.00  0.00     0.031 C 
ENDBRANCH   6   8
ENDBRANCH   3   4
TORSDOF 2
ENDMDL
MODEL 2
REMARK VINA RESULT:      -8.3      3.231      6.673
REMARK  2 active torsions:
REMARK  status: ('A' for Active; 'I' for Inactive)
REMARK    1  A    between atoms: C3_3  and  C4_4 
REMARK       I    between atoms: C4_4  and  N1_6 
REMARK    2  A    between atoms: N1_6  and  C5_7 
ROOT
HETATM    1  C1  UNL     1      16.604  -1.370  52.591  1.00  0.00     0.112 C 
HETATM    2  C2  UNL     1      17.975  -1.387  53.076  1.00  0.00    -0.101 C 
HETATM    3  C3  UNL     1      19.099  -1.399  53.480  1.00  0.00    -0.006 C 
ENDROOT
BRANCH   3   4
HETATM    4  C4  UNL     1      20.421  -1.401  53.971  1.00  0.00     0.300 C 
HETATM    5  O1  UNL     1      21.032  -2.015  54.861  1.00  0.00    -0.258 OA
HETATM    6  N1  UNL     1      21.295  -0.461  53.300  1.00  0.00    -0.319 N 
HETATM    7  H4  UNL     1      20.998   0.186  52.532  1.00  0.00     0.169 HD
BRANCH   6   8
HETATM    8  C5  UNL     1      22.626  -0.046  53.332  1.00  0.00     0.066 A 
HETATM    9  C6  UNL     1      23.933  -0.248  53.711  1.00  0.00     0.310 A 
HETATM   10  C7  UNL     1      24.610   0.916  53.251  1.00  0.00     0.258 A 
HETATM   11  N3  UNL     1      24.368   0.587  53.375  1.00  0.00     0.016 N 
HETATM   12  C11 UNL     1      25.397   0.085  53.848  1.00  0.00     0.278 A 
HETATM   13  C8  UNL     1      25.997   1.369  53.363  1.00  0.00     0.165 A 
HETATM   14  C12 UNL     1      23.337   1.052  52.920  1.00  0.00     0.223 A 
HETATM   15  C9  UNL     1      27.321   1.187  53.774  1.00  0.00     0.064 A 
HETATM   16  N4  UNL     1      25.475   2.496  52.631  1.00  0.00    -0.390 N 
HETATM   17 CL1  UNL     1      28.381   2.556  53.357  1.00  0.00    -0.085 Cl
HETATM   18  C10 UNL     1      27.596  -0.042  54.445  1.00  0.00     0.136 A 
HETATM   19  N2  UNL     1      26.334  -0.715  54.465  1.00  0.00    -0.257 NA
HETATM   20  C16 UNL     1      25.803   2.214  51.226  1.00  0.00     0.145 C 
HETATM   21  C17 UNL     1      24.765   3.648  53.166  1.00  0.00     0.119 C 
HETATM   22  C15 UNL     1      24.581   2.495  50.401  1.00  0.00    -0.011 C 
HETATM   23  C14 UNL     1      23.295   2.262  50.772  1.00  0.00    -0.021 C 
HETATM   24  C13 UNL     1      22.899   2.268  52.217  1.00  0.00     0.055 C 
HETATM   25  C18 UNL     1      23.280   3.556  52.889  1.00  0.00     0.031 C 
ENDBRANCH   6   8
ENDBRANCH   3   4
TORSDOF 2
ENDMDL
MODEL 3
REMARK VINA RESULT:      -8.3      3.338      5.236
REMARK  2 active torsions:
REMARK  status: ('A' for Active; 'I' for Inactive)
REMARK    1  A    between atoms: C3_3  and  C4_4 
REMARK       I    between atoms: C4_4  and  N1_6 
REMARK    2  A    between atoms: N1_6  and  C5_7 
ROOT
HETATM    1  C1  UNL     1      30.163  -1.017  53.822  1.00  0.00     0.112 C 
HETATM    2  C2  UNL     1      28.884  -0.325  53.828  1.00  0.00    -0.101 C 
HETATM    3  C3  UNL     1      27.835   0.245  53.840  1.00  0.00    -0.006 C 
ENDROOT
BRANCH   3   4
HETATM    4  C4  UNL     1      26.594   0.914  53.873  1.00  0.00     0.300 C 
HETATM    5  O1  UNL     1      26.204   2.036  54.238  1.00  0.00    -0.258 OA
HETATM    6  N1  UNL     1      25.489   0.120  53.376  1.00  0.00    -0.319 N 
HETATM    7  H4  UNL     1      25.570  -0.867  53.037  1.00  0.00     0.169 HD
BRANCH   6   8
HETATM    8  C5  UNL     1      24.117   0.235  53.161  1.00  0.00     0.066 A 
HETATM    9  C6  UNL     1      22.831  -0.208  53.374  1.00  0.00     0.310 A 
HETATM   10  C7  UNL     1      22.031   0.658  52.577  1.00  0.00     0.258 A 
HETATM   11  N3  UNL     1      22.307   0.419  52.798  1.00  0.00     0.016 N 
HETATM   12  C11 UNL     1      21.333  -0.223  53.211  1.00  0.00     0.278 A 
HETATM   13  C8  UNL     1      20.594   0.713  52.304  1.00  0.00     0.165 A 
HETATM   14  C12 UNL     1      23.289   1.031  52.411  1.00  0.00     0.223 A 
HETATM   15  C9  UNL     1      19.289   0.249  52.488  1.00  0.00     0.064 A 
HETATM   16  N4  UNL     1      20.998   1.830  51.487  1.00  0.00    -0.390 N 
HETATM   17 CL1  UNL     1      18.081   1.149  51.539  1.00  0.00    -0.085 Cl
HETATM   18  C10 UNL     1      19.145  -0.848  53.390  1.00  0.00     0.136 A 
HETATM   19  N2  UNL     1      20.480  -1.112  53.829  1.00  0.00    -0.257 NA
HETATM   20  C16 UNL     1      20.766   3.013  52.329  1.00  0.00     0.145 C 
HETATM   21  C17 UNL     1      21.534   1.790  50.135  1.00  0.00     0.119 C 
HETATM   22  C15 UNL     1      21.975   3.896  52.226  1.00  0.00    -0.011 C 
HETATM   23  C14 UNL     1      23.264   3.480  52.126  1.00  0.00    -0.021 C 
HETATM   24  C13 UNL     1      23.597   2.154  51.512  1.00  0.00     0.055 C 
HETATM   25  C18 UNL     1      23.029   2.027  50.127  1.00  0.00     0.031 C 
ENDBRANCH   6   8
ENDBRANCH   3   4
TORSDOF 2
ENDMDL
MODEL 4
REMARK VINA RESULT:      -8.1      1.641      3.619
REMARK  2 active torsions:
REMARK  status: ('A' for Active; 'I' for Inactive)
REMARK    1  A    between atoms: C3_3  and  C4_4 
REMARK       I    between atoms: C4_4  and  N1_6 
REMARK    2  A    between atoms: N1_6  and  C5_7 
ROOT
HETATM    1  C1  UNL     1      29.075   5.742  47.931  1.00  0.00     0.112 C 
HETATM    2  C2  UNL     1      27.830   5.322  48.556  1.00  0.00    -0.101 C 
HETATM    3  C3  UNL     1      26.812   4.976  49.074  1.00  0.00    -0.006 C 
ENDROOT
BRANCH   3   4
HETATM    4  C4  UNL     1      25.619   4.557  49.699  1.00  0.00     0.300 C 
HETATM    5  O1  UNL     1      24.462   5.002  49.783  1.00  0.00    -0.258 OA
HETATM    6  N1  UNL     1      25.750   3.316  50.435  1.00  0.00    -0.319 N 
HETATM    7  H4  UNL     1      26.638   2.770  50.529  1.00  0.00     0.169 HD
BRANCH   6   8
HETATM    8  C5  UNL     1      24.966   2.451  51.197  1.00  0.00     0.066 A 
HETATM    9  C6  UNL     1      24.844   1.520  52.203  1.00  0.00     0.310 A 
HETATM   10  C7  UNL     1      23.469   1.155  52.171  1.00  0.00     0.258 A 
HETATM   11  N3  UNL     1      23.873   1.289  52.144  1.00  0.00     0.016 N 
HETATM   12  C11 UNL     1      24.131   0.527  53.084  1.00  0.00     0.278 A 
HETATM   13  C8  UNL     1      22.680   0.185  52.932  1.00  0.00     0.165 A 
HETATM   14  C12 UNL     1      23.654   2.051  51.217  1.00  0.00     0.223 A 
HETATM   15  C9  UNL     1      22.555  -0.786  53.929  1.00  0.00     0.064 A 
HETATM   16  N4  UNL     1      21.625   0.686  52.087  1.00  0.00    -0.390 N 
HETATM   17 CL1  UNL     1      20.909  -1.453  54.058  1.00  0.00    -0.085 Cl
HETATM   18  C10 UNL     1      23.744  -1.075  54.663  1.00  0.00     0.136 A 
HETATM   19  N2  UNL     1      24.724  -0.207  54.088  1.00  0.00    -0.257 NA
HETATM   20  C16 UNL     1      20.944   1.703  52.901  1.00  0.00     0.145 C 
HETATM   21  C17 UNL     1      21.316   0.283  50.723  1.00  0.00     0.119 C 
HETATM   22  C15 UNL     1      20.730   2.915  52.041  1.00  0.00    -0.011 C 
HETATM   23  C14 UNL     1      21.582   3.383  51.092  1.00  0.00    -0.021 C 
HETATM   24  C13 UNL     1      22.517   2.456  50.375  1.00  0.00     0.055 C 
HETATM   25  C18 UNL     1      21.780   1.321  49.724  1.00  0.00     0.031 C 
ENDBRANCH   6   8
ENDBRANCH   3   4
TORSDOF 2
ENDMDL
MODEL 5
REMARK VINA RESULT:      -7.8      2.162      4.147
REMARK  2 active torsions:
REMARK  status: ('A' for Active; 'I' for Inactive)
REMARK    1  A    between atoms: C3_3  and  C4_4 
REMARK       I    between atoms: C4_4  and  N1_6 
REMARK    2  A    between atoms: N1_6  and  C5_7 
ROOT
HETATM    1  C1  UNL     1      27.268   9.277  46.749  1.00  0.00     0.112 C 
HETATM    2  C2  UNL     1      27.451   7.966  47.352  1.00  0.00    -0.101 C 
HETATM    3  C3  UNL     1      27.595   6.890  47.850  1.00  0.00    -0.006 C 
ENDROOT
BRANCH   3   4
HETATM    4  C4  UNL     1      27.753   5.625  48.452  1.00  0.00     0.300 C 
HETATM    5  O1  UNL     1      28.645   4.760  48.471  1.00  0.00    -0.258 OA
HETATM    6  N1  UNL     1      26.609   5.203  49.235  1.00  0.00    -0.319 N 
HETATM    7  H4  UNL     1      25.726   5.755  49.346  1.00  0.00     0.169 HD
BRANCH   6   8
HETATM    8  C5  UNL     1      26.207   4.127  50.025  1.00  0.00     0.066 A 
HETATM    9  C6  UNL     1      26.513   3.029  50.797  1.00  0.00     0.310 A 
HETATM   10  C7  UNL     1      25.244   2.501  51.165  1.00  0.00     0.258 A 
HETATM   11  N3  UNL     1      25.602   2.690  51.028  1.00  0.00     0.016 N 
HETATM   12  C11 UNL     1      26.227   1.817  51.646  1.00  0.00     0.278 A 
HETATM   13  C8  UNL     1      24.842   1.323  51.934  1.00  0.00     0.165 A 
HETATM   14  C12 UNL     1      25.017   3.564  50.410  1.00  0.00     0.223 A 
HETATM   15  C9  UNL     1      25.144   0.188  52.691  1.00  0.00     0.064 A 
HETATM   16  N4  UNL     1      23.525   1.820  51.623  1.00  0.00    -0.390 N 
HETATM   17 CL1  UNL     1      23.699  -0.698  53.237  1.00  0.00    -0.085 Cl
HETATM   18  C10 UNL     1      26.533  -0.067  52.897  1.00  0.00     0.136 A 
HETATM   19  N2  UNL     1      27.186   1.005  52.212  1.00  0.00    -0.257 NA
HETATM   20  C16 UNL     1      23.125   2.587  52.812  1.00  0.00     0.145 C 
HETATM   21  C17 UNL     1      22.769   1.620  50.397  1.00  0.00     0.119 C 
HETATM   22  C15 UNL     1      22.544   3.890  52.346  1.00  0.00    -0.011 C 
HETATM   23  C14 UNL     1      22.965   4.619  51.280  1.00  0.00    -0.021 C 
HETATM   24  C13 UNL     1      23.631   3.957  50.113  1.00  0.00     0.055 C 
HETATM   25  C18 UNL     1      22.777   2.864  49.535  1.00  0.00     0.031 C 
ENDBRANCH   6   8
ENDBRANCH   3   4
TORSDOF 2
ENDMDL
MODEL 6
REMARK VINA RESULT:      -7.5      3.533      7.473
REMARK  2 active torsions:
REMARK  status: ('A' for Active; 'I' for Inactive)
REMARK    1  A    between atoms: C3_3  and  C4_4 
REMARK       I    between atoms: C4_4  and  N1_6 
REMARK    2  A    between atoms: N1_6  and  C5_7 
ROOT
HETATM    1  C1  UNL     1      21.194  -1.640  54.570  1.00  0.00     0.112 C 
HETATM    2  C2  UNL     1      22.302  -0.898  53.990  1.00  0.00    -0.101 C 
HETATM    3  C3  UNL     1      23.208  -0.283  53.514  1.00  0.00    -0.006 C 
ENDROOT
BRANCH   3   4
HETATM    4  C4  UNL     1      24.266   0.456  52.945  1.00  0.00     0.300 C 
HETATM    5  O1  UNL     1      25.506   0.413  53.005  1.00  0.00    -0.258 OA
HETATM    6  N1  UNL     1      23.827   1.536  52.086  1.00  0.00    -0.319 N 
HETATM    7  H4  UNL     1      22.827   1.783  51.901  1.00  0.00     0.169 HD
BRANCH   6   8
HETATM    8  C5  UNL     1      24.373   2.538  51.284  1.00  0.00     0.066 A 
HETATM    9  C6  UNL     1      25.434   3.064  50.582  1.00  0.00     0.310 A 
HETATM   10  C7  UNL     1      24.940   4.303  50.087  1.00  0.00     0.258 A 
HETATM   11  N3  UNL     1      25.049   3.927  50.258  1.00  0.00     0.016 N 
HETATM   12  C11 UNL     1      26.163   4.079  49.739  1.00  0.00     0.278 A 
HETATM   13  C8  UNL     1      25.556   5.379  49.309  1.00  0.00     0.165 A 
HETATM   14  C12 UNL     1      23.962   3.746  50.781  1.00  0.00     0.223 A 
HETATM   15  C9  UNL     1      26.639   5.935  48.622  1.00  0.00     0.064 A 
HETATM   16  N4  UNL     1      24.245   5.960  49.454  1.00  0.00    -0.390 N 
HETATM   17 CL1  UNL     1      26.288   7.542  47.940  1.00  0.00    -0.085 Cl
HETATM   18  C10 UNL     1      27.821   5.137  48.583  1.00  0.00     0.136 A 
HETATM   19  N2  UNL     1      27.466   3.957  49.308  1.00  0.00    -0.257 NA
HETATM   20  C16 UNL     1      23.544   5.618  48.207  1.00  0.00     0.145 C 
HETATM   21  C17 UNL     1      23.725   6.704  50.591  1.00  0.00     0.119 C 
HETATM   22  C15 UNL     1      22.176   5.119  48.568  1.00  0.00    -0.011 C 
HETATM   23  C14 UNL     1      21.858   4.369  49.655  1.00  0.00    -0.021 C 
HETATM   24  C13 UNL     1      22.676   4.449  50.909  1.00  0.00     0.055 C 
HETATM   25  C18 UNL     1      22.776   5.860  51.415  1.00  0.00     0.031 C 
ENDBRANCH   6   8
ENDBRANCH   3   4
TORSDOF 2
ENDMDL
MODEL 7
REMARK VINA RESULT:      -7.3      3.915      7.818
REMARK  2 active torsions:
REMARK  status: ('A' for Active; 'I' for Inactive)
REMARK    1  A    between atoms: C3_3  and  C4_4 
REMARK       I    between atoms: C4_4  and  N1_6 
REMARK    2  A    between atoms: N1_6  and  C5_7 
ROOT
HETATM    1  C1  UNL     1      22.025  -1.084  53.969  1.00  0.00     0.112 C 
HETATM    2  C2  UNL     1      22.282  -0.151  52.883  1.00  0.00    -0.101 C 
HETATM    3  C3  UNL     1      22.498   0.611  51.989  1.00  0.00    -0.006 C 
ENDROOT
BRANCH   3   4
HETATM    4  C4  UNL     1      22.771   1.504  50.933  1.00  0.00     0.300 C 
HETATM    5  O1  UNL     1      22.236   1.775  49.845  1.00  0.00    -0.258 OA
HETATM    6  N1  UNL     1      23.962   2.302  51.135  1.00  0.00    -0.319 N 
HETATM    7  H4  UNL     1      24.593   2.232  51.968  1.00  0.00     0.169 HD
BRANCH   6   8
HETATM    8  C5  UNL     1      24.687   3.303  50.489  1.00  0.00     0.066 A 
HETATM    9  C6  UNL     1      25.838   3.738  49.872  1.00  0.00     0.310 A 
HETATM   10  C7  UNL     1      25.570   5.101  49.561  1.00  0.00     0.258 A 
HETATM   11  N3  UNL     1      25.610   4.691  49.676  1.00  0.00     0.016 N 
HETATM   12  C11 UNL     1      26.747   4.726  49.187  1.00  0.00     0.278 A 
HETATM   13  C8  UNL     1      26.375   6.158  48.949  1.00  0.00     0.165 A 
HETATM   14  C12 UNL     1      24.495   4.622  50.166  1.00  0.00     0.223 A 
HETATM   15  C9  UNL     1      27.552   6.617  48.352  1.00  0.00     0.064 A 
HETATM   16  N4  UNL     1      25.174   6.923  49.174  1.00  0.00    -0.390 N 
HETATM   17 CL1  UNL     1      27.491   8.341  47.910  1.00  0.00    -0.085 Cl
HETATM   18  C10 UNL     1      28.587   5.647  48.200  1.00  0.00     0.136 A 
HETATM   19  N2  UNL     1      28.023   4.451  48.745  1.00  0.00    -0.257 NA
HETATM   20  C16 UNL     1      24.460   6.885  47.889  1.00  0.00     0.145 C 
HETATM   21  C17 UNL     1      24.756   7.574  50.407  1.00  0.00     0.119 C 
HETATM   22  C15 UNL     1      23.019   6.577  48.172  1.00  0.00    -0.011 C 
HETATM   23  C14 UNL     1      22.553   5.742  49.138  1.00  0.00    -0.021 C 
HETATM   24  C13 UNL     1      23.340   5.505  50.391  1.00  0.00     0.055 C 
HETATM   25  C18 UNL     1      23.659   6.792  51.097  1.00  0.00     0.031 C 
ENDBRANCH   6   8
ENDBRANCH   3   4
TORSDOF 2
ENDMDL
MODEL 8
REMARK VINA RESULT:      -7.3      2.032      4.216
REMARK  2 active torsions:
REMARK  status: ('A' for Active; 'I' for Inactive)
REMARK    1  A    between atoms: C3_3  and  C4_4 
REMARK       I    between atoms: C4_4  and  N1_6 
REMARK    2  A    between atoms: N1_6  and  C5_7 
ROOT
HETATM    1  C1  UNL     1      31.332   5.804  47.140  1.00  0.00     0.112 C 
HETATM    2  C2  UNL     1      29.993   5.666  47.693  1.00  0.00    -0.101 C 
HETATM    3  C3  UNL     1      28.895   5.545  48.146  1.00  0.00    -0.006 C 
ENDROOT
BRANCH   3   4
HETATM    4  C4  UNL     1      27.596   5.386  48.672  1.00  0.00     0.300 C 
HETATM    5  O1  UNL     1      26.555   6.063  48.674  1.00  0.00    -0.258 OA
HETATM    6  N1  UNL     1      27.407   4.146  49.396  1.00  0.00    -0.319 N 
HETATM    7  H4  UNL     1      28.151   3.426  49.550  1.00  0.00     0.169 HD
BRANCH   6   8
HETATM    8  C5  UNL     1      26.403   3.466  50.084  1.00  0.00     0.066 A 
HETATM    9  C6  UNL     1      26.013   2.559  51.043  1.00  0.00     0.310 A 
HETATM   10  C7  UNL     1      24.595   2.526  50.931  1.00  0.00     0.258 A 
HETATM   11  N3  UNL     1      25.021   2.563  50.928  1.00  0.00     0.016 N 
HETATM   12  C11 UNL     1      25.041   1.734  51.847  1.00  0.00     0.278 A 
HETATM   13  C8  UNL     1      23.562   1.745  51.612  1.00  0.00     0.165 A 
HETATM   14  C12 UNL     1      25.035   3.382  50.025  1.00  0.00     0.223 A 
HETATM   15  C9  UNL     1      23.160   0.801  52.561  1.00  0.00     0.064 A 
HETATM   16  N4  UNL     1      22.700   2.502  50.740  1.00  0.00    -0.390 N 
HETATM   17 CL1  UNL     1      21.400   0.532  52.584  1.00  0.00    -0.085 Cl
HETATM   18  C10 UNL     1      24.207   0.220  53.338  1.00  0.00     0.136 A 
HETATM   19  N2  UNL     1      25.392   0.852  52.847  1.00  0.00    -0.257 NA
HETATM   20  C16 UNL     1      22.229   3.626  51.563  1.00  0.00     0.145 C 
HETATM   21  C17 UNL     1      22.383   2.224  49.347  1.00  0.00     0.119 C 
HETATM   22  C15 UNL     1      22.350   4.879  50.745  1.00  0.00    -0.011 C 
HETATM   23  C14 UNL     1      23.338   5.163  49.858  1.00  0.00    -0.021 C 
HETATM   24  C13 UNL     1      24.072   4.066  49.148  1.00  0.00     0.055 C 
HETATM   25  C18 UNL     1      23.129   3.154  48.415  1.00  0.00     0.031 C 
ENDBRANCH   6   8
ENDBRANCH   3   4
TORSDOF 2
ENDMDL
MODEL 9
REMARK VINA RESULT:      -7.3      2.447      3.013
REMARK  2 active torsions:
REMARK  status: ('A' for Active; 'I' for Inactive)
REMARK    1  A    between atoms: C3_3  and  C4_4 
REMARK       I    between atoms: C4_4  and  N1_6 
REMARK    2  A    between atoms: N1_6  and  C5_7 
ROOT
HETATM    1  C1  UNL     1      21.495   4.494  45.469  1.00  0.00     0.112 C 
HETATM    2  C2  UNL     1      22.014   4.243  46.805  1.00  0.00    -0.101 C 
HETATM    3  C3  UNL     1      22.438   4.031  47.901  1.00  0.00    -0.006 C 
ENDROOT
BRANCH   3   4
HETATM    4  C4  UNL     1      22.927   3.765  49.196  1.00  0.00     0.300 C 
HETATM    5  O1  UNL     1      23.556   4.408  50.053  1.00  0.00    -0.258 OA
HETATM    6  N1  UNL     1      22.651   2.421  49.660  1.00  0.00    -0.319 N 
HETATM    7  H4  UNL     1      22.155   1.687  49.102  1.00  0.00     0.169 HD
BRANCH   6   8
HETATM    8  C5  UNL     1      22.859   1.628  50.788  1.00  0.00     0.066 A 
HETATM    9  C6  UNL     1      22.385   0.753  51.740  1.00  0.00     0.310 A 
HETATM   10  C7  UNL     1      23.502   0.533  52.593  1.00  0.00     0.258 A 
HETATM   11  N3  UNL     1      23.192   0.630  52.315  1.00  0.00     0.016 N 
HETATM   12  C11 UNL     1      22.453  -0.122  52.965  1.00  0.00     0.278 A 
HETATM   13  C8  UNL     1      23.677  -0.246  53.820  1.00  0.00     0.165 A 
HETATM   14  C12 UNL     1      23.893   1.376  51.653  1.00  0.00     0.223 A 
HETATM   15  C9  UNL     1      23.195  -1.107  54.809  1.00  0.00     0.064 A 
HETATM   16  N4  UNL     1      25.018   0.275  53.717  1.00  0.00    -0.390 N 
HETATM   17 CL1  UNL     1      24.408  -1.502  56.051  1.00  0.00    -0.085 Cl
HETATM   18  C10 UNL     1      21.837  -1.519  54.661  1.00  0.00     0.136 A 
HETATM   19  N2  UNL     1      21.406  -0.865  53.464  1.00  0.00    -0.257 NA
HETATM   20  C16 UNL     1      25.786  -0.797  53.066  1.00  0.00     0.145 C 
HETATM   21  C17 UNL     1      25.497   1.579  54.148  1.00  0.00     0.119 C 
HETATM   22  C15 UNL     1      26.624  -0.174  51.988  1.00  0.00    -0.011 C 
HETATM   23  C14 UNL     1      26.262   0.867  51.194  1.00  0.00    -0.021 C 
HETATM   24  C13 UNL     1      25.273   1.888  51.670  1.00  0.00     0.055 C 
HETATM   25  C18 UNL     1      25.699   2.508  52.970  1.00  0.00     0.031 C 
ENDBRANCH   6   8
ENDBRANCH   3   4
TORSDOF 2
ENDMDL
