MODEL 1
REMARK VINA RESULT:      -8.1      0.000      0.000
REMARK  6 active torsions:
REMARK  status: ('A' for Active; 'I' for Inactive)
REMARK    1  A    between atoms: C2_2  and  C3_3 
REMARK    2  A    between atoms: C7_7  and  O1_8 
REMARK    3  A    between atoms: C8_9  and  C9_10 
REMARK    4  A    between atoms: C9_10  and  C10_11 
REMARK    5  A    between atoms: C10_11  and  C11_12 
REMARK    6  A    between atoms: C11_12  and  N1_13 
ROOT
HETATM    1  C9  UNL     1      24.367   2.947  52.170  1.00  0.00     0.043 C 
ENDROOT
BRANCH   1   2
HETATM    2  C8  UNL     1      23.299   1.947  51.818  1.00  0.00    -0.024 A 
HETATM    3  C7  UNL     1      22.756   1.919  50.570  1.00  0.00     0.077 A 
HETATM    4  C5  UNL     1      21.756   1.050  50.160  1.00  0.00    -0.028 A 
HETATM    5  C4  UNL     1      21.270   0.133  51.105  1.00  0.00     0.021 A 
HETATM    6  C6  UNL     1      21.153   0.998  48.807  1.00  0.00     0.051 C 
HETATM    7  C3  UNL     1      21.809   0.152  52.368  1.00  0.00    -0.036 A 
HETATM    8  C19 UNL     1      22.806   1.028  52.751  1.00  0.00     0.021 A 
BRANCH   3   9
HETATM    9  O1  UNL     1      23.183   2.790  49.592  1.00  0.00    -0.360 OA
HETATM   10  H8  UNL     1      23.560   2.473  48.720  1.00  0.00     0.217 HD
ENDBRANCH   3   9
BRANCH   7  11
HETATM   11  C2  UNL     1      21.393  -0.725  53.449  1.00  0.00     0.001 C 
HETATM   12  C1  UNL     1      21.473  -0.406  54.715  1.00  0.00     0.012 C 
ENDBRANCH   7  11
ENDBRANCH   1   2
BRANCH   1  13
HETATM   13  C10 UNL     1      25.658   2.275  52.457  1.00  0.00     0.035 C 
BRANCH  13  14
HETATM   14  C11 UNL     1      26.043   2.319  53.881  1.00  0.00     0.275 C 
BRANCH  14  15
HETATM   15  N1  UNL     1      26.948   1.286  54.353  1.00  0.00     0.119 NA
HETATM   16  C12 UNL     1      28.046   1.162  53.412  1.00  0.00     0.302 C 
HETATM   17  C13 UNL     1      29.296   0.577  53.779  1.00  0.00     0.003 C 
HETATM   18  C14 UNL     1      29.891  -0.626  53.732  1.00  0.00    -0.003 C 
HETATM   19  C15 UNL     1      29.556  -2.006  53.315  1.00  0.00    -0.003 C 
HETATM   20  C16 UNL     1      28.491  -2.734  52.900  1.00  0.00     0.003 C 
HETATM   21  C17 UNL     1      27.087  -2.099  52.811  1.00  0.00     0.299 C 
HETATM   22  N2  UNL     1      27.243  -0.895  53.530  1.00  0.00     0.115 N 
HETATM   23  C18 UNL     1      26.183  -0.044  53.908  1.00  0.00     0.540 C 
HETATM   24  H23 UNL     1      27.735  -1.172  54.472  1.00  0.00     0.318 HD
ENDBRANCH  14  15
ENDBRANCH  13  14
ENDBRANCH   1  13
TORSDOF 6
ENDMDL
MODEL 2
REMARK VINA RESULT:      -7.9      1.406      2.406
REMARK  6 active torsions:
REMARK  status: ('A' for Active; 'I' for Inactive)
REMARK    1  A    between atoms: C2_2  and  C3_3 
REMARK    2  A    between atoms: C7_7  and  O1_8 
REMARK    3  A    between atoms: C8_9  and  C9_10 
REMARK    4  A    between atoms: C9_10  and  C10_11 
REMARK    5  A    between atoms: C10_11  and  C11_12 
REMARK    6  A    between atoms: C11_12  and  N1_13 
ROOT
HETATM    1  C9  UNL     1      23.330   1.527  51.156  1.00  0.00     0.043 C 
ENDROOT
BRANCH   1   2
HETATM    2  C8  UNL     1      22.215   0.782  51.837  1.00  0.00    -0.024 A 
HETATM    3  C7  UNL     1      20.925   0.932  51.428  1.00  0.00     0.077 A 
HETATM    4  C5  UNL     1      19.832   0.305  52.006  1.00  0.00    -0.028 A 
HETATM    5  C4  UNL     1      20.077  -0.548  53.094  1.00  0.00     0.021 A 
HETATM    6  C6  UNL     1      18.422   0.449  51.575  1.00  0.00     0.051 C 
HETATM    7  C3  UNL     1      21.375  -0.707  53.517  1.00  0.00    -0.036 A 
HETATM    8  C19 UNL     1      22.447  -0.071  52.923  1.00  0.00     0.021 A 
BRANCH   3   9
HETATM    9  O1  UNL     1      20.610   1.753  50.368  1.00  0.00    -0.360 OA
HETATM   10  H8  UNL     1      19.670   1.876  50.048  1.00  0.00     0.217 HD
ENDBRANCH   3   9
BRANCH   7  11
HETATM   11  C2  UNL     1      21.774  -1.541  54.638  1.00  0.00     0.001 C 
HETATM   12  C1  UNL     1      22.862  -1.348  55.337  1.00  0.00     0.012 C 
ENDBRANCH   7  11
ENDBRANCH   1   2
BRANCH   1  13
HETATM   13  C10 UNL     1      23.793   2.672  51.978  1.00  0.00     0.035 C 
BRANCH  13  14
HETATM   14  C11 UNL     1      24.951   2.353  52.836  1.00  0.00     0.275 C 
BRANCH  14  15
HETATM   15  N1  UNL     1      25.897   1.373  52.331  1.00  0.00     0.119 NA
HETATM   16  C12 UNL     1      25.951   0.256  53.255  1.00  0.00     0.302 C 
HETATM   17  C13 UNL     1      26.424  -1.032  52.861  1.00  0.00     0.003 C 
HETATM   18  C14 UNL     1      27.576  -1.723  52.874  1.00  0.00    -0.003 C 
HETATM   19  C15 UNL     1      28.987  -1.507  53.265  1.00  0.00    -0.003 C 
HETATM   20  C16 UNL     1      29.807  -0.510  53.676  1.00  0.00     0.003 C 
HETATM   21  C17 UNL     1      29.291   0.939  53.796  1.00  0.00     0.299 C 
HETATM   22  N2  UNL     1      28.063   0.891  53.102  1.00  0.00     0.115 N 
HETATM   23  C18 UNL     1      27.294   2.022  52.755  1.00  0.00     0.540 C 
HETATM   24  H23 UNL     1      28.279   0.391  52.148  1.00  0.00     0.318 HD
ENDBRANCH  14  15
ENDBRANCH  13  14
ENDBRANCH   1  13
TORSDOF 6
ENDMDL
MODEL 3
REMARK VINA RESULT:      -7.8      2.842      4.796
REMARK  6 active torsions:
REMARK  status: ('A' for Active; 'I' for Inactive)
REMARK    1  A    between atoms: C2_2  and  C3_3 
REMARK    2  A    between atoms: C7_7  and  O1_8 
REMARK    3  A    between atoms: C8_9  and  C9_10 
REMARK    4  A    between atoms: C9_10  and  C10_11 
REMARK    5  A    between atoms: C10_11  and  C11_12 
REMARK    6  A    between atoms: C11_12  and  N1_13 
ROOT
HETATM    1  C9  UNL     1      23.771   2.571  50.662  1.00  0.00     0.043 C 
ENDROOT
BRANCH   1   2
HETATM    2  C8  UNL     1      24.525   3.825  50.313  1.00  0.00    -0.024 A 
HETATM    3  C7  UNL     1      24.021   5.050  50.626  1.00  0.00     0.077 A 
HETATM    4  C5  UNL     1      24.632   6.259  50.328  1.00  0.00    -0.028 A 
HETATM    5  C4  UNL     1      25.862   6.212  49.652  1.00  0.00     0.021 A 
HETATM    6  C6  UNL     1      24.105   7.603  50.662  1.00  0.00     0.051 C 
HETATM    7  C3  UNL     1      26.381   4.981  49.330  1.00  0.00    -0.036 A 
HETATM    8  C19 UNL     1      25.752   3.791  49.640  1.00  0.00     0.021 A 
BRANCH   3   9
HETATM    9  O1  UNL     1      22.819   5.173  51.287  1.00  0.00    -0.360 OA
HETATM   10  H8  UNL     1      21.979   4.741  50.955  1.00  0.00     0.217 HD
ENDBRANCH   3   9
BRANCH   7  11
HETATM   11  C2  UNL     1      27.632   4.781  48.618  1.00  0.00     0.001 C 
HETATM   12  C1  UNL     1      28.454   5.749  48.306  1.00  0.00     0.012 C 
ENDBRANCH   7  11
ENDBRANCH   1   2
BRANCH   1  13
HETATM   13  C10 UNL     1      24.551   1.716  51.591  1.00  0.00     0.035 C 
BRANCH  13  14
HETATM   14  C11 UNL     1      24.716   2.303  52.935  1.00  0.00     0.275 C 
BRANCH  14  15
HETATM   15  N1  UNL     1      25.852   1.849  53.718  1.00  0.00     0.119 NA
HETATM   16  C12 UNL     1      27.065   2.064  52.950  1.00  0.00     0.302 C 
HETATM   17  C13 UNL     1      28.350   2.142  53.568  1.00  0.00     0.003 C 
HETATM   18  C14 UNL     1      29.375   1.321  53.854  1.00  0.00    -0.003 C 
HETATM   19  C15 UNL     1      29.707  -0.115  53.722  1.00  0.00    -0.003 C 
HETATM   20  C16 UNL     1      29.123  -1.286  53.369  1.00  0.00     0.003 C 
HETATM   21  C17 UNL     1      27.627  -1.341  52.994  1.00  0.00     0.299 C 
HETATM   22  N2  UNL     1      27.147  -0.091  53.438  1.00  0.00     0.115 N 
HETATM   23  C18 UNL     1      25.785   0.268  53.503  1.00  0.00     0.540 C 
HETATM   24  H23 UNL     1      27.520   0.024  54.465  1.00  0.00     0.318 HD
ENDBRANCH  14  15
ENDBRANCH  13  14
ENDBRANCH   1  13
TORSDOF 6
ENDMDL
MODEL 4
REMARK VINA RESULT:      -7.7      2.997      4.845
REMARK  6 active torsions:
REMARK  status: ('A' for Active; 'I' for Inactive)
REMARK    1  A    between atoms: C2_2  and  C3_3 
REMARK    2  A    between atoms: C7_7  and  O1_8 
REMARK    3  A    between atoms: C8_9  and  C9_10 
REMARK    4  A    between atoms: C9_10  and  C10_11 
REMARK    5  A    between atoms: C10_11  and  C11_12 
REMARK    6  A    between atoms: C11_12  and  N1_13 
ROOT
HETATM    1  C9  UNL     1      24.205   2.678  50.907  1.00  0.00     0.043 C 
ENDROOT
BRANCH   1   2
HETATM    2  C8  UNL     1      24.733   3.864  50.148  1.00  0.00    -0.024 A 
HETATM    3  C7  UNL     1      26.023   3.893  49.711  1.00  0.00     0.077 A 
HETATM    4  C5  UNL     1      26.603   4.947  49.023  1.00  0.00    -0.028 A 
HETATM    5  C4  UNL     1      25.799   6.067  48.759  1.00  0.00     0.021 A 
HETATM    6  C6  UNL     1      28.001   4.999  48.533  1.00  0.00     0.051 C 
HETATM    7  C3  UNL     1      24.496   6.051  49.196  1.00  0.00    -0.036 A 
HETATM    8  C19 UNL     1      23.942   4.986  49.879  1.00  0.00     0.021 A 
BRANCH   3   9
HETATM    9  O1  UNL     1      26.869   2.830  49.935  1.00  0.00    -0.360 OA
HETATM   10  H8  UNL     1      27.282   2.307  49.187  1.00  0.00     0.217 HD
ENDBRANCH   3   9
BRANCH   7  11
HETATM   11  C2  UNL     1      23.557   7.144  49.010  1.00  0.00     0.001 C 
HETATM   12  C1  UNL     1      22.316   7.114  49.422  1.00  0.00     0.012 C 
ENDBRANCH   7  11
ENDBRANCH   1   2
BRANCH   1  13
HETATM   13  C10 UNL     1      24.042   2.991  52.349  1.00  0.00     0.035 C 
BRANCH  13  14
HETATM   14  C11 UNL     1      25.119   2.445  53.197  1.00  0.00     0.275 C 
BRANCH  14  15
HETATM   15  N1  UNL     1      26.023   1.488  52.582  1.00  0.00     0.119 NA
HETATM   16  C12 UNL     1      25.989   0.256  53.348  1.00  0.00     0.302 C 
HETATM   17  C13 UNL     1      26.401  -0.993  52.792  1.00  0.00     0.003 C 
HETATM   18  C14 UNL     1      27.512  -1.746  52.734  1.00  0.00    -0.003 C 
HETATM   19  C15 UNL     1      28.922  -1.667  53.178  1.00  0.00    -0.003 C 
HETATM   20  C16 UNL     1      29.784  -0.785  53.738  1.00  0.00     0.003 C 
HETATM   21  C17 UNL     1      29.346   0.664  54.042  1.00  0.00     0.299 C 
HETATM   22  N2  UNL     1      28.137   0.781  53.324  1.00  0.00     0.115 N 
HETATM   23  C18 UNL     1      27.441   1.991  53.119  1.00  0.00     0.540 C 
HETATM   24  H23 UNL     1      28.351   0.402  52.315  1.00  0.00     0.318 HD
ENDBRANCH  14  15
ENDBRANCH  13  14
ENDBRANCH   1  13
TORSDOF 6
ENDMDL
MODEL 5
REMARK VINA RESULT:      -7.6      2.309      3.811
REMARK  6 active torsions:
REMARK  status: ('A' for Active; 'I' for Inactive)
REMARK    1  A    between atoms: C2_2  and  C3_3 
REMARK    2  A    between atoms: C7_7  and  O1_8 
REMARK    3  A    between atoms: C8_9  and  C9_10 
REMARK    4  A    between atoms: C9_10  and  C10_11 
REMARK    5  A    between atoms: C10_11  and  C11_12 
REMARK    6  A    between atoms: C11_12  and  N1_13 
ROOT
HETATM    1  C9  UNL     1      21.673  -0.138  53.752  1.00  0.00     0.043 C 
ENDROOT
BRANCH   1   2
HETATM    2  C8  UNL     1      20.629   0.062  52.688  1.00  0.00    -0.024 A 
HETATM    3  C7  UNL     1      19.355  -0.383  52.870  1.00  0.00     0.077 A 
HETATM    4  C5  UNL     1      18.333  -0.263  51.942  1.00  0.00    -0.028 A 
HETATM    5  C4  UNL     1      18.637   0.365  50.723  1.00  0.00     0.021 A 
HETATM    6  C6  UNL     1      16.939  -0.734  52.119  1.00  0.00     0.051 C 
HETATM    7  C3  UNL     1      19.920   0.818  50.527  1.00  0.00    -0.036 A 
HETATM    8  C19 UNL     1      20.920   0.686  51.470  1.00  0.00     0.021 A 
BRANCH   3   9
HETATM    9  O1  UNL     1      18.985  -1.009  54.040  1.00  0.00    -0.360 OA
HETATM   10  H8  UNL     1      18.032  -1.053  54.345  1.00  0.00     0.217 HD
ENDBRANCH   3   9
BRANCH   7  11
HETATM   11  C2  UNL     1      20.381   1.469  49.312  1.00  0.00     0.001 C 
HETATM   12  C1  UNL     1      21.494   1.159  48.699  1.00  0.00     0.012 C 
ENDBRANCH   7  11
ENDBRANCH   1   2
BRANCH   1  13
HETATM   13  C10 UNL     1      22.965  -0.569  53.162  1.00  0.00     0.035 C 
BRANCH  13  14
HETATM   14  C11 UNL     1      24.039   0.435  53.297  1.00  0.00     0.275 C 
BRANCH  14  15
HETATM   15  N1  UNL     1      25.326   0.108  52.708  1.00  0.00     0.119 NA
HETATM   16  C12 UNL     1      25.831  -1.102  53.330  1.00  0.00     0.302 C 
HETATM   17  C13 UNL     1      26.820  -1.920  52.704  1.00  0.00     0.003 C 
HETATM   18  C14 UNL     1      28.156  -2.058  52.713  1.00  0.00    -0.003 C 
HETATM   19  C15 UNL     1      29.328  -1.408  53.341  1.00  0.00    -0.003 C 
HETATM   20  C16 UNL     1      29.631  -0.324  54.095  1.00  0.00     0.003 C 
HETATM   21  C17 UNL     1      28.541   0.694  54.490  1.00  0.00     0.299 C 
HETATM   22  N2  UNL     1      27.470   0.350  53.638  1.00  0.00     0.115 N 
HETATM   23  C18 UNL     1      26.299   1.119  53.472  1.00  0.00     0.540 C 
HETATM   24  H23 UNL     1      27.903   0.271  52.631  1.00  0.00     0.318 HD
ENDBRANCH  14  15
ENDBRANCH  13  14
ENDBRANCH   1  13
TORSDOF 6
ENDMDL
MODEL 6
REMARK VINA RESULT:      -7.5      3.716      6.093
REMARK  6 active torsions:
REMARK  status: ('A' for Active; 'I' for Inactive)
REMARK    1  A    between atoms: C2_2  and  C3_3 
REMARK    2  A    between atoms: C7_7  and  O1_8 
REMARK    3  A    between atoms: C8_9  and  C9_10 
REMARK    4  A    between atoms: C9_10  and  C10_11 
REMARK    5  A    between atoms: C10_11  and  C11_12 
REMARK    6  A    between atoms: C11_12  and  N1_13 
ROOT
HETATM    1  C9  UNL     1      22.057   2.665  51.881  1.00  0.00     0.043 C 
ENDROOT
BRANCH   1   2
HETATM    2  C8  UNL     1      22.748   1.501  52.537  1.00  0.00    -0.024 A 
HETATM    3  C7  UNL     1      22.051   0.620  53.305  1.00  0.00     0.077 A 
HETATM    4  C5  UNL     1      22.604  -0.468  53.964  1.00  0.00    -0.028 A 
HETATM    5  C4  UNL     1      23.986  -0.672  53.827  1.00  0.00     0.021 A 
HETATM    6  C6  UNL     1      21.865  -1.442  54.801  1.00  0.00     0.051 C 
HETATM    7  C3  UNL     1      24.702   0.211  53.055  1.00  0.00    -0.036 A 
HETATM    8  C19 UNL     1      24.125   1.287  52.407  1.00  0.00     0.021 A 
BRANCH   3   9
HETATM    9  O1  UNL     1      20.693   0.758  53.485  1.00  0.00    -0.360 OA
HETATM   10  H8  UNL     1      20.207   1.604  53.259  1.00  0.00     0.217 HD
ENDBRANCH   3   9
BRANCH   7  11
HETATM   11  C2  UNL     1      26.136   0.134  52.838  1.00  0.00     0.001 C 
HETATM   12  C1  UNL     1      26.771   0.819  51.923  1.00  0.00     0.012 C 
ENDBRANCH   7  11
ENDBRANCH   1   2
BRANCH   1  13
HETATM   13  C10 UNL     1      22.816   3.924  52.081  1.00  0.00     0.035 C 
BRANCH  13  14
HETATM   14  C11 UNL     1      22.744   4.846  50.930  1.00  0.00     0.275 C 
BRANCH  14  15
HETATM   15  N1  UNL     1      23.725   4.663  49.875  1.00  0.00     0.119 NA
HETATM   16  C12 UNL     1      25.024   4.433  50.480  1.00  0.00     0.302 C 
HETATM   17  C13 UNL     1      26.088   3.798  49.771  1.00  0.00     0.003 C 
HETATM   18  C14 UNL     1      27.150   4.155  49.028  1.00  0.00    -0.003 C 
HETATM   19  C15 UNL     1      27.763   5.396  48.507  1.00  0.00    -0.003 C 
HETATM   20  C16 UNL     1      27.506   6.724  48.426  1.00  0.00     0.003 C 
HETATM   21  C17 UNL     1      26.179   7.307  48.956  1.00  0.00     0.299 C 
HETATM   22  N2  UNL     1      25.385   6.155  49.141  1.00  0.00     0.115 N 
HETATM   23  C18 UNL     1      24.004   6.171  49.427  1.00  0.00     0.540 C 
HETATM   24  H23 UNL     1      25.476   5.578  48.211  1.00  0.00     0.318 HD
ENDBRANCH  14  15
ENDBRANCH  13  14
ENDBRANCH   1  13
TORSDOF 6
ENDMDL
MODEL 7
REMARK VINA RESULT:      -7.4      3.867      6.240
REMARK  6 active torsions:
REMARK  status: ('A' for Active; 'I' for Inactive)
REMARK    1  A    between atoms: C2_2  and  C3_3 
REMARK    2  A    between atoms: C7_7  and  O1_8 
REMARK    3  A    between atoms: C8_9  and  C9_10 
REMARK    4  A    between atoms: C9_10  and  C10_11 
REMARK    5  A    between atoms: C10_11  and  C11_12 
REMARK    6  A    between atoms: C11_12  and  N1_13 
ROOT
HETATM    1  C9  UNL     1      23.469   3.278  51.938  1.00  0.00     0.043 C 
ENDROOT
BRANCH   1   2
HETATM    2  C8  UNL     1      23.835   2.002  52.645  1.00  0.00    -0.024 A 
HETATM    3  C7  UNL     1      25.096   1.807  53.121  1.00  0.00     0.077 A 
HETATM    4  C5  UNL     1      25.531   0.659  53.766  1.00  0.00    -0.028 A 
HETATM    5  C4  UNL     1      24.599  -0.377  53.940  1.00  0.00     0.021 A 
HETATM    6  C6  UNL     1      26.895   0.426  54.296  1.00  0.00     0.051 C 
HETATM    7  C3  UNL     1      23.324  -0.192  53.464  1.00  0.00    -0.036 A 
HETATM    8  C19 UNL     1      22.915   0.962  52.825  1.00  0.00     0.021 A 
BRANCH   3   9
HETATM    9  O1  UNL     1      26.062   2.779  52.985  1.00  0.00    -0.360 OA
HETATM   10  H8  UNL     1      26.919   2.757  53.501  1.00  0.00     0.217 HD
ENDBRANCH   3   9
BRANCH   7  11
HETATM   11  C2  UNL     1      22.264  -1.182  53.557  1.00  0.00     0.001 C 
HETATM   12  C1  UNL     1      21.484  -1.316  54.598  1.00  0.00     0.012 C 
ENDBRANCH   7  11
ENDBRANCH   1   2
BRANCH   1  13
HETATM   13  C10 UNL     1      23.386   3.074  50.470  1.00  0.00     0.035 C 
BRANCH  13  14
HETATM   14  C11 UNL     1      24.652   3.348  49.763  1.00  0.00     0.275 C 
BRANCH  14  15
HETATM   15  N1  UNL     1      25.459   4.450  50.257  1.00  0.00     0.119 NA
HETATM   16  C12 UNL     1      25.026   5.673  49.609  1.00  0.00     0.302 C 
HETATM   17  C13 UNL     1      25.292   6.961  50.166  1.00  0.00     0.003 C 
HETATM   18  C14 UNL     1      26.221   7.925  50.058  1.00  0.00    -0.003 C 
HETATM   19  C15 UNL     1      27.494   8.155  49.340  1.00  0.00    -0.003 C 
HETATM   20  C16 UNL     1      28.376   7.489  48.555  1.00  0.00     0.003 C 
HETATM   21  C17 UNL     1      28.176   5.993  48.235  1.00  0.00     0.299 C 
HETATM   22  N2  UNL     1      27.191   5.603  49.167  1.00  0.00     0.115 N 
HETATM   23  C18 UNL     1      26.804   4.270  49.414  1.00  0.00     0.540 C 
HETATM   24  H23 UNL     1      27.533   5.984  50.139  1.00  0.00     0.318 HD
ENDBRANCH  14  15
ENDBRANCH  13  14
ENDBRANCH   1  13
TORSDOF 6
ENDMDL
MODEL 8
REMARK VINA RESULT:      -7.3      3.034      6.456
REMARK  6 active torsions:
REMARK  status: ('A' for Active; 'I' for Inactive)
REMARK    1  A    between atoms: C2_2  and  C3_3 
REMARK    2  A    between atoms: C7_7  and  O1_8 
REMARK    3  A    between atoms: C8_9  and  C9_10 
REMARK    4  A    between atoms: C9_10  and  C10_11 
REMARK    5  A    between atoms: C10_11  and  C11_12 
REMARK    6  A    between atoms: C11_12  and  N1_13 
ROOT
HETATM    1  C9  UNL     1      23.691   1.090  53.287  1.00  0.00     0.043 C 
ENDROOT
BRANCH   1   2
HETATM    2  C8  UNL     1      25.151   0.734  53.240  1.00  0.00    -0.024 A 
HETATM    3  C7  UNL     1      26.105   1.675  53.481  1.00  0.00     0.077 A 
HETATM    4  C5  UNL     1      27.472   1.447  53.441  1.00  0.00    -0.028 A 
HETATM    5  C4  UNL     1      27.901   0.147  53.127  1.00  0.00     0.021 A 
HETATM    6  C6  UNL     1      28.528   2.453  53.704  1.00  0.00     0.051 C 
HETATM    7  C3  UNL     1      26.948  -0.811  52.881  1.00  0.00    -0.036 A 
HETATM    8  C19 UNL     1      25.591  -0.557  52.929  1.00  0.00     0.021 A 
BRANCH   3   9
HETATM    9  O1  UNL     1      25.758   2.971  53.793  1.00  0.00    -0.360 OA
HETATM   10  H8  UNL     1      26.169   3.464  54.562  1.00  0.00     0.217 HD
ENDBRANCH   3   9
BRANCH   7  11
HETATM   11  C2  UNL     1      27.245  -2.189  52.529  1.00  0.00     0.001 C 
HETATM   12  C1  UNL     1      28.335  -2.814  52.892  1.00  0.00     0.012 C 
ENDBRANCH   7  11
ENDBRANCH   1   2
BRANCH   1  13
HETATM   13  C10 UNL     1      23.368   2.167  52.319  1.00  0.00     0.035 C 
BRANCH  13  14
HETATM   14  C11 UNL     1      23.548   1.767  50.909  1.00  0.00     0.275 C 
BRANCH  14  15
HETATM   15  N1  UNL     1      24.003   2.791  49.985  1.00  0.00     0.119 NA
HETATM   16  C12 UNL     1      25.373   3.141  50.314  1.00  0.00     0.302 C 
HETATM   17  C13 UNL     1      26.242   3.767  49.370  1.00  0.00     0.003 C 
HETATM   18  C14 UNL     1      26.625   5.009  49.031  1.00  0.00    -0.003 C 
HETATM   19  C15 UNL     1      26.317   6.403  49.422  1.00  0.00    -0.003 C 
HETATM   20  C16 UNL     1      25.450   7.093  50.202  1.00  0.00     0.003 C 
HETATM   21  C17 UNL     1      24.329   6.365  50.973  1.00  0.00     0.299 C 
HETATM   22  N2  UNL     1      24.321   5.085  50.378  1.00  0.00     0.115 N 
HETATM   23  C18 UNL     1      23.332   4.104  50.600  1.00  0.00     0.540 C 
HETATM   24  H23 UNL     1      24.309   5.261  49.294  1.00  0.00     0.318 HD
ENDBRANCH  14  15
ENDBRANCH  13  14
ENDBRANCH   1  13
TORSDOF 6
ENDMDL
MODEL 9
REMARK VINA RESULT:      -7.2      4.185      6.589
REMARK  6 active torsions:
REMARK  status: ('A' for Active; 'I' for Inactive)
REMARK    1  A    between atoms: C2_2  and  C3_3 
REMARK    2  A    between atoms: C7_7  and  O1_8 
REMARK    3  A    between atoms: C8_9  and  C9_10 
REMARK    4  A    between atoms: C9_10  and  C10_11 
REMARK    5  A    between atoms: C10_11  and  C11_12 
REMARK    6  A    between atoms: C11_12  and  N1_13 
ROOT
HETATM    1  C9  UNL     1      26.528   3.548  49.784  1.00  0.00     0.043 C 
ENDROOT
BRANCH   1   2
HETATM    2  C8  UNL     1      26.396   4.878  49.095  1.00  0.00    -0.024 A 
HETATM    3  C7  UNL     1      27.500   5.602  48.760  1.00  0.00     0.077 A 
HETATM    4  C5  UNL     1      27.477   6.843  48.143  1.00  0.00    -0.028 A 
HETATM    5  C4  UNL     1      26.220   7.392  47.842  1.00  0.00     0.021 A 
HETATM    6  C6  UNL     1      28.664   7.646  47.764  1.00  0.00     0.051 C 
HETATM    7  C3  UNL     1      25.098   6.672  48.176  1.00  0.00    -0.036 A 
HETATM    8  C19 UNL     1      25.149   5.436  48.790  1.00  0.00     0.021 A 
BRANCH   3   9
HETATM    9  O1  UNL     1      28.765   5.126  49.025  1.00  0.00    -0.360 OA
HETATM   10  H8  UNL     1      29.415   4.900  48.297  1.00  0.00     0.217 HD
ENDBRANCH   3   9
BRANCH   7  11
HETATM   11  C2  UNL     1      23.737   7.122  47.942  1.00  0.00     0.001 C 
HETATM   12  C1  UNL     1      22.808   6.379  47.400  1.00  0.00     0.012 C 
ENDBRANCH   7  11
ENDBRANCH   1   2
BRANCH   1  13
HETATM   13  C10 UNL     1      25.402   3.313  50.721  1.00  0.00     0.035 C 
BRANCH  13  14
HETATM   14  C11 UNL     1      25.679   2.272  51.729  1.00  0.00     0.275 C 
BRANCH  14  15
HETATM   15  N1  UNL     1      24.662   1.253  51.923  1.00  0.00     0.119 NA
HETATM   16  C12 UNL     1      23.715   1.722  52.918  1.00  0.00     0.302 C 
HETATM   17  C13 UNL     1      22.396   1.184  53.021  1.00  0.00     0.003 C 
HETATM   18  C14 UNL     1      21.756   0.227  53.714  1.00  0.00    -0.003 C 
HETATM   19  C15 UNL     1      22.082  -0.816  54.711  1.00  0.00    -0.003 C 
HETATM   20  C16 UNL     1      23.160  -1.377  55.310  1.00  0.00     0.003 C 
HETATM   21  C17 UNL     1      24.591  -0.946  54.925  1.00  0.00     0.299 C 
HETATM   22  N2  UNL     1      24.388  -0.221  53.732  1.00  0.00     0.115 N 
HETATM   23  C18 UNL     1      25.419   0.216  52.874  1.00  0.00     0.540 C 
HETATM   24  H23 UNL     1      23.745  -0.853  53.104  1.00  0.00     0.318 HD
ENDBRANCH  14  15
ENDBRANCH  13  14
ENDBRANCH   1  13
TORSDOF 6
ENDMDL
