MODEL 1
REMARK VINA RESULT:      -8.0      0.000      0.000
REMARK  6 active torsions:
REMARK  status: ('A' for Active; 'I' for Inactive)
REMARK    1  A    between atoms: C2_2  and  C3_4 
REMARK    2  A    between atoms: C4_5  and  C5_6 
REMARK    3  A    between atoms: C6_7  and  C7_8 
REMARK    4  A    between atoms: C7_8  and  O1_9 
REMARK    5  A    between atoms: O1_9  and  C8_10 
REMARK    6  A    between atoms: N1_15  and  C13_16 
ROOT
HETATM    1  C8  UNL     1      27.051  -0.040  53.303  1.00  0.00     0.365 C 
HETATM    2  C9  UNL     1      28.343  -0.779  53.092  1.00  0.00     0.091 C 
HETATM    3  C10 UNL     1      29.330  -0.153  54.045  1.00  0.00    -0.025 C 
HETATM    4  C11 UNL     1      29.082   1.166  54.050  1.00  0.00    -0.001 C 
HETATM    5  C12 UNL     1      28.104   1.997  53.345  1.00  0.00     0.306 C 
HETATM    6  N1  UNL     1      27.138   1.184  52.571  1.00  0.00     0.149 N 
ENDROOT
BRANCH   6   7
HETATM    7  C13 UNL     1      26.015   1.958  52.306  1.00  0.00     0.371 C 
HETATM    8  N2  UNL     1      25.630   2.735  53.474  1.00  0.00    -0.277 N 
HETATM    9  N3  UNL     1      24.262   3.135  53.431  1.00  0.00    -0.186 NA
HETATM   10  H17 UNL     1      26.166   3.048  54.323  1.00  0.00     0.185 HD
HETATM   11  C14 UNL     1      23.768   3.441  52.251  1.00  0.00     0.032 C 
HETATM   12  C15 UNL     1      22.367   3.860  52.134  1.00  0.00     0.068 C 
HETATM   13  C16 UNL     1      24.533   3.405  50.969  1.00  0.00     0.094 C 
HETATM   14  C17 UNL     1      25.932   2.853  51.159  1.00  0.00    -0.025 C 
HETATM   15  C18 UNL     1      26.807   3.317  50.241  1.00  0.00    -0.024 C 
HETATM   16  C19 UNL     1      26.675   4.225  49.092  1.00  0.00     0.036 C 
ENDBRANCH   6   7
BRANCH   1  17
HETATM   17  O1  UNL     1      25.905  -0.750  53.150  1.00  0.00    -0.353 OA
BRANCH  17  18
HETATM   18  C7  UNL     1      25.009  -0.778  54.178  1.00  0.00     0.198 C 
BRANCH  18  19
HETATM   19  C6  UNL     1      23.643  -0.441  53.771  1.00  0.00    -0.001 C 
HETATM   20  C5  UNL     1      22.386  -0.181  53.958  1.00  0.00    -0.002 C 
BRANCH  20  21
HETATM   21  C4  UNL     1      21.359   0.122  53.003  1.00  0.00     0.002 C 
HETATM   22  C3  UNL     1      21.697   0.235  51.763  1.00  0.00     0.036 C 
BRANCH  22  23
HETATM   23  C2  UNL     1      20.538   0.539  50.962  1.00  0.00     0.077 A 
HETATM   24  C1  UNL     1      19.828   1.111  50.017  1.00  0.00     0.250 A 
HETATM   25  F1  UNL     1      19.283   0.101  51.015  1.00  0.00    -0.367 F 
ENDBRANCH  22  23
ENDBRANCH  20  21
ENDBRANCH  18  19
ENDBRANCH  17  18
ENDBRANCH   1  17
TORSDOF 6
ENDMDL
MODEL 2
REMARK VINA RESULT:      -8.0      2.819      6.300
REMARK  6 active torsions:
REMARK  status: ('A' for Active; 'I' for Inactive)
REMARK    1  A    between atoms: C2_2  and  C3_4 
REMARK    2  A    between atoms: C4_5  and  C5_6 
REMARK    3  A    between atoms: C6_7  and  C7_8 
REMARK    4  A    between atoms: C7_8  and  O1_9 
REMARK    5  A    between atoms: O1_9  and  C8_10 
REMARK    6  A    between atoms: N1_15  and  C13_16 
ROOT
HETATM    1  C8  UNL     1      22.864   1.170  52.568  1.00  0.00     0.365 C 
HETATM    2  C9  UNL     1      21.685   0.436  51.995  1.00  0.00     0.091 C 
HETATM    3  C10 UNL     1      21.055  -0.292  53.156  1.00  0.00    -0.025 C 
HETATM    4  C11 UNL     1      22.060  -0.742  53.923  1.00  0.00    -0.001 C 
HETATM    5  C12 UNL     1      23.516  -0.642  53.814  1.00  0.00     0.306 C 
HETATM    6  N1  UNL     1      23.931   0.228  52.689  1.00  0.00     0.149 N 
ENDROOT
BRANCH   6   7
HETATM    7  C13 UNL     1      25.244   0.635  52.900  1.00  0.00     0.371 C 
HETATM    8  N2  UNL     1      25.371   1.348  54.162  1.00  0.00    -0.277 N 
HETATM    9  N3  UNL     1      26.522   2.191  54.193  1.00  0.00    -0.186 NA
HETATM   10  H17 UNL     1      24.784   1.353  55.034  1.00  0.00     0.185 HD
HETATM   11  C14 UNL     1      27.598   1.751  53.578  1.00  0.00     0.032 C 
HETATM   12  C15 UNL     1      28.817   2.569  53.570  1.00  0.00     0.068 C 
HETATM   13  C16 UNL     1      27.701   0.444  52.864  1.00  0.00     0.094 C 
HETATM   14  C17 UNL     1      26.372  -0.284  52.820  1.00  0.00    -0.025 C 
HETATM   15  C18 UNL     1      26.512  -1.624  52.732  1.00  0.00    -0.024 C 
HETATM   16  C19 UNL     1      27.680  -2.512  52.651  1.00  0.00     0.036 C 
ENDBRANCH   6   7
BRANCH   1  17
HETATM   17  O1  UNL     1      23.178   2.364  52.005  1.00  0.00    -0.353 OA
BRANCH  17  18
HETATM   18  C7  UNL     1      23.320   2.434  50.651  1.00  0.00     0.198 C 
BRANCH  18  19
HETATM   19  C6  UNL     1      24.627   2.940  50.225  1.00  0.00    -0.001 C 
HETATM   20  C5  UNL     1      25.921   3.020  50.236  1.00  0.00    -0.002 C 
BRANCH  20  21
HETATM   21  C4  UNL     1      26.796   3.849  49.458  1.00  0.00     0.002 C 
HETATM   22  C3  UNL     1      26.469   5.086  49.288  1.00  0.00     0.036 C 
BRANCH  22  23
HETATM   23  C2  UNL     1      27.463   5.753  48.485  1.00  0.00     0.077 A 
HETATM   24  C1  UNL     1      28.020   6.721  47.795  1.00  0.00     0.250 A 
HETATM   25  F1  UNL     1      28.637   5.348  48.010  1.00  0.00    -0.367 F 
ENDBRANCH  22  23
ENDBRANCH  20  21
ENDBRANCH  18  19
ENDBRANCH  17  18
ENDBRANCH   1  17
TORSDOF 6
ENDMDL
MODEL 3
REMARK VINA RESULT:      -7.8      2.803      5.974
REMARK  6 active torsions:
REMARK  status: ('A' for Active; 'I' for Inactive)
REMARK    1  A    between atoms: C2_2  and  C3_4 
REMARK    2  A    between atoms: C4_5  and  C5_6 
REMARK    3  A    between atoms: C6_7  and  C7_8 
REMARK    4  A    between atoms: C7_8  and  O1_9 
REMARK    5  A    between atoms: O1_9  and  C8_10 
REMARK    6  A    between atoms: N1_15  and  C13_16 
ROOT
HETATM    1  C8  UNL     1      23.089   0.471  53.283  1.00  0.00     0.365 C 
HETATM    2  C9  UNL     1      21.938  -0.438  52.957  1.00  0.00     0.091 C 
HETATM    3  C10 UNL     1      21.498  -1.026  54.275  1.00  0.00    -0.025 C 
HETATM    4  C11 UNL     1      22.613  -1.266  54.984  1.00  0.00    -0.001 C 
HETATM    5  C12 UNL     1      24.035  -1.064  54.700  1.00  0.00     0.306 C 
HETATM    6  N1  UNL     1      24.251  -0.348  53.422  1.00  0.00     0.149 N 
ENDROOT
BRANCH   6   7
HETATM    7  C13 UNL     1      25.531   0.194  53.425  1.00  0.00     0.371 C 
HETATM    8  N2  UNL     1      25.791   0.908  54.665  1.00  0.00    -0.277 N 
HETATM    9  N3  UNL     1      26.838   1.867  54.527  1.00  0.00    -0.186 NA
HETATM   10  H17 UNL     1      25.359   0.845  55.621  1.00  0.00     0.185 HD
HETATM   11  C14 UNL     1      27.838   1.547  53.734  1.00  0.00     0.032 C 
HETATM   12  C15 UNL     1      28.947   2.489  53.546  1.00  0.00     0.068 C 
HETATM   13  C16 UNL     1      27.955   0.263  52.981  1.00  0.00     0.094 C 
HETATM   14  C17 UNL     1      26.719  -0.601  53.138  1.00  0.00    -0.025 C 
HETATM   15  C18 UNL     1      26.980  -1.918  52.997  1.00  0.00    -0.024 C 
HETATM   16  C19 UNL     1      28.204  -2.677  52.705  1.00  0.00     0.036 C 
ENDBRANCH   6   7
BRANCH   1  17
HETATM   17  O1  UNL     1      23.228   1.585  52.520  1.00  0.00    -0.353 OA
BRANCH  17  18
HETATM   18  C7  UNL     1      22.965   1.503  51.185  1.00  0.00     0.198 C 
BRANCH  18  19
HETATM   19  C6  UNL     1      23.609   2.556  50.397  1.00  0.00    -0.001 C 
HETATM   20  C5  UNL     1      23.645   3.578  49.599  1.00  0.00    -0.002 C 
BRANCH  20  21
HETATM   21  C4  UNL     1      24.772   4.303  49.086  1.00  0.00     0.002 C 
HETATM   22  C3  UNL     1      25.941   4.017  49.551  1.00  0.00     0.036 C 
BRANCH  22  23
HETATM   23  C2  UNL     1      26.939   4.843  48.918  1.00  0.00     0.077 A 
HETATM   24  C1  UNL     1      27.537   5.944  48.528  1.00  0.00     0.250 A 
HETATM   25  F1  UNL     1      28.036   4.539  48.230  1.00  0.00    -0.367 F 
ENDBRANCH  22  23
ENDBRANCH  20  21
ENDBRANCH  18  19
ENDBRANCH  17  18
ENDBRANCH   1  17
TORSDOF 6
ENDMDL
MODEL 4
REMARK VINA RESULT:      -7.3      3.465      7.230
REMARK  6 active torsions:
REMARK  status: ('A' for Active; 'I' for Inactive)
REMARK    1  A    between atoms: C2_2  and  C3_4 
REMARK    2  A    between atoms: C4_5  and  C5_6 
REMARK    3  A    between atoms: C6_7  and  C7_8 
REMARK    4  A    between atoms: C7_8  and  O1_9 
REMARK    5  A    between atoms: O1_9  and  C8_10 
REMARK    6  A    between atoms: N1_15  and  C13_16 
ROOT
HETATM    1  C8  UNL     1      24.370   3.660  50.447  1.00  0.00     0.365 C 
HETATM    2  C9  UNL     1      23.215   4.273  49.708  1.00  0.00     0.091 C 
HETATM    3  C10 UNL     1      23.025   5.641  50.313  1.00  0.00    -0.025 C 
HETATM    4  C11 UNL     1      23.234   5.515  51.633  1.00  0.00    -0.001 C 
HETATM    5  C12 UNL     1      23.581   4.372  52.479  1.00  0.00     0.306 C 
HETATM    6  N1  UNL     1      23.863   3.155  51.683  1.00  0.00     0.149 N 
ENDROOT
BRANCH   6   7
HETATM    7  C13 UNL     1      24.594   2.269  52.466  1.00  0.00     0.371 C 
HETATM    8  N2  UNL     1      25.222   2.957  53.583  1.00  0.00    -0.277 N 
HETATM    9  N3  UNL     1      26.341   2.239  54.100  1.00  0.00    -0.186 NA
HETATM   10  H17 UNL     1      25.005   3.865  54.067  1.00  0.00     0.185 HD
HETATM   11  C14 UNL     1      26.255   0.927  54.106  1.00  0.00     0.032 C 
HETATM   12  C15 UNL     1      27.371   0.126  54.623  1.00  0.00     0.068 C 
HETATM   13  C16 UNL     1      25.080   0.145  53.619  1.00  0.00     0.094 C 
HETATM   14  C17 UNL     1      24.023   1.037  52.997  1.00  0.00    -0.025 C 
HETATM   15  C18 UNL     1      22.782   0.514  53.079  1.00  0.00    -0.024 C 
HETATM   16  C19 UNL     1      22.252  -0.743  53.627  1.00  0.00     0.036 C 
ENDBRANCH   6   7
BRANCH   1  17
HETATM   17  O1  UNL     1      25.176   2.825  49.744  1.00  0.00    -0.353 OA
BRANCH  17  18
HETATM   18  C7  UNL     1      26.514   3.085  49.702  1.00  0.00     0.198 C 
BRANCH  18  19
HETATM   19  C6  UNL     1      26.830   4.461  49.314  1.00  0.00    -0.001 C 
HETATM   20  C5  UNL     1      27.124   5.416  48.488  1.00  0.00    -0.002 C 
BRANCH  20  21
HETATM   21  C4  UNL     1      27.364   6.808  48.741  1.00  0.00     0.002 C 
HETATM   22  C3  UNL     1      26.559   7.428  49.536  1.00  0.00     0.036 C 
BRANCH  22  23
HETATM   23  C2  UNL     1      26.959   8.807  49.665  1.00  0.00     0.077 A 
HETATM   24  C1  UNL     1      27.200  10.043  49.296  1.00  0.00     0.250 A 
HETATM   25  F1  UNL     1      27.408   9.507  50.703  1.00  0.00    -0.367 F 
ENDBRANCH  22  23
ENDBRANCH  20  21
ENDBRANCH  18  19
ENDBRANCH  17  18
ENDBRANCH   1  17
TORSDOF 6
ENDMDL
MODEL 5
REMARK VINA RESULT:      -7.2      3.650      7.556
REMARK  6 active torsions:
REMARK  status: ('A' for Active; 'I' for Inactive)
REMARK    1  A    between atoms: C2_2  and  C3_4 
REMARK    2  A    between atoms: C4_5  and  C5_6 
REMARK    3  A    between atoms: C6_7  and  C7_8 
REMARK    4  A    between atoms: C7_8  and  O1_9 
REMARK    5  A    between atoms: O1_9  and  C8_10 
REMARK    6  A    between atoms: N1_15  and  C13_16 
ROOT
HETATM    1  C8  UNL     1      24.331   3.585  50.546  1.00  0.00     0.365 C 
HETATM    2  C9  UNL     1      23.147   4.139  49.806  1.00  0.00     0.091 C 
HETATM    3  C10 UNL     1      22.859   5.476  50.442  1.00  0.00    -0.025 C 
HETATM    4  C11 UNL     1      23.059   5.329  51.762  1.00  0.00    -0.001 C 
HETATM    5  C12 UNL     1      23.471   4.190  52.584  1.00  0.00     0.306 C 
HETATM    6  N1  UNL     1      23.843   3.016  51.762  1.00  0.00     0.149 N 
ENDROOT
BRANCH   6   7
HETATM    7  C13 UNL     1      24.622   2.160  52.533  1.00  0.00     0.371 C 
HETATM    8  N2  UNL     1      25.293   2.886  53.600  1.00  0.00    -0.277 N 
HETATM    9  N3  UNL     1      26.445   2.196  54.083  1.00  0.00    -0.186 NA
HETATM   10  H17 UNL     1      25.087   3.804  54.069  1.00  0.00     0.185 HD
HETATM   11  C14 UNL     1      26.376   0.883  54.127  1.00  0.00     0.032 C 
HETATM   12  C15 UNL     1      27.526   0.111  54.612  1.00  0.00     0.068 C 
HETATM   13  C16 UNL     1      25.190   0.074  53.718  1.00  0.00     0.094 C 
HETATM   14  C17 UNL     1      24.094   0.937  53.123  1.00  0.00    -0.025 C 
HETATM   15  C18 UNL     1      22.865   0.401  53.277  1.00  0.00    -0.024 C 
HETATM   16  C19 UNL     1      22.378  -0.847  53.884  1.00  0.00     0.036 C 
ENDBRANCH   6   7
BRANCH   1  17
HETATM   17  O1  UNL     1      25.200   2.823  49.834  1.00  0.00    -0.353 OA
BRANCH  17  18
HETATM   18  C7  UNL     1      26.531   3.117  49.892  1.00  0.00     0.198 C 
BRANCH  18  19
HETATM   19  C6  UNL     1      26.879   4.384  49.245  1.00  0.00    -0.001 C 
HETATM   20  C5  UNL     1      26.668   5.595  48.834  1.00  0.00    -0.002 C 
BRANCH  20  21
HETATM   21  C4  UNL     1      27.539   6.490  48.127  1.00  0.00     0.002 C 
HETATM   22  C3  UNL     1      28.787   6.173  48.032  1.00  0.00     0.036 C 
BRANCH  22  23
HETATM   23  C2  UNL     1      29.497   7.187  47.292  1.00  0.00     0.077 A 
HETATM   24  C1  UNL     1      29.970   7.821  46.245  1.00  0.00     0.250 A 
HETATM   25  F1  UNL     1      30.197   8.247  47.687  1.00  0.00    -0.367 F 
ENDBRANCH  22  23
ENDBRANCH  20  21
ENDBRANCH  18  19
ENDBRANCH  17  18
ENDBRANCH   1  17
TORSDOF 6
ENDMDL
MODEL 6
REMARK VINA RESULT:      -7.0      3.339      6.109
REMARK  6 active torsions:
REMARK  status: ('A' for Active; 'I' for Inactive)
REMARK    1  A    between atoms: C2_2  and  C3_4 
REMARK    2  A    between atoms: C4_5  and  C5_6 
REMARK    3  A    between atoms: C6_7  and  C7_8 
REMARK    4  A    between atoms: C7_8  and  O1_9 
REMARK    5  A    between atoms: O1_9  and  C8_10 
REMARK    6  A    between atoms: N1_15  and  C13_16 
ROOT
HETATM    1  C8  UNL     1      22.491   2.387  51.020  1.00  0.00     0.365 C 
HETATM    2  C9  UNL     1      21.267   1.517  51.056  1.00  0.00     0.091 C 
HETATM    3  C10 UNL     1      21.332   0.670  49.810  1.00  0.00    -0.025 C 
HETATM    4  C11 UNL     1      21.800   1.459  48.829  1.00  0.00    -0.001 C 
HETATM    5  C12 UNL     1      22.212   2.863  48.794  1.00  0.00     0.306 C 
HETATM    6  N1  UNL     1      22.210   3.478  50.141  1.00  0.00     0.149 N 
ENDROOT
BRANCH   6   7
HETATM    7  C13 UNL     1      23.006   4.618  50.113  1.00  0.00     0.371 C 
HETATM    8  N2  UNL     1      22.858   5.385  51.340  1.00  0.00    -0.277 N 
HETATM    9  N3  UNL     1      23.232   6.752  51.171  1.00  0.00    -0.186 NA
HETATM   10  H17 UNL     1      22.535   5.122  52.305  1.00  0.00     0.185 HD
HETATM   11  C14 UNL     1      24.241   6.996  50.363  1.00  0.00     0.032 C 
HETATM   12  C15 UNL     1      24.678   8.380  50.142  1.00  0.00     0.068 C 
HETATM   13  C16 UNL     1      25.016   5.957  49.623  1.00  0.00     0.094 C 
HETATM   14  C17 UNL     1      24.431   4.571  49.813  1.00  0.00    -0.025 C 
HETATM   15  C18 UNL     1      25.351   3.592  49.682  1.00  0.00    -0.024 C 
HETATM   16  C19 UNL     1      26.789   3.594  49.376  1.00  0.00     0.036 C 
ENDBRANCH   6   7
BRANCH   1  17
HETATM   17  O1  UNL     1      23.054   2.707  52.213  1.00  0.00    -0.353 OA
BRANCH  17  18
HETATM   18  C7  UNL     1      23.480   1.702  53.029  1.00  0.00     0.198 C 
BRANCH  18  19
HETATM   19  C6  UNL     1      24.814   1.202  52.692  1.00  0.00    -0.001 C 
HETATM   20  C5  UNL     1      25.756   0.793  51.899  1.00  0.00    -0.002 C 
BRANCH  20  21
HETATM   21  C4  UNL     1      27.085   0.350  52.205  1.00  0.00     0.002 C 
HETATM   22  C3  UNL     1      27.267  -0.319  53.293  1.00  0.00     0.036 C 
BRANCH  22  23
HETATM   23  C2  UNL     1      28.658  -0.675  53.426  1.00  0.00     0.077 A 
HETATM   24  C1  UNL     1      29.702  -1.438  53.650  1.00  0.00     0.250 A 
HETATM   25  F1  UNL     1      29.773   0.038  53.294  1.00  0.00    -0.367 F 
ENDBRANCH  22  23
ENDBRANCH  20  21
ENDBRANCH  18  19
ENDBRANCH  17  18
ENDBRANCH   1  17
TORSDOF 6
ENDMDL
MODEL 7
REMARK VINA RESULT:      -7.0      2.226      4.016
REMARK  6 active torsions:
REMARK  status: ('A' for Active; 'I' for Inactive)
REMARK    1  A    between atoms: C2_2  and  C3_4 
REMARK    2  A    between atoms: C4_5  and  C5_6 
REMARK    3  A    between atoms: C6_7  and  C7_8 
REMARK    4  A    between atoms: C7_8  and  O1_9 
REMARK    5  A    between atoms: O1_9  and  C8_10 
REMARK    6  A    between atoms: N1_15  and  C13_16 
ROOT
HETATM    1  C8  UNL     1      26.962   1.217  52.470  1.00  0.00     0.365 C 
HETATM    2  C9  UNL     1      28.148   1.771  53.207  1.00  0.00     0.091 C 
HETATM    3  C10 UNL     1      28.603   0.671  54.133  1.00  0.00    -0.025 C 
HETATM    4  C11 UNL     1      27.495   0.078  54.605  1.00  0.00    -0.001 C 
HETATM    5  C12 UNL     1      26.067   0.314  54.379  1.00  0.00     0.306 C 
HETATM    6  N1  UNL     1      25.831   1.337  53.334  1.00  0.00     0.149 N 
ENDROOT
BRANCH   6   7
HETATM    7  C13 UNL     1      24.531   1.199  52.860  1.00  0.00     0.371 C 
HETATM    8  N2  UNL     1      23.771   0.276  53.689  1.00  0.00    -0.277 N 
HETATM    9  N3  UNL     1      22.651  -0.274  52.997  1.00  0.00    -0.186 NA
HETATM   10  H17 UNL     1      23.893  -0.050  54.681  1.00  0.00     0.185 HD
HETATM   11  C14 UNL     1      22.023   0.519  52.156  1.00  0.00     0.032 C 
HETATM   12  C15 UNL     1      20.863   0.017  51.410  1.00  0.00     0.068 C 
HETATM   13  C16 UNL     1      22.394   1.939  51.880  1.00  0.00     0.094 C 
HETATM   14  C17 UNL     1      23.666   2.342  52.600  1.00  0.00    -0.025 C 
HETATM   15  C18 UNL     1      23.723   3.666  52.860  1.00  0.00    -0.024 C 
HETATM   16  C19 UNL     1      22.819   4.789  52.574  1.00  0.00     0.036 C 
ENDBRANCH   6   7
BRANCH   1  17
HETATM   17  O1  UNL     1      26.785   1.630  51.189  1.00  0.00    -0.353 OA
BRANCH  17  18
HETATM   18  C7  UNL     1      27.012   2.940  50.885  1.00  0.00     0.198 C 
BRANCH  18  19
HETATM   19  C6  UNL     1      25.901   3.575  50.173  1.00  0.00    -0.001 C 
HETATM   20  C5  UNL     1      25.356   4.376  49.311  1.00  0.00    -0.002 C 
BRANCH  20  21
HETATM   21  C4  UNL     1      23.971   4.608  49.020  1.00  0.00     0.002 C 
HETATM   22  C3  UNL     1      23.220   3.584  48.786  1.00  0.00     0.036 C 
BRANCH  22  23
HETATM   23  C2  UNL     1      21.871   4.014  48.517  1.00  0.00     0.077 A 
HETATM   24  C1  UNL     1      20.857   4.476  47.822  1.00  0.00     0.250 A 
HETATM   25  F1  UNL     1      20.792   4.088  49.291  1.00  0.00    -0.367 F 
ENDBRANCH  22  23
ENDBRANCH  20  21
ENDBRANCH  18  19
ENDBRANCH  17  18
ENDBRANCH   1  17
TORSDOF 6
ENDMDL
MODEL 8
REMARK VINA RESULT:      -7.0      2.118      3.012
REMARK  6 active torsions:
REMARK  status: ('A' for Active; 'I' for Inactive)
REMARK    1  A    between atoms: C2_2  and  C3_4 
REMARK    2  A    between atoms: C4_5  and  C5_6 
REMARK    3  A    between atoms: C6_7  and  C7_8 
REMARK    4  A    between atoms: C7_8  and  O1_9 
REMARK    5  A    between atoms: O1_9  and  C8_10 
REMARK    6  A    between atoms: N1_15  and  C13_16 
ROOT
HETATM    1  C8  UNL     1      25.125   0.825  53.011  1.00  0.00     0.365 C 
HETATM    2  C9  UNL     1      25.983  -0.388  52.783  1.00  0.00     0.091 C 
HETATM    3  C10 UNL     1      27.407   0.091  52.910  1.00  0.00    -0.025 C 
HETATM    4  C11 UNL     1      27.461   1.304  52.339  1.00  0.00    -0.001 C 
HETATM    5  C12 UNL     1      26.454   2.141  51.683  1.00  0.00     0.306 C 
HETATM    6  N1  UNL     1      25.096   1.559  51.786  1.00  0.00     0.149 N 
ENDROOT
BRANCH   6   7
HETATM    7  C13 UNL     1      24.162   2.564  51.559  1.00  0.00     0.371 C 
HETATM    8  N2  UNL     1      24.777   3.709  50.906  1.00  0.00    -0.277 N 
HETATM    9  N3  UNL     1      24.030   4.908  51.100  1.00  0.00    -0.186 NA
HETATM   10  H17 UNL     1      25.652   3.809  50.331  1.00  0.00     0.185 HD
HETATM   11  C14 UNL     1      22.719   4.795  51.123  1.00  0.00     0.032 C 
HETATM   12  C15 UNL     1      21.889   5.989  51.320  1.00  0.00     0.068 C 
HETATM   13  C16 UNL     1      21.968   3.515  50.958  1.00  0.00     0.094 C 
HETATM   14  C17 UNL     1      22.897   2.319  50.877  1.00  0.00    -0.025 C 
HETATM   15  C18 UNL     1      22.368   1.292  50.181  1.00  0.00    -0.024 C 
HETATM   16  C19 UNL     1      21.077   1.089  49.507  1.00  0.00     0.036 C 
ENDBRANCH   6   7
BRANCH   1  17
HETATM   17  O1  UNL     1      23.929   0.627  53.621  1.00  0.00    -0.353 OA
BRANCH  17  18
HETATM   18  C7  UNL     1      23.337  -0.597  53.522  1.00  0.00     0.198 C 
BRANCH  18  19
HETATM   19  C6  UNL     1      21.883  -0.531  53.355  1.00  0.00    -0.001 C 
HETATM   20  C5  UNL     1      20.731   0.058  53.272  1.00  0.00    -0.002 C 
BRANCH  20  21
HETATM   21  C4  UNL     1      19.425  -0.502  53.073  1.00  0.00     0.002 C 
HETATM   22  C3  UNL     1      18.706  -0.036  52.108  1.00  0.00     0.036 C 
BRANCH  22  23
HETATM   23  C2  UNL     1      17.437  -0.718  52.065  1.00  0.00     0.077 A 
HETATM   24  C1  UNL     1      16.386  -1.362  52.518  1.00  0.00     0.250 A 
HETATM   25  F1  UNL     1      16.620  -1.011  51.057  1.00  0.00    -0.367 F 
ENDBRANCH  22  23
ENDBRANCH  20  21
ENDBRANCH  18  19
ENDBRANCH  17  18
ENDBRANCH   1  17
TORSDOF 6
ENDMDL
MODEL 9
REMARK VINA RESULT:      -7.0      3.172      5.671
REMARK  6 active torsions:
REMARK  status: ('A' for Active; 'I' for Inactive)
REMARK    1  A    between atoms: C2_2  and  C3_4 
REMARK    2  A    between atoms: C4_5  and  C5_6 
REMARK    3  A    between atoms: C6_7  and  C7_8 
REMARK    4  A    between atoms: C7_8  and  O1_9 
REMARK    5  A    between atoms: O1_9  and  C8_10 
REMARK    6  A    between atoms: N1_15  and  C13_16 
ROOT
HETATM    1  C8  UNL     1      24.184   1.280  52.733  1.00  0.00     0.365 C 
HETATM    2  C9  UNL     1      24.119   0.276  53.849  1.00  0.00     0.091 C 
HETATM    3  C10 UNL     1      23.214  -0.824  53.354  1.00  0.00    -0.025 C 
HETATM    4  C11 UNL     1      22.223  -0.233  52.668  1.00  0.00    -0.001 C 
HETATM    5  C12 UNL     1      21.923   1.167  52.362  1.00  0.00     0.306 C 
HETATM    6  N1  UNL     1      23.001   2.078  52.811  1.00  0.00     0.149 N 
ENDROOT
BRANCH   6   7
HETATM    7  C13 UNL     1      22.885   3.281  52.123  1.00  0.00     0.371 C 
HETATM    8  N2  UNL     1      23.921   4.216  52.532  1.00  0.00    -0.277 N 
HETATM    9  N3  UNL     1      23.566   5.570  52.256  1.00  0.00    -0.186 NA
HETATM   10  H17 UNL     1      24.861   4.079  52.981  1.00  0.00     0.185 HD
HETATM   11  C14 UNL     1      22.880   5.793  51.156  1.00  0.00     0.032 C 
HETATM   12  C15 UNL     1      22.481   7.163  50.812  1.00  0.00     0.068 C 
HETATM   13  C16 UNL     1      22.456   4.742  50.184  1.00  0.00     0.094 C 
HETATM   14  C17 UNL     1      22.805   3.348  50.670  1.00  0.00    -0.025 C 
HETATM   15  C18 UNL     1      22.984   2.472  49.659  1.00  0.00    -0.024 C 
HETATM   16  C19 UNL     1      22.891   2.587  48.196  1.00  0.00     0.036 C 
ENDBRANCH   6   7
BRANCH   1  17
HETATM   17  O1  UNL     1      25.352   1.953  52.578  1.00  0.00    -0.353 OA
BRANCH  17  18
HETATM   18  C7  UNL     1      26.197   1.579  51.576  1.00  0.00     0.198 C 
BRANCH  18  19
HETATM   19  C6  UNL     1      26.448   2.639  50.597  1.00  0.00    -0.001 C 
HETATM   20  C5  UNL     1      26.724   3.122  49.425  1.00  0.00    -0.002 C 
BRANCH  20  21
HETATM   21  C4  UNL     1      26.867   4.486  49.005  1.00  0.00     0.002 C 
HETATM   22  C3  UNL     1      25.975   5.337  49.387  1.00  0.00     0.036 C 
BRANCH  22  23
HETATM   23  C2  UNL     1      26.287   6.645  48.870  1.00  0.00     0.077 A 
HETATM   24  C1  UNL     1      26.148   7.932  48.652  1.00  0.00     0.250 A 
HETATM   25  F1  UNL     1      27.282   7.081  48.102  1.00  0.00    -0.367 F 
ENDBRANCH  22  23
ENDBRANCH  20  21
ENDBRANCH  18  19
ENDBRANCH  17  18
ENDBRANCH   1  17
TORSDOF 6
ENDMDL
