MODEL 1
REMARK VINA RESULT:      -8.1      0.000      0.000
REMARK  5 active torsions:
REMARK  status: ('A' for Active; 'I' for Inactive)
REMARK    1  A    between atoms: C2_2  and  O1_3 
REMARK    2  A    between atoms: O1_3  and  C3_4 
REMARK       I    between atoms: C3_4  and  N1_6 
REMARK    3  A    between atoms: C7_10  and  N2_11 
REMARK    4  A    between atoms: N2_11  and  C8_12 
REMARK    5  A    between atoms: C14_21  and  O3_22 
ROOT
HETATM    1  C8  UNL     1      22.018   0.998  51.486  1.00  0.00     0.142 A 
HETATM    2  N3  UNL     1      22.360   1.970  50.622  1.00  0.00    -0.223 NA
HETATM    3  C9  UNL     1      21.449   2.747  50.013  1.00  0.00     0.236 A 
HETATM    4  N4  UNL     1      20.139   2.571  50.254  1.00  0.00    -0.234 NA
HETATM    5  C10 UNL     1      19.740   1.613  51.108  1.00  0.00     0.113 A 
HETATM    6  C11 UNL     1      20.678   0.794  51.752  1.00  0.00     0.049 A 
HETATM    7  C12 UNL     1      20.544  -0.180  52.595  1.00  0.00     0.063 C 
HETATM    8  C13 UNL     1      19.400  -0.788  53.194  1.00  0.00     0.150 C 
HETATM    9  F1  UNL     1      19.646  -1.755  54.126  1.00  0.00    -0.203 F 
HETATM   10  C14 UNL     1      18.093  -0.649  53.072  1.00  0.00     0.110 C 
HETATM   11  C15 UNL     1      17.359   0.284  52.179  1.00  0.00     0.091 C 
HETATM   12  S1  UNL     1      18.097   1.497  51.317  1.00  0.00    -0.078 SA
ENDROOT
BRANCH   1  13
HETATM   13  N2  UNL     1      23.108   0.271  52.032  1.00  0.00    -0.344 N 
HETATM   14  H9  UNL     1      22.811  -0.683  51.688  1.00  0.00     0.167 HD
BRANCH  13  15
HETATM   15  C7  UNL     1      24.291   0.482  52.791  1.00  0.00     0.012 C 
HETATM   16  C6  UNL     1      24.357  -0.451  53.742  1.00  0.00     0.026 C 
HETATM   17  C5  UNL     1      25.471  -0.487  54.680  1.00  0.00     0.019 C 
HETATM   18  C4  UNL     1      26.568   0.271  54.790  1.00  0.00     0.096 C 
HETATM   19  N1  UNL     1      26.872   1.360  53.920  1.00  0.00    -0.303 N 
HETATM   20  C3  UNL     1      28.283   1.562  53.705  1.00  0.00     0.366 C 
HETATM   21  C17 UNL     1      25.986   2.263  53.245  1.00  0.00     0.139 C 
HETATM   22  O2  UNL     1      28.651   2.488  52.961  1.00  0.00    -0.238 OA
HETATM   23  C16 UNL     1      25.038   1.635  52.282  1.00  0.00     0.077 C 
BRANCH  20  24
HETATM   24  O1  UNL     1      29.218   0.742  54.314  1.00  0.00    -0.304 OA
BRANCH  24  25
HETATM   25  C2  UNL     1      30.086  -0.128  53.658  1.00  0.00     0.176 C 
HETATM   26  C1  UNL     1      29.379  -1.450  53.405  1.00  0.00     0.034 C 
ENDBRANCH  24  25
ENDBRANCH  20  24
ENDBRANCH  13  15
ENDBRANCH   1  13
BRANCH  10  27
HETATM   27  O3  UNL     1      17.242  -1.445  53.850  1.00  0.00    -0.357 OA
HETATM   28  H12 UNL     1      17.570  -1.639  54.810  1.00  0.00     0.217 HD
ENDBRANCH  10  27
TORSDOF 5
ENDMDL
MODEL 2
REMARK VINA RESULT:      -8.0      3.239      8.526
REMARK  5 active torsions:
REMARK  status: ('A' for Active; 'I' for Inactive)
REMARK    1  A    between atoms: C2_2  and  O1_3 
REMARK    2  A    between atoms: O1_3  and  C3_4 
REMARK       I    between atoms: C3_4  and  N1_6 
REMARK    3  A    between atoms: C7_10  and  N2_11 
REMARK    4  A    between atoms: N2_11  and  C8_12 
REMARK    5  A    between atoms: C14_21  and  O3_22 
ROOT
HETATM    1  C8  UNL     1      24.728   0.899  52.844  1.00  0.00     0.142 A 
HETATM    2  N3  UNL     1      24.491   2.162  53.242  1.00  0.00    -0.223 NA
HETATM    3  C9  UNL     1      25.429   2.918  53.836  1.00  0.00     0.236 A 
HETATM    4  N4  UNL     1      26.659   2.425  54.056  1.00  0.00    -0.234 NA
HETATM    5  C10 UNL     1      26.951   1.168  53.680  1.00  0.00     0.113 A 
HETATM    6  C11 UNL     1      25.983   0.365  53.059  1.00  0.00     0.049 A 
HETATM    7  C12 UNL     1      26.021  -0.852  52.619  1.00  0.00     0.063 C 
HETATM    8  C13 UNL     1      27.053  -1.839  52.592  1.00  0.00     0.150 C 
HETATM    9  F1  UNL     1      26.754  -3.010  51.958  1.00  0.00    -0.203 F 
HETATM   10  C14 UNL     1      28.289  -1.914  53.049  1.00  0.00     0.110 C 
HETATM   11  C15 UNL     1      29.043  -0.880  53.802  1.00  0.00     0.091 C 
HETATM   12  S1  UNL     1      28.502   0.677  54.010  1.00  0.00    -0.078 SA
ENDROOT
BRANCH   1  13
HETATM   13  N2  UNL     1      23.623   0.245  52.240  1.00  0.00    -0.344 N 
HETATM   14  H9  UNL     1      24.182  -0.414  51.632  1.00  0.00     0.167 HD
BRANCH  13  15
HETATM   15  C7  UNL     1      22.202   0.260  52.255  1.00  0.00     0.012 C 
HETATM   16  C6  UNL     1      21.774   0.974  51.214  1.00  0.00     0.026 C 
HETATM   17  C5  UNL     1      20.350   1.162  50.969  1.00  0.00     0.019 C 
HETATM   18  C4  UNL     1      19.268   0.707  51.612  1.00  0.00     0.096 C 
HETATM   19  N1  UNL     1      19.322  -0.128  52.767  1.00  0.00    -0.303 N 
HETATM   20  C3  UNL     1      18.224  -1.056  52.871  1.00  0.00     0.366 C 
HETATM   21  C17 UNL     1      20.298  -0.171  53.817  1.00  0.00     0.139 C 
HETATM   22  O2  UNL     1      18.180  -1.830  53.844  1.00  0.00    -0.238 OA
HETATM   23  C16 UNL     1      21.686  -0.507  53.393  1.00  0.00     0.077 C 
BRANCH  20  24
HETATM   24  O1  UNL     1      17.231  -1.092  51.907  1.00  0.00    -0.304 OA
BRANCH  24  25
HETATM   25  C2  UNL     1      15.875  -1.309  52.143  1.00  0.00     0.176 C 
HETATM   26  C1  UNL     1      15.255  -0.047  52.722  1.00  0.00     0.034 C 
ENDBRANCH  24  25
ENDBRANCH  20  24
ENDBRANCH  13  15
ENDBRANCH   1  13
BRANCH  10  27
HETATM   27  O3  UNL     1      29.033  -3.081  52.828  1.00  0.00    -0.357 OA
HETATM   28  H12 UNL     1      30.055  -2.948  52.751  1.00  0.00     0.217 HD
ENDBRANCH  10  27
TORSDOF 5
ENDMDL
MODEL 3
REMARK VINA RESULT:      -7.9      4.335      6.445
REMARK  5 active torsions:
REMARK  status: ('A' for Active; 'I' for Inactive)
REMARK    1  A    between atoms: C2_2  and  O1_3 
REMARK    2  A    between atoms: O1_3  and  C3_4 
REMARK       I    between atoms: C3_4  and  N1_6 
REMARK    3  A    between atoms: C7_10  and  N2_11 
REMARK    4  A    between atoms: N2_11  and  C8_12 
REMARK    5  A    between atoms: C14_21  and  O3_22 
ROOT
HETATM    1  C8  UNL     1      25.677   1.179  52.575  1.00  0.00     0.142 A 
HETATM    2  N3  UNL     1      26.998   1.283  52.805  1.00  0.00    -0.223 NA
HETATM    3  C9  UNL     1      27.606   0.643  53.818  1.00  0.00     0.236 A 
HETATM    4  N4  UNL     1      26.896  -0.136  54.651  1.00  0.00    -0.234 NA
HETATM    5  C10 UNL     1      25.572  -0.274  54.469  1.00  0.00     0.113 A 
HETATM    6  C11 UNL     1      24.922   0.386  53.417  1.00  0.00     0.049 A 
HETATM    7  C12 UNL     1      23.682   0.413  53.046  1.00  0.00     0.063 C 
HETATM    8  C13 UNL     1      22.506  -0.216  53.558  1.00  0.00     0.150 C 
HETATM    9  F1  UNL     1      21.358  -0.025  52.844  1.00  0.00    -0.203 F 
HETATM   10  C14 UNL     1      22.229  -0.975  54.601  1.00  0.00     0.110 C 
HETATM   11  C15 UNL     1      23.162  -1.446  55.655  1.00  0.00     0.091 C 
HETATM   12  S1  UNL     1      24.811  -1.261  55.567  1.00  0.00    -0.078 SA
ENDROOT
BRANCH   1  13
HETATM   13  N2  UNL     1      25.202   1.926  51.466  1.00  0.00    -0.344 N 
HETATM   14  H9  UNL     1      24.768   1.117  50.943  1.00  0.00     0.167 HD
BRANCH  13  15
HETATM   15  C7  UNL     1      25.173   3.261  50.979  1.00  0.00     0.012 C 
HETATM   16  C6  UNL     1      24.198   3.921  51.605  1.00  0.00     0.026 C 
HETATM   17  C5  UNL     1      23.932   5.322  51.309  1.00  0.00     0.019 C 
HETATM   18  C4  UNL     1      24.530   6.187  50.482  1.00  0.00     0.096 C 
HETATM   19  N1  UNL     1      25.648   5.857  49.660  1.00  0.00    -0.303 N 
HETATM   20  C3  UNL     1      26.555   6.955  49.436  1.00  0.00     0.366 C 
HETATM   21  C17 UNL     1      25.986   4.610  49.037  1.00  0.00     0.139 C 
HETATM   22  O2  UNL     1      27.562   6.768  48.731  1.00  0.00    -0.238 OA
HETATM   23  C16 UNL     1      26.213   3.468  49.966  1.00  0.00     0.077 C 
BRANCH  20  24
HETATM   24  O1  UNL     1      26.315   8.199  49.994  1.00  0.00    -0.304 OA
BRANCH  24  25
HETATM   25  C2  UNL     1      27.271   9.189  50.216  1.00  0.00     0.176 C 
HETATM   26  C1  UNL     1      27.173  10.238  49.119  1.00  0.00     0.034 C 
ENDBRANCH  24  25
ENDBRANCH  20  24
ENDBRANCH  13  15
ENDBRANCH   1  13
BRANCH  10  27
HETATM   27  O3  UNL     1      20.916  -1.426  54.792  1.00  0.00    -0.357 OA
HETATM   28  H12 UNL     1      20.299  -0.786  55.319  1.00  0.00     0.217 HD
ENDBRANCH  10  27
TORSDOF 5
ENDMDL
MODEL 4
REMARK VINA RESULT:      -7.9      4.280      6.722
REMARK  5 active torsions:
REMARK  status: ('A' for Active; 'I' for Inactive)
REMARK    1  A    between atoms: C2_2  and  O1_3 
REMARK    2  A    between atoms: O1_3  and  C3_4 
REMARK       I    between atoms: C3_4  and  N1_6 
REMARK    3  A    between atoms: C7_10  and  N2_11 
REMARK    4  A    between atoms: N2_11  and  C8_12 
REMARK    5  A    between atoms: C14_21  and  O3_22 
ROOT
HETATM    1  C8  UNL     1      25.822   0.910  52.578  1.00  0.00     0.142 A 
HETATM    2  N3  UNL     1      27.122   1.060  52.888  1.00  0.00    -0.223 NA
HETATM    3  C9  UNL     1      27.663   0.531  53.998  1.00  0.00     0.236 A 
HETATM    4  N4  UNL     1      26.904  -0.178  54.850  1.00  0.00    -0.234 NA
HETATM    5  C10 UNL     1      25.598  -0.358  54.590  1.00  0.00     0.113 A 
HETATM    6  C11 UNL     1      25.017   0.187  53.436  1.00  0.00     0.049 A 
HETATM    7  C12 UNL     1      23.807   0.157  52.979  1.00  0.00     0.063 C 
HETATM    8  C13 UNL     1      22.605  -0.442  53.465  1.00  0.00     0.150 C 
HETATM    9  F1  UNL     1      21.509  -0.341  52.657  1.00  0.00    -0.203 F 
HETATM   10  C14 UNL     1      22.262  -1.104  54.554  1.00  0.00     0.110 C 
HETATM   11  C15 UNL     1      23.123  -1.455  55.712  1.00  0.00     0.091 C 
HETATM   12  S1  UNL     1      24.772  -1.249  55.722  1.00  0.00    -0.078 SA
ENDROOT
BRANCH   1  13
HETATM   13  N2  UNL     1      25.418   1.540  51.371  1.00  0.00    -0.344 N 
HETATM   14  H9  UNL     1      25.035   0.676  50.898  1.00  0.00     0.167 HD
BRANCH  13  15
HETATM   15  C7  UNL     1      25.407   2.822  50.758  1.00  0.00     0.012 C 
HETATM   16  C6  UNL     1      26.509   2.949  50.018  1.00  0.00     0.026 C 
HETATM   17  C5  UNL     1      26.769   4.169  49.265  1.00  0.00     0.019 C 
HETATM   18  C4  UNL     1      26.059   5.294  49.118  1.00  0.00     0.096 C 
HETATM   19  N1  UNL     1      24.793   5.521  49.734  1.00  0.00    -0.303 N 
HETATM   20  C3  UNL     1      23.904   6.349  48.959  1.00  0.00     0.366 C 
HETATM   21  C17 UNL     1      24.293   5.048  50.993  1.00  0.00     0.139 C 
HETATM   22  O2  UNL     1      22.775   6.606  49.411  1.00  0.00    -0.238 OA
HETATM   23  C16 UNL     1      24.203   3.568  51.135  1.00  0.00     0.077 C 
BRANCH  20  24
HETATM   24  O1  UNL     1      24.295   6.854  47.731  1.00  0.00    -0.304 OA
BRANCH  24  25
HETATM   25  C2  UNL     1      24.614   8.184  47.462  1.00  0.00     0.176 C 
HETATM   26  C1  UNL     1      25.938   8.245  46.717  1.00  0.00     0.034 C 
ENDBRANCH  24  25
ENDBRANCH  20  24
ENDBRANCH  13  15
ENDBRANCH   1  13
BRANCH  10  27
HETATM   27  O3  UNL     1      20.944  -1.559  54.695  1.00  0.00    -0.357 OA
HETATM   28  H12 UNL     1      20.711  -1.965  55.616  1.00  0.00     0.217 HD
ENDBRANCH  10  27
TORSDOF 5
ENDMDL
MODEL 5
REMARK VINA RESULT:      -7.9      2.675      3.435
REMARK  5 active torsions:
REMARK  status: ('A' for Active; 'I' for Inactive)
REMARK    1  A    between atoms: C2_2  and  O1_3 
REMARK    2  A    between atoms: O1_3  and  C3_4 
REMARK       I    between atoms: C3_4  and  N1_6 
REMARK    3  A    between atoms: C7_10  and  N2_11 
REMARK    4  A    between atoms: N2_11  and  C8_12 
REMARK    5  A    between atoms: C14_21  and  O3_22 
ROOT
HETATM    1  C8  UNL     1      21.669   0.350  51.842  1.00  0.00     0.142 A 
HETATM    2  N3  UNL     1      20.939  -0.040  52.902  1.00  0.00    -0.223 NA
HETATM    3  C9  UNL     1      19.620   0.194  52.993  1.00  0.00     0.236 A 
HETATM    4  N4  UNL     1      18.976   0.841  52.007  1.00  0.00    -0.234 NA
HETATM    5  C10 UNL     1      19.657   1.255  50.925  1.00  0.00     0.113 A 
HETATM    6  C11 UNL     1      21.034   1.018  50.814  1.00  0.00     0.049 A 
HETATM    7  C12 UNL     1      21.893   1.317  49.891  1.00  0.00     0.063 C 
HETATM    8  C13 UNL     1      21.770   1.993  48.640  1.00  0.00     0.150 C 
HETATM    9  F1  UNL     1      22.896   2.051  47.870  1.00  0.00    -0.203 F 
HETATM   10  C14 UNL     1      20.794   2.610  48.000  1.00  0.00     0.110 C 
HETATM   11  C15 UNL     1      19.391   2.797  48.448  1.00  0.00     0.091 C 
HETATM   12  S1  UNL     1      18.747   2.042  49.780  1.00  0.00    -0.078 SA
ENDROOT
BRANCH   1  13
HETATM   13  N2  UNL     1      23.049   0.025  51.914  1.00  0.00    -0.344 N 
HETATM   14  H9  UNL     1      23.069  -0.631  51.086  1.00  0.00     0.167 HD
BRANCH  13  15
HETATM   15  C7  UNL     1      24.202   0.319  52.691  1.00  0.00     0.012 C 
HETATM   16  C6  UNL     1      24.289  -0.574  53.677  1.00  0.00     0.026 C 
HETATM   17  C5  UNL     1      25.381  -0.524  54.640  1.00  0.00     0.019 C 
HETATM   18  C4  UNL     1      26.438   0.291  54.746  1.00  0.00     0.096 C 
HETATM   19  N1  UNL     1      26.711   1.361  53.844  1.00  0.00    -0.303 N 
HETATM   20  C3  UNL     1      28.115   1.623  53.653  1.00  0.00     0.366 C 
HETATM   21  C17 UNL     1      25.799   2.196  53.116  1.00  0.00     0.139 C 
HETATM   22  O2  UNL     1      28.457   2.539  52.884  1.00  0.00    -0.238 OA
HETATM   23  C16 UNL     1      24.906   1.489  52.156  1.00  0.00     0.077 C 
BRANCH  20  24
HETATM   24  O1  UNL     1      29.073   0.872  54.312  1.00  0.00    -0.304 OA
BRANCH  24  25
HETATM   25  C2  UNL     1      29.992   0.016  53.708  1.00  0.00     0.176 C 
HETATM   26  C1  UNL     1      29.331  -1.325  53.437  1.00  0.00     0.034 C 
ENDBRANCH  24  25
ENDBRANCH  20  24
ENDBRANCH  13  15
ENDBRANCH   1  13
BRANCH  10  27
HETATM   27  O3  UNL     1      21.047   3.176  46.743  1.00  0.00    -0.357 OA
HETATM   28  H12 UNL     1      21.513   4.098  46.758  1.00  0.00     0.217 HD
ENDBRANCH  10  27
TORSDOF 5
ENDMDL
MODEL 6
REMARK VINA RESULT:      -7.8      7.988     11.558
REMARK  5 active torsions:
REMARK  status: ('A' for Active; 'I' for Inactive)
REMARK    1  A    between atoms: C2_2  and  O1_3 
REMARK    2  A    between atoms: O1_3  and  C3_4 
REMARK       I    between atoms: C3_4  and  N1_6 
REMARK    3  A    between atoms: C7_10  and  N2_11 
REMARK    4  A    between atoms: N2_11  and  C8_12 
REMARK    5  A    between atoms: C14_21  and  O3_22 
ROOT
HETATM    1  C8  UNL     1      30.111   6.882  48.313  1.00  0.00     0.142 A 
HETATM    2  N3  UNL     1      30.146   8.095  48.891  1.00  0.00    -0.223 NA
HETATM    3  C9  UNL     1      31.292   8.669  49.293  1.00  0.00     0.236 A 
HETATM    4  N4  UNL     1      32.464   8.032  49.127  1.00  0.00    -0.234 NA
HETATM    5  C10 UNL     1      32.487   6.816  48.556  1.00  0.00     0.113 A 
HETATM    6  C11 UNL     1      31.300   6.203  48.131  1.00  0.00     0.049 A 
HETATM    7  C12 UNL     1      31.068   5.059  47.570  1.00  0.00     0.063 C 
HETATM    8  C13 UNL     1      31.924   3.990  47.167  1.00  0.00     0.150 C 
HETATM    9  F1  UNL     1      31.328   2.951  46.512  1.00  0.00    -0.203 F 
HETATM   10  C14 UNL     1      33.215   3.733  47.270  1.00  0.00     0.110 C 
HETATM   11  C15 UNL     1      34.260   4.577  47.903  1.00  0.00     0.091 C 
HETATM   12  S1  UNL     1      33.995   6.136  48.410  1.00  0.00    -0.078 SA
ENDROOT
BRANCH   1  13
HETATM   13  N2  UNL     1      28.815   6.426  47.956  1.00  0.00    -0.344 N 
HETATM   14  H9  UNL     1      28.964   6.421  46.910  1.00  0.00     0.167 HD
BRANCH  13  15
HETATM   15  C7  UNL     1      27.586   6.043  48.559  1.00  0.00     0.012 C 
HETATM   16  C6  UNL     1      27.592   4.720  48.732  1.00  0.00     0.026 C 
HETATM   17  C5  UNL     1      26.455   4.038  49.336  1.00  0.00     0.019 C 
HETATM   18  C4  UNL     1      25.300   4.498  49.830  1.00  0.00     0.096 C 
HETATM   19  N1  UNL     1      24.941   5.878  49.856  1.00  0.00    -0.303 N 
HETATM   20  C3  UNL     1      24.117   6.248  50.979  1.00  0.00     0.366 C 
HETATM   21  C17 UNL     1      25.278   6.927  48.937  1.00  0.00     0.139 C 
HETATM   22  O2  UNL     1      23.750   7.431  51.092  1.00  0.00    -0.238 OA
HETATM   23  C16 UNL     1      26.733   7.212  48.792  1.00  0.00     0.077 C 
BRANCH  20  24
HETATM   24  O1  UNL     1      23.737   5.307  51.921  1.00  0.00    -0.304 OA
BRANCH  24  25
HETATM   25  C2  UNL     1      22.427   4.931  52.213  1.00  0.00     0.176 C 
HETATM   26  C1  UNL     1      21.690   4.626  50.918  1.00  0.00     0.034 C 
ENDBRANCH  24  25
ENDBRANCH  20  24
ENDBRANCH  13  15
ENDBRANCH   1  13
BRANCH  10  27
HETATM   27  O3  UNL     1      33.722   2.541  46.738  1.00  0.00    -0.357 OA
HETATM   28  H12 UNL     1      33.965   1.813  47.430  1.00  0.00     0.217 HD
ENDBRANCH  10  27
TORSDOF 5
ENDMDL
MODEL 7
REMARK VINA RESULT:      -7.8      5.994      8.022
REMARK  5 active torsions:
REMARK  status: ('A' for Active; 'I' for Inactive)
REMARK    1  A    between atoms: C2_2  and  O1_3 
REMARK    2  A    between atoms: O1_3  and  C3_4 
REMARK       I    between atoms: C3_4  and  N1_6 
REMARK    3  A    between atoms: C7_10  and  N2_11 
REMARK    4  A    between atoms: N2_11  and  C8_12 
REMARK    5  A    between atoms: C14_21  and  O3_22 
ROOT
HETATM    1  C8  UNL     1      25.373   3.150  49.914  1.00  0.00     0.142 A 
HETATM    2  N3  UNL     1      24.198   3.157  49.261  1.00  0.00    -0.223 NA
HETATM    3  C9  UNL     1      23.112   2.516  49.725  1.00  0.00     0.236 A 
HETATM    4  N4  UNL     1      23.169   1.833  50.880  1.00  0.00    -0.234 NA
HETATM    5  C10 UNL     1      24.320   1.790  51.573  1.00  0.00     0.113 A 
HETATM    6  C11 UNL     1      25.462   2.454  51.104  1.00  0.00     0.049 A 
HETATM    7  C12 UNL     1      26.662   2.555  51.580  1.00  0.00     0.063 C 
HETATM    8  C13 UNL     1      27.280   2.038  52.759  1.00  0.00     0.150 C 
HETATM    9  F1  UNL     1      28.568   2.429  52.988  1.00  0.00    -0.203 F 
HETATM   10  C14 UNL     1      26.907   1.235  53.738  1.00  0.00     0.110 C 
HETATM   11  C15 UNL     1      25.592   0.568  53.913  1.00  0.00     0.091 C 
HETATM   12  S1  UNL     1      24.260   0.911  52.981  1.00  0.00    -0.078 SA
ENDROOT
BRANCH   1  13
HETATM   13  N2  UNL     1      26.416   3.874  49.279  1.00  0.00    -0.344 N 
HETATM   14  H9  UNL     1      26.931   3.039  48.887  1.00  0.00     0.167 HD
BRANCH  13  15
HETATM   15  C7  UNL     1      26.852   5.211  49.079  1.00  0.00     0.012 C 
HETATM   16  C6  UNL     1      25.895   6.038  49.501  1.00  0.00     0.026 C 
HETATM   17  C5  UNL     1      26.064   7.483  49.422  1.00  0.00     0.019 C 
HETATM   18  C4  UNL     1      27.085   8.239  49.000  1.00  0.00     0.096 C 
HETATM   19  N1  UNL     1      28.313   7.710  48.503  1.00  0.00    -0.303 N 
HETATM   20  C3  UNL     1      29.462   8.534  48.783  1.00  0.00     0.366 C 
HETATM   21  C17 UNL     1      28.557   6.496  47.778  1.00  0.00     0.139 C 
HETATM   22  O2  UNL     1      30.581   8.159  48.391  1.00  0.00    -0.238 OA
HETATM   23  C16 UNL     1      28.193   5.238  48.488  1.00  0.00     0.077 C 
BRANCH  20  24
HETATM   24  O1  UNL     1      29.329   9.724  49.477  1.00  0.00    -0.304 OA
BRANCH  24  25
HETATM   25  C2  UNL     1      29.359  11.000  48.917  1.00  0.00     0.176 C 
HETATM   26  C1  UNL     1      30.739  11.606  49.116  1.00  0.00     0.034 C 
ENDBRANCH  24  25
ENDBRANCH  20  24
ENDBRANCH  13  15
ENDBRANCH   1  13
BRANCH  10  27
HETATM   27  O3  UNL     1      27.811   0.939  54.766  1.00  0.00    -0.357 OA
HETATM   28  H12 UNL     1      28.501   1.678  54.977  1.00  0.00     0.217 HD
ENDBRANCH  10  27
TORSDOF 5
ENDMDL
MODEL 8
REMARK VINA RESULT:      -7.6      4.790      6.812
REMARK  5 active torsions:
REMARK  status: ('A' for Active; 'I' for Inactive)
REMARK    1  A    between atoms: C2_2  and  O1_3 
REMARK    2  A    between atoms: O1_3  and  C3_4 
REMARK       I    between atoms: C3_4  and  N1_6 
REMARK    3  A    between atoms: C7_10  and  N2_11 
REMARK    4  A    between atoms: N2_11  and  C8_12 
REMARK    5  A    between atoms: C14_21  and  O3_22 
ROOT
HETATM    1  C8  UNL     1      23.524   3.082  52.116  1.00  0.00     0.142 A 
HETATM    2  N3  UNL     1      22.256   3.042  51.673  1.00  0.00    -0.223 NA
HETATM    3  C9  UNL     1      21.448   1.992  51.896  1.00  0.00     0.236 A 
HETATM    4  N4  UNL     1      21.893   0.928  52.585  1.00  0.00    -0.234 NA
HETATM    5  C10 UNL     1      23.153   0.915  53.051  1.00  0.00     0.113 A 
HETATM    6  C11 UNL     1      24.010   2.002  52.826  1.00  0.00     0.049 A 
HETATM    7  C12 UNL     1      25.241   2.218  53.163  1.00  0.00     0.063 C 
HETATM    8  C13 UNL     1      26.194   1.442  53.890  1.00  0.00     0.150 C 
HETATM    9  F1  UNL     1      27.398   2.038  54.136  1.00  0.00    -0.203 F 
HETATM   10  C14 UNL     1      26.212   0.231  54.415  1.00  0.00     0.110 C 
HETATM   11  C15 UNL     1      25.126  -0.782  54.398  1.00  0.00     0.091 C 
HETATM   12  S1  UNL     1      23.580  -0.457  53.883  1.00  0.00    -0.078 SA
ENDROOT
BRANCH   1  13
HETATM   13  N2  UNL     1      24.237   4.264  51.785  1.00  0.00    -0.344 N 
HETATM   14  H9  UNL     1      24.079   4.770  52.699  1.00  0.00     0.167 HD
BRANCH  13  15
HETATM   15  C7  UNL     1      24.979   4.828  50.713  1.00  0.00     0.012 C 
HETATM   16  C6  UNL     1      24.387   5.962  50.336  1.00  0.00     0.026 C 
HETATM   17  C5  UNL     1      24.931   6.767  49.249  1.00  0.00     0.019 C 
HETATM   18  C4  UNL     1      26.020   6.614  48.487  1.00  0.00     0.096 C 
HETATM   19  N1  UNL     1      26.935   5.528  48.616  1.00  0.00    -0.303 N 
HETATM   20  C3  UNL     1      28.298   5.869  48.296  1.00  0.00     0.366 C 
HETATM   21  C17 UNL     1      26.691   4.171  49.012  1.00  0.00     0.139 C 
HETATM   22  O2  UNL     1      29.173   4.990  48.378  1.00  0.00    -0.238 OA
HETATM   23  C16 UNL     1      26.136   3.991  50.383  1.00  0.00     0.077 C 
BRANCH  20  24
HETATM   24  O1  UNL     1      28.635   7.153  47.904  1.00  0.00    -0.304 OA
BRANCH  24  25
HETATM   25  C2  UNL     1      29.916   7.701  47.926  1.00  0.00     0.176 C 
HETATM   26  C1  UNL     1      30.522   7.624  46.534  1.00  0.00     0.034 C 
ENDBRANCH  24  25
ENDBRANCH  20  24
ENDBRANCH  13  15
ENDBRANCH   1  13
BRANCH  10  27
HETATM   27  O3  UNL     1      27.362  -0.211  55.082  1.00  0.00    -0.357 OA
HETATM   28  H12 UNL     1      28.189  -0.372  54.484  1.00  0.00     0.217 HD
ENDBRANCH  10  27
TORSDOF 5
ENDMDL
MODEL 9
REMARK VINA RESULT:      -7.6      3.337      8.609
REMARK  5 active torsions:
REMARK  status: ('A' for Active; 'I' for Inactive)
REMARK    1  A    between atoms: C2_2  and  O1_3 
REMARK    2  A    between atoms: O1_3  and  C3_4 
REMARK       I    between atoms: C3_4  and  N1_6 
REMARK    3  A    between atoms: C7_10  and  N2_11 
REMARK    4  A    between atoms: N2_11  and  C8_12 
REMARK    5  A    between atoms: C14_21  and  O3_22 
ROOT
HETATM    1  C8  UNL     1      23.682   0.594  52.684  1.00  0.00     0.142 A 
HETATM    2  N3  UNL     1      22.854  -0.266  53.304  1.00  0.00    -0.223 NA
HETATM    3  C9  UNL     1      23.241  -1.006  54.356  1.00  0.00     0.236 A 
HETATM    4  N4  UNL     1      24.493  -0.907  54.831  1.00  0.00    -0.234 NA
HETATM    5  C10 UNL     1      25.363  -0.064  54.249  1.00  0.00     0.113 A 
HETATM    6  C11 UNL     1      24.976   0.716  53.150  1.00  0.00     0.049 A 
HETATM    7  C12 UNL     1      25.620   1.579  52.431  1.00  0.00     0.063 C 
HETATM    8  C13 UNL     1      26.960   2.070  52.480  1.00  0.00     0.150 C 
HETATM    9  F1  UNL     1      27.273   3.064  51.598  1.00  0.00    -0.203 F 
HETATM   10  C14 UNL     1      28.033   1.795  53.198  1.00  0.00     0.110 C 
HETATM   11  C15 UNL     1      28.167   0.786  54.280  1.00  0.00     0.091 C 
HETATM   12  S1  UNL     1      26.878  -0.037  54.929  1.00  0.00    -0.078 SA
ENDROOT
BRANCH   1  13
HETATM   13  N2  UNL     1      23.110   1.290  51.587  1.00  0.00    -0.344 N 
HETATM   14  H9  UNL     1      24.014   1.494  51.080  1.00  0.00     0.167 HD
BRANCH  13  15
HETATM   15  C7  UNL     1      21.842   1.702  51.096  1.00  0.00     0.012 C 
HETATM   16  C6  UNL     1      21.572   1.013  49.986  1.00  0.00     0.026 C 
HETATM   17  C5  UNL     1      20.328   1.224  49.257  1.00  0.00     0.019 C 
HETATM   18  C4  UNL     1      19.279   2.020  49.497  1.00  0.00     0.096 C 
HETATM   19  N1  UNL     1      19.182   2.890  50.623  1.00  0.00    -0.303 N 
HETATM   20  C3  UNL     1      17.837   3.079  51.104  1.00  0.00     0.366 C 
HETATM   21  C17 UNL     1      20.218   3.590  51.327  1.00  0.00     0.139 C 
HETATM   22  O2  UNL     1      17.647   3.822  52.083  1.00  0.00    -0.238 OA
HETATM   23  C16 UNL     1      21.257   2.731  51.961  1.00  0.00     0.077 C 
BRANCH  20  24
HETATM   24  O1  UNL     1      16.769   2.447  50.490  1.00  0.00    -0.304 OA
BRANCH  24  25
HETATM   25  C2  UNL     1      15.916   1.524  51.091  1.00  0.00     0.176 C 
HETATM   26  C1  UNL     1      16.728   0.341  51.594  1.00  0.00     0.034 C 
ENDBRANCH  24  25
ENDBRANCH  20  24
ENDBRANCH  13  15
ENDBRANCH   1  13
BRANCH  10  27
HETATM   27  O3  UNL     1      29.217   2.505  52.962  1.00  0.00    -0.357 OA
HETATM   28  H12 UNL     1      29.208   3.495  53.257  1.00  0.00     0.217 HD
ENDBRANCH  10  27
TORSDOF 5
ENDMDL
