MODEL 1
REMARK VINA RESULT:      -8.8      0.000      0.000
REMARK  3 active torsions:
REMARK  status: ('A' for Active; 'I' for Inactive)
REMARK    1  A    between atoms: O1_1  and  C1_2 
REMARK    2  A    between atoms: C12_16  and  N4_17 
REMARK    3  A    between atoms: N4_17  and  C13_18 
ROOT
HETATM    1  C1  UNL     1      23.497   4.886  52.157  1.00  0.00     0.069 C 
HETATM    2  C2  UNL     1      24.176   5.606  51.244  1.00  0.00     0.034 C 
HETATM    3  C3  UNL     1      24.237   5.453  49.772  1.00  0.00    -0.001 C 
HETATM    4  C4  UNL     1      23.768   4.688  48.770  1.00  0.00    -0.013 C 
HETATM    5  C5  UNL     1      23.040   3.392  48.946  1.00  0.00     0.098 C 
HETATM    6  C6  UNL     1      21.747   3.895  49.697  1.00  0.00    -0.015 C 
HETATM    7  C7  UNL     1      21.738   3.683  51.072  1.00  0.00     0.001 C 
HETATM    8  C8  UNL     1      22.549   3.769  52.320  1.00  0.00     0.157 C 
HETATM    9  N1  UNL     1      23.241   2.536  52.717  1.00  0.00    -0.388 N 
HETATM   10  C9  UNL     1      23.783   2.051  51.457  1.00  0.00     0.184 A 
HETATM   11  C10 UNL     1      22.566   1.308  51.395  1.00  0.00     0.344 A 
HETATM   12  N2  UNL     1      22.598   1.762  50.090  1.00  0.00     0.353 N 
HETATM   13  C11 UNL     1      23.739   2.539  49.938  1.00  0.00     0.334 A 
HETATM   14  N3  UNL     1      24.898   3.092  50.456  1.00  0.00    -0.226 NA
HETATM   15  C12 UNL     1      25.004   2.710  51.804  1.00  0.00     0.137 A 
HETATM   16  H9  UNL     1      23.235   2.235  53.741  1.00  0.00     0.155 HD
ENDROOT
BRANCH  15  17
HETATM   17  N4  UNL     1      25.843   2.842  52.928  1.00  0.00    -0.342 N 
HETATM   18  H11 UNL     1      25.835   3.579  53.635  1.00  0.00     0.167 HD
BRANCH  17  19
HETATM   19  C13 UNL     1      26.816   1.803  53.076  1.00  0.00     0.035 A 
HETATM   20  C14 UNL     1      28.111   2.078  53.529  1.00  0.00     0.032 A 
HETATM   21  C15 UNL     1      29.093   1.124  53.693  1.00  0.00     0.046 A 
HETATM   22  C16 UNL     1      28.792  -0.186  53.395  1.00  0.00     0.138 A 
HETATM   23  F1  UNL     1      29.708  -1.167  53.535  1.00  0.00    -0.204 F 
HETATM   24  C17 UNL     1      27.532  -0.519  52.944  1.00  0.00     0.074 A 
HETATM   25 CL1  UNL     1      27.122  -2.175  52.558  1.00  0.00    -0.081 Cl
HETATM   26  C18 UNL     1      26.588   0.470  52.797  1.00  0.00     0.056 A 
ENDBRANCH  17  19
ENDBRANCH  15  17
BRANCH   1  27
HETATM   27  O1  UNL     1      23.802   5.382  53.438  1.00  0.00    -0.363 OA
HETATM   28  H1  UNL     1      23.795   6.381  53.544  1.00  0.00     0.217 HD
ENDBRANCH   1  27
TORSDOF 3
ENDMDL
MODEL 2
REMARK VINA RESULT:      -8.4      3.432      6.425
REMARK  3 active torsions:
REMARK  status: ('A' for Active; 'I' for Inactive)
REMARK    1  A    between atoms: O1_1  and  C1_2 
REMARK    2  A    between atoms: C12_16  and  N4_17 
REMARK    3  A    between atoms: N4_17  and  C13_18 
ROOT
HETATM    1  C1  UNL     1      25.211   0.352  53.674  1.00  0.00     0.069 C 
HETATM    2  C2  UNL     1      25.268  -0.828  53.026  1.00  0.00     0.034 C 
HETATM    3  C3  UNL     1      26.440  -1.667  52.689  1.00  0.00    -0.001 C 
HETATM    4  C4  UNL     1      27.780  -1.707  52.807  1.00  0.00    -0.013 C 
HETATM    5  C5  UNL     1      28.637  -0.564  53.253  1.00  0.00     0.098 C 
HETATM    6  C6  UNL     1      28.117  -0.383  54.731  1.00  0.00    -0.015 C 
HETATM    7  C7  UNL     1      27.226   0.670  54.923  1.00  0.00     0.001 C 
HETATM    8  C8  UNL     1      26.028   1.363  54.369  1.00  0.00     0.157 C 
HETATM    9  N1  UNL     1      26.303   2.516  53.502  1.00  0.00    -0.388 N 
HETATM   10  C9  UNL     1      27.392   2.035  52.664  1.00  0.00     0.184 A 
HETATM   11  C10 UNL     1      28.219   2.634  53.663  1.00  0.00     0.344 A 
HETATM   12  N2  UNL     1      28.903   1.441  53.513  1.00  0.00     0.353 N 
HETATM   13  C11 UNL     1      28.235   0.684  52.561  1.00  0.00     0.334 A 
HETATM   14  N3  UNL     1      27.201   0.530  51.652  1.00  0.00    -0.226 NA
HETATM   15  C12 UNL     1      26.404   1.686  51.692  1.00  0.00     0.137 A 
HETATM   16  H9  UNL     1      25.727   3.407  53.612  1.00  0.00     0.155 HD
ENDROOT
BRANCH  15  17
HETATM   17  N4  UNL     1      25.263   2.263  51.101  1.00  0.00    -0.342 N 
HETATM   18  H11 UNL     1      24.290   1.960  51.184  1.00  0.00     0.167 HD
BRANCH  17  19
HETATM   19  C13 UNL     1      25.523   3.413  50.291  1.00  0.00     0.035 A 
HETATM   20  C14 UNL     1      24.517   4.343  50.002  1.00  0.00     0.032 A 
HETATM   21  C15 UNL     1      24.703   5.469  49.229  1.00  0.00     0.046 A 
HETATM   22  C16 UNL     1      25.952   5.706  48.702  1.00  0.00     0.138 A 
HETATM   23  F1  UNL     1      26.199   6.790  47.938  1.00  0.00    -0.204 F 
HETATM   24  C17 UNL     1      26.984   4.825  48.952  1.00  0.00     0.074 A 
HETATM   25 CL1  UNL     1      28.582   5.100  48.296  1.00  0.00    -0.081 Cl
HETATM   26  C18 UNL     1      26.747   3.716  49.729  1.00  0.00     0.056 A 
ENDBRANCH  17  19
ENDBRANCH  15  17
BRANCH   1  27
HETATM   27  O1  UNL     1      23.873   0.786  53.703  1.00  0.00    -0.363 OA
HETATM   28  H1  UNL     1      23.253   0.366  53.033  1.00  0.00     0.217 HD
ENDBRANCH   1  27
TORSDOF 3
ENDMDL
MODEL 3
REMARK VINA RESULT:      -8.3      2.580      3.839
REMARK  3 active torsions:
REMARK  status: ('A' for Active; 'I' for Inactive)
REMARK    1  A    between atoms: O1_1  and  C1_2 
REMARK    2  A    between atoms: C12_16  and  N4_17 
REMARK    3  A    between atoms: N4_17  and  C13_18 
ROOT
HETATM    1  C1  UNL     1      25.348   4.441  49.957  1.00  0.00     0.069 C 
HETATM    2  C2  UNL     1      24.734   3.324  49.521  1.00  0.00     0.034 C 
HETATM    3  C3  UNL     1      23.450   3.169  48.801  1.00  0.00    -0.001 C 
HETATM    4  C4  UNL     1      22.424   3.884  48.306  1.00  0.00    -0.013 C 
HETATM    5  C5  UNL     1      22.178   5.336  48.578  1.00  0.00     0.098 C 
HETATM    6  C6  UNL     1      23.458   5.968  47.909  1.00  0.00    -0.015 C 
HETATM    7  C7  UNL     1      24.470   6.336  48.791  1.00  0.00     0.001 C 
HETATM    8  C8  UNL     1      25.251   5.911  49.988  1.00  0.00     0.157 C 
HETATM    9  N1  UNL     1      24.744   6.386  51.282  1.00  0.00    -0.388 N 
HETATM   10  C9  UNL     1      23.309   6.173  51.162  1.00  0.00     0.184 A 
HETATM   11  C10 UNL     1      23.302   7.525  50.702  1.00  0.00     0.344 A 
HETATM   12  N2  UNL     1      22.457   6.979  49.754  1.00  0.00     0.353 N 
HETATM   13  C11 UNL     1      22.333   5.623  50.025  1.00  0.00     0.334 A 
HETATM   14  N3  UNL     1      22.636   4.516  50.801  1.00  0.00    -0.226 NA
HETATM   15  C12 UNL     1      23.504   4.923  51.827  1.00  0.00     0.137 A 
HETATM   16  H9  UNL     1      25.427   6.761  52.010  1.00  0.00     0.155 HD
ENDROOT
BRANCH  15  17
HETATM   17  N4  UNL     1      24.199   4.429  52.949  1.00  0.00    -0.342 N 
HETATM   18  H11 UNL     1      24.652   4.962  53.693  1.00  0.00     0.167 HD
BRANCH  17  19
HETATM   19  C13 UNL     1      24.263   3.001  53.034  1.00  0.00     0.035 A 
HETATM   20  C14 UNL     1      25.430   2.349  53.449  1.00  0.00     0.032 A 
HETATM   21  C15 UNL     1      25.556   0.980  53.552  1.00  0.00     0.046 A 
HETATM   22  C16 UNL     1      24.474   0.194  53.228  1.00  0.00     0.138 A 
HETATM   23  F1  UNL     1      24.533  -1.152  53.308  1.00  0.00    -0.204 F 
HETATM   24  C17 UNL     1      23.296   0.780  52.812  1.00  0.00     0.074 A 
HETATM   25 CL1  UNL     1      21.904  -0.194  52.395  1.00  0.00    -0.081 Cl
HETATM   26  C18 UNL     1      23.221   2.150  52.726  1.00  0.00     0.056 A 
ENDBRANCH  17  19
ENDBRANCH  15  17
BRANCH   1  27
HETATM   27  O1  UNL     1      26.524   4.073  50.637  1.00  0.00    -0.363 OA
HETATM   28  H1  UNL     1      26.940   4.777  51.221  1.00  0.00     0.217 HD
ENDBRANCH   1  27
TORSDOF 3
ENDMDL
MODEL 4
REMARK VINA RESULT:      -8.1      1.490      2.319
REMARK  3 active torsions:
REMARK  status: ('A' for Active; 'I' for Inactive)
REMARK    1  A    between atoms: O1_1  and  C1_2 
REMARK    2  A    between atoms: C12_16  and  N4_17 
REMARK    3  A    between atoms: N4_17  and  C13_18 
ROOT
HETATM    1  C1  UNL     1      24.228   4.519  49.362  1.00  0.00     0.069 C 
HETATM    2  C2  UNL     1      23.914   3.448  48.609  1.00  0.00     0.034 C 
HETATM    3  C3  UNL     1      22.776   2.509  48.727  1.00  0.00    -0.001 C 
HETATM    4  C4  UNL     1      21.686   2.258  49.476  1.00  0.00    -0.013 C 
HETATM    5  C5  UNL     1      21.378   2.909  50.788  1.00  0.00     0.098 C 
HETATM    6  C6  UNL     1      21.202   4.406  50.326  1.00  0.00    -0.015 C 
HETATM    7  C7  UNL     1      22.292   5.237  50.570  1.00  0.00     0.001 C 
HETATM    8  C8  UNL     1      23.778   5.342  50.499  1.00  0.00     0.157 C 
HETATM    9  N1  UNL     1      24.501   4.996  51.729  1.00  0.00    -0.388 N 
HETATM   10  C9  UNL     1      23.818   3.790  52.175  1.00  0.00     0.184 A 
HETATM   11  C10 UNL     1      23.029   4.704  52.938  1.00  0.00     0.344 A 
HETATM   12  N2  UNL     1      22.011   3.905  52.452  1.00  0.00     0.353 N 
HETATM   13  C11 UNL     1      22.583   2.925  51.652  1.00  0.00     0.334 A 
HETATM   14  N3  UNL     1      23.700   2.327  51.092  1.00  0.00    -0.226 NA
HETATM   15  C12 UNL     1      24.836   3.043  51.503  1.00  0.00     0.137 A 
HETATM   16  H9  UNL     1      25.312   5.608  52.054  1.00  0.00     0.155 HD
ENDROOT
BRANCH  15  17
HETATM   17  N4  UNL     1      26.239   3.055  51.384  1.00  0.00    -0.342 N 
HETATM   18  H11 UNL     1      26.821   3.713  50.862  1.00  0.00     0.167 HD
BRANCH  17  19
HETATM   19  C13 UNL     1      26.910   2.005  52.089  1.00  0.00     0.035 A 
HETATM   20  C14 UNL     1      27.944   2.281  52.992  1.00  0.00     0.032 A 
HETATM   21  C15 UNL     1      28.629   1.317  53.701  1.00  0.00     0.046 A 
HETATM   22  C16 UNL     1      28.284  -0.003  53.518  1.00  0.00     0.138 A 
HETATM   23  F1  UNL     1      28.915  -0.993  54.182  1.00  0.00    -0.204 F 
HETATM   24  C17 UNL     1      27.273  -0.336  52.640  1.00  0.00     0.074 A 
HETATM   25 CL1  UNL     1      26.813  -2.005  52.389  1.00  0.00    -0.081 Cl
HETATM   26  C18 UNL     1      26.620   0.663  51.957  1.00  0.00     0.056 A 
ENDBRANCH  17  19
ENDBRANCH  15  17
BRANCH   1  27
HETATM   27  O1  UNL     1      25.438   5.062  48.892  1.00  0.00    -0.363 OA
HETATM   28  H1  UNL     1      26.276   4.560  49.133  1.00  0.00     0.217 HD
ENDBRANCH   1  27
TORSDOF 3
ENDMDL
MODEL 5
REMARK VINA RESULT:      -8.0      7.293      9.416
REMARK  3 active torsions:
REMARK  status: ('A' for Active; 'I' for Inactive)
REMARK    1  A    between atoms: O1_1  and  C1_2 
REMARK    2  A    between atoms: C12_16  and  N4_17 
REMARK    3  A    between atoms: N4_17  and  C13_18 
ROOT
HETATM    1  C1  UNL     1      31.797   6.068  49.356  1.00  0.00     0.069 C 
HETATM    2  C2  UNL     1      32.036   5.127  48.424  1.00  0.00     0.034 C 
HETATM    3  C3  UNL     1      32.413   5.277  47.000  1.00  0.00    -0.001 C 
HETATM    4  C4  UNL     1      32.661   6.214  46.067  1.00  0.00    -0.013 C 
HETATM    5  C5  UNL     1      32.378   7.676  46.221  1.00  0.00     0.098 C 
HETATM    6  C6  UNL     1      33.360   8.029  47.404  1.00  0.00    -0.015 C 
HETATM    7  C7  UNL     1      32.765   8.141  48.657  1.00  0.00     0.001 C 
HETATM    8  C8  UNL     1      31.786   7.523  49.596  1.00  0.00     0.157 C 
HETATM    9  N1  UNL     1      30.421   8.062  49.540  1.00  0.00    -0.388 N 
HETATM   10  C9  UNL     1      30.178   8.174  48.110  1.00  0.00     0.184 A 
HETATM   11  C10 UNL     1      30.660   9.506  48.287  1.00  0.00     0.344 A 
HETATM   12  N2  UNL     1      31.355   9.185  47.136  1.00  0.00     0.353 N 
HETATM   13  C11 UNL     1      31.023   7.883  46.787  1.00  0.00     0.334 A 
HETATM   14  N3  UNL     1      30.314   6.717  47.021  1.00  0.00    -0.226 NA
HETATM   15  C12 UNL     1      29.545   6.894  48.183  1.00  0.00     0.137 A 
HETATM   16  H9  UNL     1      29.895   8.258  50.447  1.00  0.00     0.155 HD
ENDROOT
BRANCH  15  17
HETATM   17  N4  UNL     1      28.615   6.229  49.006  1.00  0.00    -0.342 N 
HETATM   18  H11 UNL     1      28.804   5.640  49.820  1.00  0.00     0.167 HD
BRANCH  17  19
HETATM   19  C13 UNL     1      27.245   6.417  48.637  1.00  0.00     0.035 A 
HETATM   20  C14 UNL     1      26.849   7.494  47.836  1.00  0.00     0.032 A 
HETATM   21  C15 UNL     1      25.547   7.731  47.447  1.00  0.00     0.046 A 
HETATM   22  C16 UNL     1      24.567   6.859  47.865  1.00  0.00     0.138 A 
HETATM   23  F1  UNL     1      23.275   7.035  47.518  1.00  0.00    -0.204 F 
HETATM   24  C17 UNL     1      24.898   5.779  48.656  1.00  0.00     0.074 A 
HETATM   25 CL1  UNL     1      23.673   4.655  49.202  1.00  0.00    -0.081 Cl
HETATM   26  C18 UNL     1      26.210   5.587  49.018  1.00  0.00     0.056 A 
ENDBRANCH  17  19
ENDBRANCH  15  17
BRANCH   1  27
HETATM   27  O1  UNL     1      31.417   5.433  50.553  1.00  0.00    -0.363 OA
HETATM   28  H1  UNL     1      32.100   4.825  50.972  1.00  0.00     0.217 HD
ENDBRANCH   1  27
TORSDOF 3
ENDMDL
MODEL 6
REMARK VINA RESULT:      -8.0      3.215      5.850
REMARK  3 active torsions:
REMARK  status: ('A' for Active; 'I' for Inactive)
REMARK    1  A    between atoms: O1_1  and  C1_2 
REMARK    2  A    between atoms: C12_16  and  N4_17 
REMARK    3  A    between atoms: N4_17  and  C13_18 
ROOT
HETATM    1  C1  UNL     1      24.960   2.517  53.624  1.00  0.00     0.069 C 
HETATM    2  C2  UNL     1      23.893   1.938  53.042  1.00  0.00     0.034 C 
HETATM    3  C3  UNL     1      23.677   0.525  52.655  1.00  0.00    -0.001 C 
HETATM    4  C4  UNL     1      24.282  -0.677  52.661  1.00  0.00    -0.013 C 
HETATM    5  C5  UNL     1      25.729  -0.908  52.969  1.00  0.00     0.098 C 
HETATM    6  C6  UNL     1      25.776  -0.435  54.472  1.00  0.00    -0.015 C 
HETATM    7  C7  UNL     1      26.299   0.839  54.679  1.00  0.00     0.001 C 
HETATM    8  C8  UNL     1      26.294   2.247  54.190  1.00  0.00     0.157 C 
HETATM    9  N1  UNL     1      27.358   2.595  53.238  1.00  0.00    -0.388 N 
HETATM   10  C9  UNL     1      27.373   1.450  52.341  1.00  0.00     0.184 A 
HETATM   11  C10 UNL     1      28.377   0.960  53.230  1.00  0.00     0.344 A 
HETATM   12  N2  UNL     1      27.638  -0.201  53.092  1.00  0.00     0.353 N 
HETATM   13  C11 UNL     1      26.573   0.071  52.243  1.00  0.00     0.334 A 
HETATM   14  N3  UNL     1      25.870   0.950  51.435  1.00  0.00    -0.226 NA
HETATM   15  C12 UNL     1      26.514   2.197  51.476  1.00  0.00     0.137 A 
HETATM   16  H9  UNL     1      27.880   3.519  53.347  1.00  0.00     0.155 HD
ENDROOT
BRANCH  15  17
HETATM   17  N4  UNL     1      26.432   3.502  50.952  1.00  0.00    -0.342 N 
HETATM   18  H11 UNL     1      27.139   4.239  50.984  1.00  0.00     0.167 HD
BRANCH  17  19
HETATM   19  C13 UNL     1      25.195   3.810  50.300  1.00  0.00     0.035 A 
HETATM   20  C14 UNL     1      24.560   5.043  50.489  1.00  0.00     0.032 A 
HETATM   21  C15 UNL     1      23.370   5.399  49.891  1.00  0.00     0.046 A 
HETATM   22  C16 UNL     1      22.758   4.495  49.053  1.00  0.00     0.138 A 
HETATM   23  F1  UNL     1      21.593   4.784  48.437  1.00  0.00    -0.204 F 
HETATM   24  C17 UNL     1      23.337   3.263  48.828  1.00  0.00     0.074 A 
HETATM   25 CL1  UNL     1      22.583   2.095  47.768  1.00  0.00    -0.081 Cl
HETATM   26  C18 UNL     1      24.525   2.956  49.449  1.00  0.00     0.056 A 
ENDBRANCH  17  19
ENDBRANCH  15  17
BRANCH   1  27
HETATM   27  O1  UNL     1      24.715   3.898  53.741  1.00  0.00    -0.363 OA
HETATM   28  H1  UNL     1      23.841   4.162  54.161  1.00  0.00     0.217 HD
ENDBRANCH   1  27
TORSDOF 3
ENDMDL
MODEL 7
REMARK VINA RESULT:      -7.6      2.133      3.337
REMARK  3 active torsions:
REMARK  status: ('A' for Active; 'I' for Inactive)
REMARK    1  A    between atoms: O1_1  and  C1_2 
REMARK    2  A    between atoms: C12_16  and  N4_17 
REMARK    3  A    between atoms: N4_17  and  C13_18 
ROOT
HETATM    1  C1  UNL     1      22.142   3.276  49.714  1.00  0.00     0.069 C 
HETATM    2  C2  UNL     1      21.236   3.852  50.526  1.00  0.00     0.034 C 
HETATM    3  C3  UNL     1      21.200   5.224  51.083  1.00  0.00    -0.001 C 
HETATM    4  C4  UNL     1      21.890   6.379  51.091  1.00  0.00    -0.013 C 
HETATM    5  C5  UNL     1      23.280   6.553  50.563  1.00  0.00     0.098 C 
HETATM    6  C6  UNL     1      23.040   6.248  49.034  1.00  0.00    -0.015 C 
HETATM    7  C7  UNL     1      23.418   4.975  48.615  1.00  0.00     0.001 C 
HETATM    8  C8  UNL     1      23.382   3.524  48.956  1.00  0.00     0.157 C 
HETATM    9  N1  UNL     1      24.557   3.008  49.670  1.00  0.00    -0.388 N 
HETATM   10  C9  UNL     1      24.811   4.043  50.661  1.00  0.00     0.184 A 
HETATM   11  C10 UNL     1      25.690   4.566  49.664  1.00  0.00     0.344 A 
HETATM   12  N2  UNL     1      25.080   5.747  50.043  1.00  0.00     0.353 N 
HETATM   13  C11 UNL     1      24.152   5.449  51.031  1.00  0.00     0.334 A 
HETATM   14  N3  UNL     1      23.524   4.531  51.857  1.00  0.00    -0.226 NA
HETATM   15  C12 UNL     1      24.050   3.258  51.582  1.00  0.00     0.137 A 
HETATM   16  H9  UNL     1      24.979   2.071  49.383  1.00  0.00     0.155 HD
ENDROOT
BRANCH  15  17
HETATM   17  N4  UNL     1      23.951   1.911  51.981  1.00  0.00    -0.342 N 
HETATM   18  H11 UNL     1      23.210   1.243  51.762  1.00  0.00     0.167 HD
BRANCH  17  19
HETATM   19  C13 UNL     1      25.035   1.443  52.790  1.00  0.00     0.035 A 
HETATM   20  C14 UNL     1      24.930   0.263  53.535  1.00  0.00     0.032 A 
HETATM   21  C15 UNL     1      25.936  -0.241  54.333  1.00  0.00     0.046 A 
HETATM   22  C16 UNL     1      27.123   0.452  54.409  1.00  0.00     0.138 A 
HETATM   23  F1  UNL     1      28.146   0.012  55.171  1.00  0.00    -0.204 F 
HETATM   24  C17 UNL     1      27.285   1.622  53.697  1.00  0.00     0.074 A 
HETATM   25 CL1  UNL     1      28.783   2.523  53.775  1.00  0.00    -0.081 Cl
HETATM   26  C18 UNL     1      26.252   2.082  52.916  1.00  0.00     0.056 A 
ENDBRANCH  17  19
ENDBRANCH  15  17
BRANCH   1  27
HETATM   27  O1  UNL     1      21.772   1.935  49.505  1.00  0.00    -0.363 OA
HETATM   28  H1  UNL     1      22.262   1.445  48.777  1.00  0.00     0.217 HD
ENDBRANCH   1  27
TORSDOF 3
ENDMDL
MODEL 8
REMARK VINA RESULT:      -7.6      7.535      8.678
REMARK  3 active torsions:
REMARK  status: ('A' for Active; 'I' for Inactive)
REMARK    1  A    between atoms: O1_1  and  C1_2 
REMARK    2  A    between atoms: C12_16  and  N4_17 
REMARK    3  A    between atoms: N4_17  and  C13_18 
ROOT
HETATM    1  C1  UNL     1      30.132   9.747  49.122  1.00  0.00     0.069 C 
HETATM    2  C2  UNL     1      31.062  10.266  48.299  1.00  0.00     0.034 C 
HETATM    3  C3  UNL     1      31.026  10.464  46.832  1.00  0.00    -0.001 C 
HETATM    4  C4  UNL     1      30.234  10.274  45.760  1.00  0.00    -0.013 C 
HETATM    5  C5  UNL     1      28.974   9.466  45.755  1.00  0.00     0.098 C 
HETATM    6  C6  UNL     1      28.092  10.313  46.751  1.00  0.00    -0.015 C 
HETATM    7  C7  UNL     1      27.998   9.803  48.043  1.00  0.00     0.001 C 
HETATM    8  C8  UNL     1      28.765   9.197  49.168  1.00  0.00     0.157 C 
HETATM    9  N1  UNL     1      28.781   7.729  49.210  1.00  0.00    -0.388 N 
HETATM   10  C9  UNL     1      29.009   7.370  47.819  1.00  0.00     0.184 A 
HETATM   11  C10 UNL     1      27.583   7.317  47.759  1.00  0.00     0.344 A 
HETATM   12  N2  UNL     1      27.815   8.006  46.583  1.00  0.00     0.353 N 
HETATM   13  C11 UNL     1      29.187   8.174  46.452  1.00  0.00     0.334 A 
HETATM   14  N3  UNL     1      30.475   7.980  46.922  1.00  0.00    -0.226 NA
HETATM   15  C12 UNL     1      30.399   7.279  48.137  1.00  0.00     0.137 A 
HETATM   16  H9  UNL     1      28.643   7.227  50.142  1.00  0.00     0.155 HD
ENDROOT
BRANCH  15  17
HETATM   17  N4  UNL     1      31.211   6.729  49.148  1.00  0.00    -0.342 N 
HETATM   18  H11 UNL     1      31.165   6.901  50.155  1.00  0.00     0.167 HD
BRANCH  17  19
HETATM   19  C13 UNL     1      32.214   5.819  48.685  1.00  0.00     0.035 A 
HETATM   20  C14 UNL     1      33.576   6.079  48.876  1.00  0.00     0.032 A 
HETATM   21  C15 UNL     1      34.589   5.245  48.453  1.00  0.00     0.046 A 
HETATM   22  C16 UNL     1      34.253   4.080  47.802  1.00  0.00     0.138 A 
HETATM   23  F1  UNL     1      35.198   3.221  47.365  1.00  0.00    -0.204 F 
HETATM   24  C17 UNL     1      32.927   3.769  47.585  1.00  0.00     0.074 A 
HETATM   25 CL1  UNL     1      32.471   2.296  46.761  1.00  0.00    -0.081 Cl
HETATM   26  C18 UNL     1      31.954   4.635  48.026  1.00  0.00     0.056 A 
ENDBRANCH  17  19
ENDBRANCH  15  17
BRANCH   1  27
HETATM   27  O1  UNL     1      30.652   9.716  50.429  1.00  0.00    -0.363 OA
HETATM   28  H1  UNL     1      30.465   8.886  50.964  1.00  0.00     0.217 HD
ENDBRANCH   1  27
TORSDOF 3
ENDMDL
MODEL 9
REMARK VINA RESULT:      -7.4      2.040      3.428
REMARK  3 active torsions:
REMARK  status: ('A' for Active; 'I' for Inactive)
REMARK    1  A    between atoms: O1_1  and  C1_2 
REMARK    2  A    between atoms: C12_16  and  N4_17 
REMARK    3  A    between atoms: N4_17  and  C13_18 
ROOT
HETATM    1  C1  UNL     1      22.522   2.551  49.363  1.00  0.00     0.069 C 
HETATM    2  C2  UNL     1      22.020   1.412  49.876  1.00  0.00     0.034 C 
HETATM    3  C3  UNL     1      21.175   1.204  51.075  1.00  0.00    -0.001 C 
HETATM    4  C4  UNL     1      20.586   1.876  52.080  1.00  0.00    -0.013 C 
HETATM    5  C5  UNL     1      20.842   3.311  52.422  1.00  0.00     0.098 C 
HETATM    6  C6  UNL     1      20.308   4.011  51.114  1.00  0.00    -0.015 C 
HETATM    7  C7  UNL     1      21.288   4.416  50.212  1.00  0.00     0.001 C 
HETATM    8  C8  UNL     1      22.553   4.015  49.533  1.00  0.00     0.157 C 
HETATM    9  N1  UNL     1      23.794   4.450  50.189  1.00  0.00    -0.388 N 
HETATM   10  C9  UNL     1      23.531   4.171  51.592  1.00  0.00     0.184 A 
HETATM   11  C10 UNL     1      23.082   5.526  51.620  1.00  0.00     0.344 A 
HETATM   12  N2  UNL     1      22.051   4.952  52.340  1.00  0.00     0.353 N 
HETATM   13  C11 UNL     1      22.299   3.588  52.424  1.00  0.00     0.334 A 
HETATM   14  N3  UNL     1      23.094   2.489  52.146  1.00  0.00    -0.226 NA
HETATM   15  C12 UNL     1      24.204   2.924  51.404  1.00  0.00     0.137 A 
HETATM   16  H9  UNL     1      24.589   4.849  49.599  1.00  0.00     0.155 HD
ENDROOT
BRANCH  15  17
HETATM   17  N4  UNL     1      25.385   2.450  50.800  1.00  0.00    -0.342 N 
HETATM   18  H11 UNL     1      25.691   2.574  49.833  1.00  0.00     0.167 HD
BRANCH  17  19
HETATM   19  C13 UNL     1      26.247   1.707  51.669  1.00  0.00     0.035 A 
HETATM   20  C14 UNL     1      26.122   0.319  51.803  1.00  0.00     0.032 A 
HETATM   21  C15 UNL     1      26.919  -0.454  52.621  1.00  0.00     0.046 A 
HETATM   22  C16 UNL     1      27.902   0.167  53.358  1.00  0.00     0.138 A 
HETATM   23  F1  UNL     1      28.715  -0.533  54.176  1.00  0.00    -0.204 F 
HETATM   24  C17 UNL     1      28.072   1.533  53.268  1.00  0.00     0.074 A 
HETATM   25 CL1  UNL     1      29.313   2.349  54.192  1.00  0.00    -0.081 Cl
HETATM   26  C18 UNL     1      27.251   2.259  52.437  1.00  0.00     0.056 A 
ENDBRANCH  17  19
ENDBRANCH  15  17
BRANCH   1  27
HETATM   27  O1  UNL     1      23.313   2.232  48.244  1.00  0.00    -0.363 OA
HETATM   28  H1  UNL     1      23.217   1.299  47.881  1.00  0.00     0.217 HD
ENDBRANCH   1  27
TORSDOF 3
ENDMDL
