MODEL 1
REMARK VINA RESULT:      -7.0      0.000      0.000
REMARK  9 active torsions:
REMARK  status: ('A' for Active; 'I' for Inactive)
REMARK    1  A    between atoms: C2_2  and  C3_3 
REMARK    2  A    between atoms: C2_2  and  N2_15 
REMARK    3  A    between atoms: C3_3  and  C4_4 
REMARK    4  A    between atoms: C4_4  and  N1_5 
REMARK    5  A    between atoms: N1_5  and  S1_6 
REMARK    6  A    between atoms: S1_6  and  C5_9 
REMARK       I    between atoms: N2_15  and  C11_16 
REMARK    7  A    between atoms: C11_16  and  C12_18 
REMARK    8  A    between atoms: C12_18  and  C13_19 
REMARK    9  A    between atoms: C13_19  and  C14_20 
ROOT
HETATM    1  C4  UNL     1      24.994   2.289  53.303  1.00  0.00     0.157 C 
ENDROOT
BRANCH   1   2
HETATM    2  C3  UNL     1      24.308   3.377  52.989  1.00  0.00    -0.086 C 
BRANCH   2   3
HETATM    3  C2  UNL     1      23.518   4.240  52.359  1.00  0.00     0.055 C 
HETATM    4  C1  UNL     1      22.129   3.849  52.238  1.00  0.00     0.078 C 
BRANCH   3   5
HETATM    5  N2  UNL     1      24.132   5.400  51.902  1.00  0.00    -0.324 N 
HETATM    6  C11 UNL     1      24.448   5.454  50.516  1.00  0.00     0.222 C 
HETATM    7  O3  UNL     1      24.231   4.563  49.653  1.00  0.00    -0.273 OA
HETATM    8  H11 UNL     1      24.374   6.212  52.477  1.00  0.00     0.169 HD
BRANCH   6   9
HETATM    9  C12 UNL     1      25.105   6.668  49.971  1.00  0.00     0.104 C 
BRANCH   9  10
HETATM   10  C13 UNL     1      25.661   6.467  48.604  1.00  0.00     0.024 C 
BRANCH  10  11
HETATM   11  C14 UNL     1      27.180   6.372  48.724  1.00  0.00     0.115 C 
HETATM   12 CL1  UNL     1      27.636   4.658  48.668  1.00  0.00    -0.130 Cl
ENDBRANCH  10  11
ENDBRANCH   9  10
ENDBRANCH   6   9
ENDBRANCH   3   5
ENDBRANCH   2   3
ENDBRANCH   1   2
BRANCH   1  13
HETATM   13  N1  UNL     1      26.166   2.372  54.077  1.00  0.00    -0.284 N 
HETATM   14  H5  UNL     1      26.097   2.634  55.083  1.00  0.00     0.178 HD
BRANCH  13  15
HETATM   15  S1  UNL     1      27.666   2.029  53.291  1.00  0.00     0.263 S 
HETATM   16  O1  UNL     1      28.797   2.701  54.040  1.00  0.00    -0.200 OA
HETATM   17  O2  UNL     1      27.679   2.586  51.888  1.00  0.00    -0.200 OA
BRANCH  15  18
HETATM   18  C5  UNL     1      27.967   0.312  53.184  1.00  0.00     0.079 A 
HETATM   19  C6  UNL     1      29.219  -0.146  53.603  1.00  0.00     0.025 A 
HETATM   20  C7  UNL     1      29.562  -1.479  53.562  1.00  0.00     0.002 A 
HETATM   21  C8  UNL     1      28.627  -2.368  53.091  1.00  0.00     0.000 A 
HETATM   22  C9  UNL     1      27.380  -1.971  52.667  1.00  0.00     0.002 A 
HETATM   23  C10 UNL     1      27.070  -0.626  52.722  1.00  0.00     0.025 A 
ENDBRANCH  15  18
ENDBRANCH  13  15
ENDBRANCH   1  13
TORSDOF 9
ENDMDL
MODEL 2
REMARK VINA RESULT:      -7.0      3.211      3.979
REMARK  9 active torsions:
REMARK  status: ('A' for Active; 'I' for Inactive)
REMARK    1  A    between atoms: C2_2  and  C3_3 
REMARK    2  A    between atoms: C2_2  and  N2_15 
REMARK    3  A    between atoms: C3_3  and  C4_4 
REMARK    4  A    between atoms: C4_4  and  N1_5 
REMARK    5  A    between atoms: N1_5  and  S1_6 
REMARK    6  A    between atoms: S1_6  and  C5_9 
REMARK       I    between atoms: N2_15  and  C11_16 
REMARK    7  A    between atoms: C11_16  and  C12_18 
REMARK    8  A    between atoms: C12_18  and  C13_19 
REMARK    9  A    between atoms: C13_19  and  C14_20 
ROOT
HETATM    1  C4  UNL     1      25.187   2.526  53.372  1.00  0.00     0.157 C 
ENDROOT
BRANCH   1   2
HETATM    2  C3  UNL     1      24.162   1.728  53.121  1.00  0.00    -0.086 C 
BRANCH   2   3
HETATM    3  C2  UNL     1      23.416   0.725  52.669  1.00  0.00     0.055 C 
HETATM    4  C1  UNL     1      23.532  -0.522  53.397  1.00  0.00     0.078 C 
BRANCH   3   5
HETATM    5  N2  UNL     1      22.628   1.008  51.560  1.00  0.00    -0.324 N 
HETATM    6  C11 UNL     1      21.287   1.409  51.813  1.00  0.00     0.222 C 
HETATM    7  O3  UNL     1      20.732   1.538  52.936  1.00  0.00    -0.273 OA
HETATM    8  H11 UNL     1      22.932   0.950  50.585  1.00  0.00     0.169 HD
BRANCH   6   9
HETATM    9  C12 UNL     1      20.399   1.724  50.667  1.00  0.00     0.104 C 
BRANCH   9  10
HETATM   10  C13 UNL     1      20.805   1.039  49.407  1.00  0.00     0.024 C 
BRANCH  10  11
HETATM   11  C14 UNL     1      20.967   2.104  48.326  1.00  0.00     0.115 C 
HETATM   12 CL1  UNL     1      22.671   2.136  47.829  1.00  0.00    -0.130 Cl
ENDBRANCH  10  11
ENDBRANCH   9  10
ENDBRANCH   6   9
ENDBRANCH   3   5
ENDBRANCH   2   3
ENDBRANCH   1   2
BRANCH   1  13
HETATM   13  N1  UNL     1      26.241   2.110  54.207  1.00  0.00    -0.284 N 
HETATM   14  H5  UNL     1      26.062   1.965  55.223  1.00  0.00     0.178 HD
BRANCH  13  15
HETATM   15  S1  UNL     1      27.787   1.865  53.475  1.00  0.00     0.263 S 
HETATM   16  O1  UNL     1      28.854   2.545  54.305  1.00  0.00    -0.200 OA
HETATM   17  O2  UNL     1      27.838   2.487  52.101  1.00  0.00    -0.200 OA
BRANCH  15  18
HETATM   18  C5  UNL     1      28.164   0.168  53.305  1.00  0.00     0.079 A 
HETATM   19  C6  UNL     1      27.150  -0.669  52.828  1.00  0.00     0.025 A 
HETATM   20  C7  UNL     1      27.339  -2.021  52.655  1.00  0.00     0.002 A 
HETATM   21  C8  UNL     1      28.570  -2.543  52.966  1.00  0.00     0.000 A 
HETATM   22  C9  UNL     1      29.603  -1.765  53.438  1.00  0.00     0.002 A 
HETATM   23  C10 UNL     1      29.378  -0.412  53.600  1.00  0.00     0.025 A 
ENDBRANCH  15  18
ENDBRANCH  13  15
ENDBRANCH   1  13
TORSDOF 9
ENDMDL
MODEL 3
REMARK VINA RESULT:      -6.8      3.424      5.036
REMARK  9 active torsions:
REMARK  status: ('A' for Active; 'I' for Inactive)
REMARK    1  A    between atoms: C2_2  and  C3_3 
REMARK    2  A    between atoms: C2_2  and  N2_15 
REMARK    3  A    between atoms: C3_3  and  C4_4 
REMARK    4  A    between atoms: C4_4  and  N1_5 
REMARK    5  A    between atoms: N1_5  and  S1_6 
REMARK    6  A    between atoms: S1_6  and  C5_9 
REMARK       I    between atoms: N2_15  and  C11_16 
REMARK    7  A    between atoms: C11_16  and  C12_18 
REMARK    8  A    between atoms: C12_18  and  C13_19 
REMARK    9  A    between atoms: C13_19  and  C14_20 
ROOT
HETATM    1  C4  UNL     1      24.928   2.978  53.115  1.00  0.00     0.157 C 
ENDROOT
BRANCH   1   2
HETATM    2  C3  UNL     1      23.899   2.497  52.433  1.00  0.00    -0.086 C 
BRANCH   2   3
HETATM    3  C2  UNL     1      23.164   1.867  51.524  1.00  0.00     0.055 C 
HETATM    4  C1  UNL     1      23.186   2.435  50.193  1.00  0.00     0.078 C 
BRANCH   3   5
HETATM    5  N2  UNL     1      22.472   0.748  51.975  1.00  0.00    -0.324 N 
HETATM    6  C11 UNL     1      21.191   0.977  52.550  1.00  0.00     0.222 C 
HETATM    7  O3  UNL     1      20.611   2.085  52.696  1.00  0.00    -0.273 OA
HETATM    8  H11 UNL     1      22.807  -0.217  51.927  1.00  0.00     0.169 HD
BRANCH   6   9
HETATM    9  C12 UNL     1      20.407  -0.179  53.049  1.00  0.00     0.104 C 
BRANCH   9  10
HETATM   10  C13 UNL     1      21.244  -1.201  53.738  1.00  0.00     0.024 C 
BRANCH  10  11
HETATM   11  C14 UNL     1      21.710  -0.608  55.065  1.00  0.00     0.115 C 
HETATM   12 CL1  UNL     1      23.220  -1.415  55.534  1.00  0.00    -0.130 Cl
ENDBRANCH  10  11
ENDBRANCH   9  10
ENDBRANCH   6   9
ENDBRANCH   3   5
ENDBRANCH   2   3
ENDBRANCH   1   2
BRANCH   1  13
HETATM   13  N1  UNL     1      25.780   2.122  53.837  1.00  0.00    -0.284 N 
HETATM   14  H5  UNL     1      25.425   1.655  54.698  1.00  0.00     0.178 HD
BRANCH  13  15
HETATM   15  S1  UNL     1      27.384   1.902  53.235  1.00  0.00     0.263 S 
HETATM   16  O1  UNL     1      28.364   2.638  54.124  1.00  0.00    -0.200 OA
HETATM   17  O2  UNL     1      27.526   2.486  51.851  1.00  0.00    -0.200 OA
BRANCH  15  18
HETATM   18  C5  UNL     1      27.820   0.213  53.147  1.00  0.00     0.079 A 
HETATM   19  C6  UNL     1      26.841  -0.679  52.701  1.00  0.00     0.025 A 
HETATM   20  C7  UNL     1      27.077  -2.030  52.593  1.00  0.00     0.002 A 
HETATM   21  C8  UNL     1      28.322  -2.494  52.939  1.00  0.00     0.000 A 
HETATM   22  C9  UNL     1      29.323  -1.661  53.383  1.00  0.00     0.002 A 
HETATM   23  C10 UNL     1      29.051  -0.310  53.480  1.00  0.00     0.025 A 
ENDBRANCH  15  18
ENDBRANCH  13  15
ENDBRANCH   1  13
TORSDOF 9
ENDMDL
MODEL 4
REMARK VINA RESULT:      -6.8      3.953      5.358
REMARK  9 active torsions:
REMARK  status: ('A' for Active; 'I' for Inactive)
REMARK    1  A    between atoms: C2_2  and  C3_3 
REMARK    2  A    between atoms: C2_2  and  N2_15 
REMARK    3  A    between atoms: C3_3  and  C4_4 
REMARK    4  A    between atoms: C4_4  and  N1_5 
REMARK    5  A    between atoms: N1_5  and  S1_6 
REMARK    6  A    between atoms: S1_6  and  C5_9 
REMARK       I    between atoms: N2_15  and  C11_16 
REMARK    7  A    between atoms: C11_16  and  C12_18 
REMARK    8  A    between atoms: C12_18  and  C13_19 
REMARK    9  A    between atoms: C13_19  and  C14_20 
ROOT
HETATM    1  C4  UNL     1      25.102   2.527  53.278  1.00  0.00     0.157 C 
ENDROOT
BRANCH   1   2
HETATM    2  C3  UNL     1      24.107   1.654  53.217  1.00  0.00    -0.086 C 
BRANCH   2   3
HETATM    3  C2  UNL     1      23.399   0.552  52.997  1.00  0.00     0.055 C 
HETATM    4  C1  UNL     1      23.625  -0.536  53.926  1.00  0.00     0.078 C 
BRANCH   3   5
HETATM    5  N2  UNL     1      22.540   0.592  51.905  1.00  0.00    -0.324 N 
HETATM    6  C11 UNL     1      21.156   0.397  52.172  1.00  0.00     0.222 C 
HETATM    7  O3  UNL     1      20.621   0.192  53.293  1.00  0.00    -0.273 OA
HETATM    8  H11 UNL     1      22.819   0.748  50.933  1.00  0.00     0.169 HD
BRANCH   6   9
HETATM    9  C12 UNL     1      20.192   0.429  51.045  1.00  0.00     0.104 C 
BRANCH   9  10
HETATM   10  C13 UNL     1      18.891   1.060  51.406  1.00  0.00     0.024 C 
BRANCH  10  11
HETATM   11  C14 UNL     1      17.777   0.082  51.044  1.00  0.00     0.115 C 
HETATM   12 CL1  UNL     1      17.572  -1.052  52.395  1.00  0.00    -0.130 Cl
ENDBRANCH  10  11
ENDBRANCH   9  10
ENDBRANCH   6   9
ENDBRANCH   3   5
ENDBRANCH   2   3
ENDBRANCH   1   2
BRANCH   1  13
HETATM   13  N1  UNL     1      26.219   2.292  54.100  1.00  0.00    -0.284 N 
HETATM   14  H5  UNL     1      26.107   2.312  55.135  1.00  0.00     0.178 HD
BRANCH  13  15
HETATM   15  S1  UNL     1      27.729   1.981  53.320  1.00  0.00     0.263 S 
HETATM   16  O1  UNL     1      28.844   2.667  54.081  1.00  0.00    -0.200 OA
HETATM   17  O2  UNL     1      27.741   2.549  51.921  1.00  0.00    -0.200 OA
BRANCH  15  18
HETATM   18  C5  UNL     1      28.061   0.270  53.202  1.00  0.00     0.079 A 
HETATM   19  C6  UNL     1      27.043  -0.546  52.700  1.00  0.00     0.025 A 
HETATM   20  C7  UNL     1      27.198  -1.907  52.564  1.00  0.00     0.002 A 
HETATM   21  C8  UNL     1      28.398  -2.458  52.940  1.00  0.00     0.000 A 
HETATM   22  C9  UNL     1      29.433  -1.701  53.439  1.00  0.00     0.002 A 
HETATM   23  C10 UNL     1      29.243  -0.339  53.562  1.00  0.00     0.025 A 
ENDBRANCH  15  18
ENDBRANCH  13  15
ENDBRANCH   1  13
TORSDOF 9
ENDMDL
MODEL 5
REMARK VINA RESULT:      -6.7      2.580      6.732
REMARK  9 active torsions:
REMARK  status: ('A' for Active; 'I' for Inactive)
REMARK    1  A    between atoms: C2_2  and  C3_3 
REMARK    2  A    between atoms: C2_2  and  N2_15 
REMARK    3  A    between atoms: C3_3  and  C4_4 
REMARK    4  A    between atoms: C4_4  and  N1_5 
REMARK    5  A    between atoms: N1_5  and  S1_6 
REMARK    6  A    between atoms: S1_6  and  C5_9 
REMARK       I    between atoms: N2_15  and  C11_16 
REMARK    7  A    between atoms: C11_16  and  C12_18 
REMARK    8  A    between atoms: C12_18  and  C13_19 
REMARK    9  A    between atoms: C13_19  and  C14_20 
ROOT
HETATM    1  C4  UNL     1      23.682   3.202  52.195  1.00  0.00     0.157 C 
ENDROOT
BRANCH   1   2
HETATM    2  C3  UNL     1      23.812   1.996  52.727  1.00  0.00    -0.086 C 
BRANCH   2   3
HETATM    3  C2  UNL     1      24.236   0.765  52.989  1.00  0.00     0.055 C 
HETATM    4  C1  UNL     1      23.305  -0.082  53.705  1.00  0.00     0.078 C 
BRANCH   3   5
HETATM    5  N2  UNL     1      25.515   0.457  52.542  1.00  0.00    -0.324 N 
HETATM    6  C11 UNL     1      26.577   0.629  53.473  1.00  0.00     0.222 C 
HETATM    7  O3  UNL     1      26.486   1.030  54.663  1.00  0.00    -0.273 OA
HETATM    8  H11 UNL     1      25.753   0.121  51.605  1.00  0.00     0.169 HD
BRANCH   6   9
HETATM    9  C12 UNL     1      27.965   0.317  53.051  1.00  0.00     0.104 C 
BRANCH   9  10
HETATM   10  C13 UNL     1      28.910   0.191  54.196  1.00  0.00     0.024 C 
BRANCH  10  11
HETATM   11  C14 UNL     1      29.928  -0.892  53.849  1.00  0.00     0.115 C 
HETATM   12 CL1  UNL     1      29.055  -2.274  53.157  1.00  0.00    -0.130 Cl
ENDBRANCH  10  11
ENDBRANCH   9  10
ENDBRANCH   6   9
ENDBRANCH   3   5
ENDBRANCH   2   3
ENDBRANCH   1   2
BRANCH   1  13
HETATM   13  N1  UNL     1      24.807   3.919  51.747  1.00  0.00    -0.284 N 
HETATM   14  H5  UNL     1      25.186   4.694  52.331  1.00  0.00     0.178 HD
BRANCH  13  15
HETATM   15  S1  UNL     1      25.494   3.456  50.231  1.00  0.00     0.263 S 
HETATM   16  O1  UNL     1      24.398   2.980  49.302  1.00  0.00    -0.200 OA
HETATM   17  O2  UNL     1      26.454   2.304  50.403  1.00  0.00    -0.200 OA
BRANCH  15  18
HETATM   18  C5  UNL     1      26.370   4.771  49.485  1.00  0.00     0.079 A 
HETATM   19  C6  UNL     1      25.831   6.054  49.614  1.00  0.00     0.025 A 
HETATM   20  C7  UNL     1      26.439   7.161  49.066  1.00  0.00     0.002 A 
HETATM   21  C8  UNL     1      27.612   6.974  48.376  1.00  0.00     0.000 A 
HETATM   22  C9  UNL     1      28.186   5.733  48.220  1.00  0.00     0.002 A 
HETATM   23  C10 UNL     1      27.549   4.645  48.783  1.00  0.00     0.025 A 
ENDBRANCH  15  18
ENDBRANCH  13  15
ENDBRANCH   1  13
TORSDOF 9
ENDMDL
MODEL 6
REMARK VINA RESULT:      -6.6      2.502      6.551
REMARK  9 active torsions:
REMARK  status: ('A' for Active; 'I' for Inactive)
REMARK    1  A    between atoms: C2_2  and  C3_3 
REMARK    2  A    between atoms: C2_2  and  N2_15 
REMARK    3  A    between atoms: C3_3  and  C4_4 
REMARK    4  A    between atoms: C4_4  and  N1_5 
REMARK    5  A    between atoms: N1_5  and  S1_6 
REMARK    6  A    between atoms: S1_6  and  C5_9 
REMARK       I    between atoms: N2_15  and  C11_16 
REMARK    7  A    between atoms: C11_16  and  C12_18 
REMARK    8  A    between atoms: C12_18  and  C13_19 
REMARK    9  A    between atoms: C13_19  and  C14_20 
ROOT
HETATM    1  C4  UNL     1      23.512   4.778  52.826  1.00  0.00     0.157 C 
ENDROOT
BRANCH   1   2
HETATM    2  C3  UNL     1      24.132   3.613  52.926  1.00  0.00    -0.086 C 
BRANCH   2   3
HETATM    3  C2  UNL     1      24.677   2.437  52.632  1.00  0.00     0.055 C 
HETATM    4  C1  UNL     1      24.144   1.771  51.462  1.00  0.00     0.078 C 
BRANCH   3   5
HETATM    5  N2  UNL     1      25.683   2.005  53.488  1.00  0.00    -0.324 N 
HETATM    6  C11 UNL     1      27.010   2.027  52.978  1.00  0.00     0.222 C 
HETATM    7  O3  UNL     1      27.378   2.398  51.832  1.00  0.00    -0.273 OA
HETATM    8  H11 UNL     1      25.547   1.675  54.447  1.00  0.00     0.169 HD
BRANCH   6   9
HETATM    9  C12 UNL     1      28.126   1.577  53.847  1.00  0.00     0.104 C 
BRANCH   9  10
HETATM   10  C13 UNL     1      27.919   0.211  54.404  1.00  0.00     0.024 C 
BRANCH  10  11
HETATM   11  C14 UNL     1      28.349  -0.798  53.342  1.00  0.00     0.115 C 
HETATM   12 CL1  UNL     1      26.888  -1.468  52.588  1.00  0.00    -0.130 Cl
ENDBRANCH  10  11
ENDBRANCH   9  10
ENDBRANCH   6   9
ENDBRANCH   3   5
ENDBRANCH   2   3
ENDBRANCH   1   2
BRANCH   1  13
HETATM   13  N1  UNL     1      24.180   5.913  52.329  1.00  0.00    -0.284 N 
HETATM   14  H5  UNL     1      24.739   6.503  52.980  1.00  0.00     0.178 HD
BRANCH  13  15
HETATM   15  S1  UNL     1      24.025   6.253  50.643  1.00  0.00     0.263 S 
HETATM   16  O1  UNL     1      23.554   7.679  50.454  1.00  0.00    -0.200 OA
HETATM   17  O2  UNL     1      22.986   5.362  50.006  1.00  0.00    -0.200 OA
BRANCH  15  18
HETATM   18  C5  UNL     1      25.529   6.010  49.788  1.00  0.00     0.079 A 
HETATM   19  C6  UNL     1      25.963   4.692  49.618  1.00  0.00     0.025 A 
HETATM   20  C7  UNL     1      27.132   4.386  48.960  1.00  0.00     0.002 A 
HETATM   21  C8  UNL     1      27.881   5.425  48.464  1.00  0.00     0.000 A 
HETATM   22  C9  UNL     1      27.501   6.741  48.603  1.00  0.00     0.002 A 
HETATM   23  C10 UNL     1      26.321   7.011  49.269  1.00  0.00     0.025 A 
ENDBRANCH  15  18
ENDBRANCH  13  15
ENDBRANCH   1  13
TORSDOF 9
ENDMDL
MODEL 7
REMARK VINA RESULT:      -6.6      3.999      7.155
REMARK  9 active torsions:
REMARK  status: ('A' for Active; 'I' for Inactive)
REMARK    1  A    between atoms: C2_2  and  C3_3 
REMARK    2  A    between atoms: C2_2  and  N2_15 
REMARK    3  A    between atoms: C3_3  and  C4_4 
REMARK    4  A    between atoms: C4_4  and  N1_5 
REMARK    5  A    between atoms: N1_5  and  S1_6 
REMARK    6  A    between atoms: S1_6  and  C5_9 
REMARK       I    between atoms: N2_15  and  C11_16 
REMARK    7  A    between atoms: C11_16  and  C12_18 
REMARK    8  A    between atoms: C12_18  and  C13_19 
REMARK    9  A    between atoms: C13_19  and  C14_20 
ROOT
HETATM    1  C4  UNL     1      26.804   2.063  52.190  1.00  0.00     0.157 C 
ENDROOT
BRANCH   1   2
HETATM    2  C3  UNL     1      26.749   0.758  52.407  1.00  0.00    -0.086 C 
BRANCH   2   3
HETATM    3  C2  UNL     1      26.321  -0.455  52.741  1.00  0.00     0.055 C 
HETATM    4  C1  UNL     1      27.314  -1.508  52.691  1.00  0.00     0.078 C 
BRANCH   3   5
HETATM    5  N2  UNL     1      24.979  -0.549  53.090  1.00  0.00    -0.324 N 
HETATM    6  C11 UNL     1      24.691  -0.787  54.463  1.00  0.00     0.222 C 
HETATM    7  O3  UNL     1      25.520  -0.921  55.401  1.00  0.00    -0.273 OA
HETATM    8  H11 UNL     1      24.189  -0.463  52.446  1.00  0.00     0.169 HD
BRANCH   6   9
HETATM    9  C12 UNL     1      23.275  -0.897  54.895  1.00  0.00     0.104 C 
BRANCH   9  10
HETATM   10  C13 UNL     1      22.310  -0.818  53.762  1.00  0.00     0.024 C 
BRANCH  10  11
HETATM   11  C14 UNL     1      21.137   0.053  54.205  1.00  0.00     0.115 C 
HETATM   12 CL1  UNL     1      19.729  -0.363  53.206  1.00  0.00    -0.130 Cl
ENDBRANCH  10  11
ENDBRANCH   9  10
ENDBRANCH   6   9
ENDBRANCH   3   5
ENDBRANCH   2   3
ENDBRANCH   1   2
BRANCH   1  13
HETATM   13  N1  UNL     1      25.993   2.669  51.214  1.00  0.00    -0.284 N 
HETATM   14  H5  UNL     1      26.399   2.901  50.283  1.00  0.00     0.178 HD
BRANCH  13  15
HETATM   15  S1  UNL     1      24.349   2.993  51.634  1.00  0.00     0.263 S 
HETATM   16  O1  UNL     1      24.130   4.488  51.713  1.00  0.00    -0.200 OA
HETATM   17  O2  UNL     1      24.019   2.430  52.996  1.00  0.00    -0.200 OA
BRANCH  15  18
HETATM   18  C5  UNL     1      23.233   2.293  50.486  1.00  0.00     0.079 A 
HETATM   19  C6  UNL     1      23.291   2.761  49.171  1.00  0.00     0.025 A 
HETATM   20  C7  UNL     1      22.459   2.278  48.186  1.00  0.00     0.002 A 
HETATM   21  C8  UNL     1      21.552   1.307  48.530  1.00  0.00     0.000 A 
HETATM   22  C9  UNL     1      21.453   0.810  49.810  1.00  0.00     0.002 A 
HETATM   23  C10 UNL     1      22.303   1.317  50.773  1.00  0.00     0.025 A 
ENDBRANCH  15  18
ENDBRANCH  13  15
ENDBRANCH   1  13
TORSDOF 9
ENDMDL
MODEL 8
REMARK VINA RESULT:      -6.5      3.072      4.341
REMARK  9 active torsions:
REMARK  status: ('A' for Active; 'I' for Inactive)
REMARK    1  A    between atoms: C2_2  and  C3_3 
REMARK    2  A    between atoms: C2_2  and  N2_15 
REMARK    3  A    between atoms: C3_3  and  C4_4 
REMARK    4  A    between atoms: C4_4  and  N1_5 
REMARK    5  A    between atoms: N1_5  and  S1_6 
REMARK    6  A    between atoms: S1_6  and  C5_9 
REMARK       I    between atoms: N2_15  and  C11_16 
REMARK    7  A    between atoms: C11_16  and  C12_18 
REMARK    8  A    between atoms: C12_18  and  C13_19 
REMARK    9  A    between atoms: C13_19  and  C14_20 
ROOT
HETATM    1  C4  UNL     1      24.986   2.020  53.375  1.00  0.00     0.157 C 
ENDROOT
BRANCH   1   2
HETATM    2  C3  UNL     1      24.183   2.956  52.895  1.00  0.00    -0.086 C 
BRANCH   2   3
HETATM    3  C2  UNL     1      23.286   3.601  52.156  1.00  0.00     0.055 C 
HETATM    4  C1  UNL     1      23.336   5.046  52.226  1.00  0.00     0.078 C 
BRANCH   3   5
HETATM    5  N2  UNL     1      22.422   2.801  51.417  1.00  0.00    -0.324 N 
HETATM    6  C11 UNL     1      21.057   2.798  51.814  1.00  0.00     0.222 C 
HETATM    7  O3  UNL     1      20.540   3.443  52.764  1.00  0.00    -0.273 OA
HETATM    8  H11 UNL     1      22.687   2.219  50.619  1.00  0.00     0.169 HD
BRANCH   6   9
HETATM    9  C12 UNL     1      20.088   1.962  51.062  1.00  0.00     0.104 C 
BRANCH   9  10
HETATM   10  C13 UNL     1      19.185   1.175  51.948  1.00  0.00     0.024 C 
BRANCH  10  11
HETATM   11  C14 UNL     1      19.957  -0.046  52.441  1.00  0.00     0.115 C 
HETATM   12 CL1  UNL     1      20.461   0.255  54.116  1.00  0.00    -0.130 Cl
ENDBRANCH  10  11
ENDBRANCH   9  10
ENDBRANCH   6   9
ENDBRANCH   3   5
ENDBRANCH   2   3
ENDBRANCH   1   2
BRANCH   1  13
HETATM   13  N1  UNL     1      26.161   2.363  54.071  1.00  0.00    -0.284 N 
HETATM   14  H5  UNL     1      26.088   2.805  55.012  1.00  0.00     0.178 HD
BRANCH  13  15
HETATM   15  S1  UNL     1      27.670   2.021  53.303  1.00  0.00     0.263 S 
HETATM   16  O1  UNL     1      28.793   2.679  54.075  1.00  0.00    -0.200 OA
HETATM   17  O2  UNL     1      27.706   2.593  51.906  1.00  0.00    -0.200 OA
BRANCH  15  18
HETATM   18  C5  UNL     1      27.964   0.304  53.181  1.00  0.00     0.079 A 
HETATM   19  C6  UNL     1      29.223  -0.160  53.572  1.00  0.00     0.025 A 
HETATM   20  C7  UNL     1      29.561  -1.493  53.518  1.00  0.00     0.002 A 
HETATM   21  C8  UNL     1      28.615  -2.377  53.062  1.00  0.00     0.000 A 
HETATM   22  C9  UNL     1      27.360  -1.976  52.664  1.00  0.00     0.002 A 
HETATM   23  C10 UNL     1      27.055  -0.630  52.732  1.00  0.00     0.025 A 
ENDBRANCH  15  18
ENDBRANCH  13  15
ENDBRANCH   1  13
TORSDOF 9
ENDMDL
MODEL 9
REMARK VINA RESULT:      -6.4      3.251      4.683
REMARK  9 active torsions:
REMARK  status: ('A' for Active; 'I' for Inactive)
REMARK    1  A    between atoms: C2_2  and  C3_3 
REMARK    2  A    between atoms: C2_2  and  N2_15 
REMARK    3  A    between atoms: C3_3  and  C4_4 
REMARK    4  A    between atoms: C4_4  and  N1_5 
REMARK    5  A    between atoms: N1_5  and  S1_6 
REMARK    6  A    between atoms: S1_6  and  C5_9 
REMARK       I    between atoms: N2_15  and  C11_16 
REMARK    7  A    between atoms: C11_16  and  C12_18 
REMARK    8  A    between atoms: C12_18  and  C13_19 
REMARK    9  A    between atoms: C13_19  and  C14_20 
ROOT
HETATM    1  C4  UNL     1      26.260   2.787  50.494  1.00  0.00     0.157 C 
ENDROOT
BRANCH   1   2
HETATM    2  C3  UNL     1      25.036   3.262  50.326  1.00  0.00    -0.086 C 
BRANCH   2   3
HETATM    3  C2  UNL     1      23.753   3.557  50.510  1.00  0.00     0.055 C 
HETATM    4  C1  UNL     1      23.274   4.738  49.822  1.00  0.00     0.078 C 
BRANCH   3   5
HETATM    5  N2  UNL     1      23.047   2.694  51.339  1.00  0.00    -0.324 N 
HETATM    6  C11 UNL     1      22.331   1.641  50.705  1.00  0.00     0.222 C 
HETATM    7  O3  UNL     1      22.266   1.402  49.471  1.00  0.00    -0.273 OA
HETATM    8  H11 UNL     1      23.000   2.755  52.360  1.00  0.00     0.169 HD
BRANCH   6   9
HETATM    9  C12 UNL     1      21.558   0.688  51.540  1.00  0.00     0.104 C 
BRANCH   9  10
HETATM   10  C13 UNL     1      21.641   0.987  52.998  1.00  0.00     0.024 C 
BRANCH  10  11
HETATM   11  C14 UNL     1      20.628   0.102  53.718  1.00  0.00     0.115 C 
HETATM   12 CL1  UNL     1      21.519  -1.084  54.692  1.00  0.00    -0.130 Cl
ENDBRANCH  10  11
ENDBRANCH   9  10
ENDBRANCH   6   9
ENDBRANCH   3   5
ENDBRANCH   2   3
ENDBRANCH   1   2
BRANCH   1  13
HETATM   13  N1  UNL     1      26.905   2.875  51.742  1.00  0.00    -0.284 N 
HETATM   14  H5  UNL     1      27.592   3.639  51.910  1.00  0.00     0.178 HD
BRANCH  13  15
HETATM   15  S1  UNL     1      26.504   1.686  52.930  1.00  0.00     0.263 S 
HETATM   16  O1  UNL     1      25.224   0.983  52.532  1.00  0.00    -0.200 OA
HETATM   17  O2  UNL     1      26.251   2.329  54.272  1.00  0.00    -0.200 OA
BRANCH  15  18
HETATM   18  C5  UNL     1      27.783   0.515  53.135  1.00  0.00     0.079 A 
HETATM   19  C6  UNL     1      27.465  -0.827  52.908  1.00  0.00     0.025 A 
HETATM   20  C7  UNL     1      28.396  -1.832  53.040  1.00  0.00     0.002 A 
HETATM   21  C8  UNL     1      29.672  -1.482  53.408  1.00  0.00     0.000 A 
HETATM   22  C9  UNL     1      30.039  -0.177  53.644  1.00  0.00     0.002 A 
HETATM   23  C10 UNL     1      29.079   0.806  53.502  1.00  0.00     0.025 A 
ENDBRANCH  15  18
ENDBRANCH  13  15
ENDBRANCH   1  13
TORSDOF 9
ENDMDL
