MODEL 1
REMARK VINA RESULT:      -7.7      0.000      0.000
REMARK  5 active torsions:
REMARK  status: ('A' for Active; 'I' for Inactive)
REMARK    1  A    between atoms: N1_7  and  C6_8 
REMARK    2  A    between atoms: C6_8  and  C7_9 
REMARK    3  A    between atoms: C7_9  and  C8_10 
REMARK    4  A    between atoms: C8_10  and  C9_11 
REMARK    5  A    between atoms: C13_16  and  C14_17 
ROOT
HETATM    1  C9  UNL     1      22.993   0.614  52.634  1.00  0.00    -0.020 C 
HETATM    2  C10 UNL     1      23.089  -0.056  53.768  1.00  0.00     0.011 C 
HETATM    3  C11 UNL     1      22.408  -1.039  54.606  1.00  0.00     0.017 C 
HETATM    4  C12 UNL     1      21.149  -1.481  54.541  1.00  0.00     0.084 C 
HETATM    5  N2  UNL     1      20.020  -1.230  53.722  1.00  0.00    -0.388 N 
HETATM    6  C13 UNL     1      19.577  -0.125  52.893  1.00  0.00     0.131 C 
HETATM    7  C16 UNL     1      20.513   0.189  51.799  1.00  0.00     0.044 C 
HETATM    8  C17 UNL     1      21.828   0.474  51.704  1.00  0.00     0.121 C 
HETATM    9  F1  UNL     1      22.114   0.680  50.384  1.00  0.00    -0.206 F 
HETATM   10  H18 UNL     1      19.364  -2.069  53.746  1.00  0.00     0.159 HD
ENDROOT
BRANCH   1  11
HETATM   11  C8  UNL     1      23.881   1.581  52.016  1.00  0.00     0.043 C 
BRANCH  11  12
HETATM   12  C7  UNL     1      25.186   1.891  52.671  1.00  0.00     0.024 C 
BRANCH  12  13
HETATM   13  C6  UNL     1      26.411   1.593  51.896  1.00  0.00     0.123 C 
BRANCH  13  14
HETATM   14  N1  UNL     1      27.451   0.950  52.664  1.00  0.00    -0.381 N 
HETATM   15  C2  UNL     1      27.600  -0.450  52.853  1.00  0.00     0.021 C 
HETATM   16  C1  UNL     1      26.638  -1.259  52.454  1.00  0.00     0.040 C 
HETATM   17  C3  UNL     1      28.795  -1.029  53.484  1.00  0.00     0.223 C 
HETATM   18  O1  UNL     1      29.649  -0.063  54.007  1.00  0.00    -0.384 OA
HETATM   19  C4  UNL     1      28.955   1.050  54.504  1.00  0.00     0.187 C 
HETATM   20  C5  UNL     1      28.424   1.798  53.297  1.00  0.00     0.149 C 
ENDBRANCH  13  14
ENDBRANCH  12  13
ENDBRANCH  11  12
ENDBRANCH   1  11
BRANCH   6  21
HETATM   21  C14 UNL     1      18.241  -0.455  52.338  1.00  0.00     0.014 C 
HETATM   22  C15 UNL     1      17.618   0.583  51.802  1.00  0.00     0.083 C 
HETATM   23 CL1  UNL     1      17.948   2.280  51.564  1.00  0.00    -0.097 Cl
ENDBRANCH   6  21
TORSDOF 5
ENDMDL
MODEL 2
REMARK VINA RESULT:      -7.7      2.442      3.593
REMARK  5 active torsions:
REMARK  status: ('A' for Active; 'I' for Inactive)
REMARK    1  A    between atoms: N1_7  and  C6_8 
REMARK    2  A    between atoms: C6_8  and  C7_9 
REMARK    3  A    between atoms: C7_9  and  C8_10 
REMARK    4  A    between atoms: C8_10  and  C9_11 
REMARK    5  A    between atoms: C13_16  and  C14_17 
ROOT
HETATM    1  C9  UNL     1      23.440   2.290  50.839  1.00  0.00    -0.020 C 
HETATM    2  C10 UNL     1      22.576   1.855  49.941  1.00  0.00     0.011 C 
HETATM    3  C11 UNL     1      21.308   1.149  49.785  1.00  0.00     0.017 C 
HETATM    4  C12 UNL     1      20.623   0.430  50.678  1.00  0.00     0.084 C 
HETATM    5  N2  UNL     1      20.791   0.062  52.036  1.00  0.00    -0.388 N 
HETATM    6  C13 UNL     1      21.923  -0.077  52.931  1.00  0.00     0.131 C 
HETATM    7  C16 UNL     1      22.669   1.180  53.120  1.00  0.00     0.044 C 
HETATM    8  C17 UNL     1      23.252   2.089  52.311  1.00  0.00     0.121 C 
HETATM    9  F1  UNL     1      23.801   3.058  53.103  1.00  0.00    -0.206 F 
HETATM   10  H18 UNL     1      19.842  -0.160  52.469  1.00  0.00     0.159 HD
ENDROOT
BRANCH   1  11
HETATM   11  C8  UNL     1      24.691   3.011  50.693  1.00  0.00     0.043 C 
BRANCH  11  12
HETATM   12  C7  UNL     1      25.973   2.246  50.680  1.00  0.00     0.024 C 
BRANCH  12  13
HETATM   13  C6  UNL     1      26.938   2.537  51.764  1.00  0.00     0.123 C 
BRANCH  13  14
HETATM   14  N1  UNL     1      27.233   1.403  52.608  1.00  0.00    -0.381 N 
HETATM   15  C2  UNL     1      28.178   1.380  53.669  1.00  0.00     0.021 C 
HETATM   16  C1  UNL     1      28.996   2.404  53.824  1.00  0.00     0.040 C 
HETATM   17  C3  UNL     1      28.276   0.249  54.602  1.00  0.00     0.223 C 
HETATM   18  O1  UNL     1      27.479  -0.828  54.227  1.00  0.00    -0.384 OA
HETATM   19  C4  UNL     1      27.380  -0.960  52.834  1.00  0.00     0.187 C 
HETATM   20  C5  UNL     1      26.512   0.186  52.355  1.00  0.00     0.149 C 
ENDBRANCH  13  14
ENDBRANCH  12  13
ENDBRANCH  11  12
ENDBRANCH   1  11
BRANCH   6  21
HETATM   21  C14 UNL     1      21.435  -0.577  54.240  1.00  0.00     0.014 C 
HETATM   22  C15 UNL     1      22.400  -1.020  55.032  1.00  0.00     0.083 C 
HETATM   23 CL1  UNL     1      24.135  -1.179  54.956  1.00  0.00    -0.097 Cl
ENDBRANCH   6  21
TORSDOF 5
ENDMDL
MODEL 3
REMARK VINA RESULT:      -7.6      2.166      2.991
REMARK  5 active torsions:
REMARK  status: ('A' for Active; 'I' for Inactive)
REMARK    1  A    between atoms: N1_7  and  C6_8 
REMARK    2  A    between atoms: C6_8  and  C7_9 
REMARK    3  A    between atoms: C7_9  and  C8_10 
REMARK    4  A    between atoms: C8_10  and  C9_11 
REMARK    5  A    between atoms: C13_16  and  C14_17 
ROOT
HETATM    1  C9  UNL     1      22.131  -0.194  52.758  1.00  0.00    -0.020 C 
HETATM    2  C10 UNL     1      22.202   0.329  51.548  1.00  0.00     0.011 C 
HETATM    3  C11 UNL     1      21.408   0.967  50.502  1.00  0.00     0.017 C 
HETATM    4  C12 UNL     1      20.080   1.044  50.373  1.00  0.00     0.084 C 
HETATM    5  N2  UNL     1      18.957   0.591  51.107  1.00  0.00    -0.388 N 
HETATM    6  C13 UNL     1      18.710  -0.480  52.053  1.00  0.00     0.131 C 
HETATM    7  C16 UNL     1      19.536  -0.379  53.270  1.00  0.00     0.044 C 
HETATM    8  C17 UNL     1      20.854  -0.269  53.537  1.00  0.00     0.121 C 
HETATM    9  F1  UNL     1      21.000  -0.220  54.894  1.00  0.00    -0.206 F 
HETATM   10  H18 UNL     1      18.113   1.203  50.887  1.00  0.00     0.159 HD
ENDROOT
BRANCH   1  11
HETATM   11  C8  UNL     1      23.149  -0.787  53.605  1.00  0.00     0.043 C 
BRANCH  11  12
HETATM   12  C7  UNL     1      24.379  -0.004  53.920  1.00  0.00     0.024 C 
BRANCH  12  13
HETATM   13  C6  UNL     1      25.651  -0.496  53.346  1.00  0.00     0.123 C 
BRANCH  13  14
HETATM   14  N1  UNL     1      26.786   0.357  53.615  1.00  0.00    -0.381 N 
HETATM   15  C2  UNL     1      27.230   1.432  52.799  1.00  0.00     0.021 C 
HETATM   16  C1  UNL     1      26.696   1.595  51.604  1.00  0.00     0.040 C 
HETATM   17  C3  UNL     1      28.270   2.370  53.244  1.00  0.00     0.223 C 
HETATM   18  O1  UNL     1      28.864   1.987  54.442  1.00  0.00    -0.384 OA
HETATM   19  C4  UNL     1      28.949   0.593  54.574  1.00  0.00     0.187 C 
HETATM   20  C5  UNL     1      27.537   0.097  54.812  1.00  0.00     0.149 C 
ENDBRANCH  13  14
ENDBRANCH  12  13
ENDBRANCH  11  12
ENDBRANCH   1  11
BRANCH   6  21
HETATM   21  C14 UNL     1      17.272  -0.470  52.416  1.00  0.00     0.014 C 
HETATM   22  C15 UNL     1      16.870  -1.577  53.022  1.00  0.00     0.083 C 
HETATM   23 CL1  UNL     1      17.589  -3.085  53.524  1.00  0.00    -0.097 Cl
ENDBRANCH   6  21
TORSDOF 5
ENDMDL
MODEL 4
REMARK VINA RESULT:      -7.3      4.439      6.786
REMARK  5 active torsions:
REMARK  status: ('A' for Active; 'I' for Inactive)
REMARK    1  A    between atoms: N1_7  and  C6_8 
REMARK    2  A    between atoms: C6_8  and  C7_9 
REMARK    3  A    between atoms: C7_9  and  C8_10 
REMARK    4  A    between atoms: C8_10  and  C9_11 
REMARK    5  A    between atoms: C13_16  and  C14_17 
ROOT
HETATM    1  C9  UNL     1      24.724   3.116  50.402  1.00  0.00    -0.020 C 
HETATM    2  C10 UNL     1      23.588   3.746  50.167  1.00  0.00     0.011 C 
HETATM    3  C11 UNL     1      22.988   4.823  49.386  1.00  0.00     0.017 C 
HETATM    4  C12 UNL     1      23.582   5.798  48.691  1.00  0.00     0.084 C 
HETATM    5  N2  UNL     1      24.916   6.193  48.423  1.00  0.00    -0.388 N 
HETATM    6  C13 UNL     1      26.194   6.011  49.082  1.00  0.00     0.131 C 
HETATM    7  C16 UNL     1      26.579   4.595  49.218  1.00  0.00     0.044 C 
HETATM    8  C17 UNL     1      26.010   3.483  49.728  1.00  0.00     0.121 C 
HETATM    9  F1  UNL     1      26.888   2.450  49.554  1.00  0.00    -0.206 F 
HETATM   10  H18 UNL     1      24.949   6.753  47.517  1.00  0.00     0.159 HD
ENDROOT
BRANCH   1  11
HETATM   11  C8  UNL     1      25.040   2.008  51.283  1.00  0.00     0.043 C 
BRANCH  11  12
HETATM   12  C7  UNL     1      24.646   2.087  52.720  1.00  0.00     0.024 C 
BRANCH  12  13
HETATM   13  C6  UNL     1      25.739   2.253  53.705  1.00  0.00     0.123 C 
BRANCH  13  14
HETATM   14  N1  UNL     1      26.674   1.152  53.736  1.00  0.00    -0.381 N 
HETATM   15  C2  UNL     1      28.090   1.264  53.761  1.00  0.00     0.021 C 
HETATM   16  C1  UNL     1      28.644   2.446  53.573  1.00  0.00     0.040 C 
HETATM   17  C3  UNL     1      28.960   0.102  53.990  1.00  0.00     0.223 C 
HETATM   18  O1  UNL     1      28.260  -1.100  54.005  1.00  0.00    -0.384 OA
HETATM   19  C4  UNL     1      27.168  -1.093  53.125  1.00  0.00     0.187 C 
HETATM   20  C5  UNL     1      26.128  -0.178  53.739  1.00  0.00     0.149 C 
ENDBRANCH  13  14
ENDBRANCH  12  13
ENDBRANCH  11  12
ENDBRANCH   1  11
BRANCH   6  21
HETATM   21  C14 UNL     1      27.231   6.747  48.318  1.00  0.00     0.014 C 
HETATM   22  C15 UNL     1      27.544   7.922  48.843  1.00  0.00     0.083 C 
HETATM   23 CL1  UNL     1      27.057   8.867  50.227  1.00  0.00    -0.097 Cl
ENDBRANCH   6  21
TORSDOF 5
ENDMDL
MODEL 5
REMARK VINA RESULT:      -7.3      4.415      6.818
REMARK  5 active torsions:
REMARK  status: ('A' for Active; 'I' for Inactive)
REMARK    1  A    between atoms: N1_7  and  C6_8 
REMARK    2  A    between atoms: C6_8  and  C7_9 
REMARK    3  A    between atoms: C7_9  and  C8_10 
REMARK    4  A    between atoms: C8_10  and  C9_11 
REMARK    5  A    between atoms: C13_16  and  C14_17 
ROOT
HETATM    1  C9  UNL     1      23.550   1.392  52.911  1.00  0.00    -0.020 C 
HETATM    2  C10 UNL     1      23.179   0.216  53.381  1.00  0.00     0.011 C 
HETATM    3  C11 UNL     1      23.565  -0.850  54.300  1.00  0.00     0.017 C 
HETATM    4  C12 UNL     1      24.737  -1.066  54.904  1.00  0.00     0.084 C 
HETATM    5  N2  UNL     1      26.004  -0.433  54.927  1.00  0.00    -0.388 N 
HETATM    6  C13 UNL     1      26.732   0.442  54.030  1.00  0.00     0.131 C 
HETATM    7  C16 UNL     1      26.037   1.716  53.772  1.00  0.00     0.044 C 
HETATM    8  C17 UNL     1      24.811   2.077  53.340  1.00  0.00     0.121 C 
HETATM    9  F1  UNL     1      24.768   3.442  53.306  1.00  0.00    -0.206 F 
HETATM   10  H18 UNL     1      26.513  -0.682  55.829  1.00  0.00     0.159 HD
ENDROOT
BRANCH   1  11
HETATM   11  C8  UNL     1      22.925   2.278  51.947  1.00  0.00     0.043 C 
BRANCH  11  12
HETATM   12  C7  UNL     1      23.430   2.295  50.542  1.00  0.00     0.024 C 
BRANCH  12  13
HETATM   13  C6  UNL     1      23.038   3.450  49.704  1.00  0.00     0.123 C 
BRANCH  13  14
HETATM   14  N1  UNL     1      23.814   4.644  49.948  1.00  0.00    -0.381 N 
HETATM   15  C2  UNL     1      23.397   5.763  50.717  1.00  0.00     0.021 C 
HETATM   16  C1  UNL     1      22.143   5.835  51.120  1.00  0.00     0.040 C 
HETATM   17  C3  UNL     1      24.320   6.848  51.078  1.00  0.00     0.223 C 
HETATM   18  O1  UNL     1      25.557   6.733  50.452  1.00  0.00    -0.384 OA
HETATM   19  C4  UNL     1      25.456   6.177  49.168  1.00  0.00     0.187 C 
HETATM   20  C5  UNL     1      25.124   4.711  49.361  1.00  0.00     0.149 C 
ENDBRANCH  13  14
ENDBRANCH  12  13
ENDBRANCH  11  12
ENDBRANCH   1  11
BRANCH   6  21
HETATM   21  C14 UNL     1      28.073   0.706  54.608  1.00  0.00     0.014 C 
HETATM   22  C15 UNL     1      28.988  -0.185  54.256  1.00  0.00     0.083 C 
HETATM   23 CL1  UNL     1      29.049  -1.623  53.270  1.00  0.00    -0.097 Cl
ENDBRANCH   6  21
TORSDOF 5
ENDMDL
MODEL 6
REMARK VINA RESULT:      -7.3      4.314      6.583
REMARK  5 active torsions:
REMARK  status: ('A' for Active; 'I' for Inactive)
REMARK    1  A    between atoms: N1_7  and  C6_8 
REMARK    2  A    between atoms: C6_8  and  C7_9 
REMARK    3  A    between atoms: C7_9  and  C8_10 
REMARK    4  A    between atoms: C8_10  and  C9_11 
REMARK    5  A    between atoms: C13_16  and  C14_17 
ROOT
HETATM    1  C9  UNL     1      23.585   1.795  52.904  1.00  0.00    -0.020 C 
HETATM    2  C10 UNL     1      23.230   0.549  53.157  1.00  0.00     0.011 C 
HETATM    3  C11 UNL     1      23.628  -0.656  53.878  1.00  0.00     0.017 C 
HETATM    4  C12 UNL     1      24.800  -0.957  54.444  1.00  0.00     0.084 C 
HETATM    5  N2  UNL     1      26.056  -0.319  54.590  1.00  0.00    -0.388 N 
HETATM    6  C13 UNL     1      26.776   0.711  53.866  1.00  0.00     0.131 C 
HETATM    7  C16 UNL     1      26.061   1.999  53.829  1.00  0.00     0.044 C 
HETATM    8  C17 UNL     1      24.832   2.413  53.457  1.00  0.00     0.121 C 
HETATM    9  F1  UNL     1      24.767   3.762  53.662  1.00  0.00    -0.206 F 
HETATM   10  H18 UNL     1      26.565  -0.715  55.439  1.00  0.00     0.159 HD
ENDROOT
BRANCH   1  11
HETATM   11  C8  UNL     1      22.952   2.827  52.104  1.00  0.00     0.043 C 
BRANCH  11  12
HETATM   12  C7  UNL     1      22.586   2.526  50.689  1.00  0.00     0.024 C 
BRANCH  12  13
HETATM   13  C6  UNL     1      23.700   2.396  49.723  1.00  0.00     0.123 C 
BRANCH  13  14
HETATM   14  N1  UNL     1      24.360   3.644  49.415  1.00  0.00    -0.381 N 
HETATM   15  C2  UNL     1      25.742   3.919  49.591  1.00  0.00     0.021 C 
HETATM   16  C1  UNL     1      26.492   3.052  50.243  1.00  0.00     0.040 C 
HETATM   17  C3  UNL     1      26.366   5.144  49.070  1.00  0.00     0.223 C 
HETATM   18  O1  UNL     1      25.438   6.044  48.556  1.00  0.00    -0.384 OA
HETATM   19  C4  UNL     1      24.221   6.013  49.254  1.00  0.00     0.187 C 
HETATM   20  C5  UNL     1      23.549   4.706  48.884  1.00  0.00     0.149 C 
ENDBRANCH  13  14
ENDBRANCH  12  13
ENDBRANCH  11  12
ENDBRANCH   1  11
BRANCH   6  21
HETATM   21  C14 UNL     1      28.108   0.889  54.493  1.00  0.00     0.014 C 
HETATM   22  C15 UNL     1      28.970  -0.071  54.192  1.00  0.00     0.083 C 
HETATM   23 CL1  UNL     1      28.965  -1.528  53.232  1.00  0.00    -0.097 Cl
ENDBRANCH   6  21
TORSDOF 5
ENDMDL
MODEL 7
REMARK VINA RESULT:      -7.1      4.417      7.677
REMARK  5 active torsions:
REMARK  status: ('A' for Active; 'I' for Inactive)
REMARK    1  A    between atoms: N1_7  and  C6_8 
REMARK    2  A    between atoms: C6_8  and  C7_9 
REMARK    3  A    between atoms: C7_9  and  C8_10 
REMARK    4  A    between atoms: C8_10  and  C9_11 
REMARK    5  A    between atoms: C13_16  and  C14_17 
ROOT
HETATM    1  C9  UNL     1      22.966  -0.008  53.105  1.00  0.00    -0.020 C 
HETATM    2  C10 UNL     1      22.721  -0.885  54.061  1.00  0.00     0.011 C 
HETATM    3  C11 UNL     1      23.239  -1.422  55.316  1.00  0.00     0.017 C 
HETATM    4  C12 UNL     1      24.451  -1.284  55.860  1.00  0.00     0.084 C 
HETATM    5  N2  UNL     1      25.657  -0.627  55.512  1.00  0.00    -0.388 N 
HETATM    6  C13 UNL     1      26.266  -0.185  54.272  1.00  0.00     0.131 C 
HETATM    7  C16 UNL     1      25.449   0.806  53.548  1.00  0.00     0.044 C 
HETATM    8  C17 UNL     1      24.178   0.870  53.100  1.00  0.00     0.121 C 
HETATM    9  F1  UNL     1      24.014   2.080  52.488  1.00  0.00    -0.206 F 
HETATM   10  H18 UNL     1      26.226  -0.429  56.391  1.00  0.00     0.159 HD
ENDROOT
BRANCH   1  11
HETATM   11  C8  UNL     1      22.223   0.332  51.906  1.00  0.00     0.043 C 
BRANCH  11  12
HETATM   12  C7  UNL     1      20.744   0.512  51.993  1.00  0.00     0.024 C 
BRANCH  12  13
HETATM   13  C6  UNL     1      20.257   1.683  52.756  1.00  0.00     0.123 C 
BRANCH  13  14
HETATM   14  N1  UNL     1      19.672   2.717  51.934  1.00  0.00    -0.381 N 
HETATM   15  C2  UNL     1      20.325   3.900  51.495  1.00  0.00     0.021 C 
HETATM   16  C1  UNL     1      21.509   4.203  51.993  1.00  0.00     0.040 C 
HETATM   17  C3  UNL     1      19.723   4.801  50.503  1.00  0.00     0.223 C 
HETATM   18  O1  UNL     1      18.412   4.457  50.189  1.00  0.00    -0.384 OA
HETATM   19  C4  UNL     1      17.724   3.919  51.287  1.00  0.00     0.187 C 
HETATM   20  C5  UNL     1      18.306   2.540  51.523  1.00  0.00     0.149 C 
ENDBRANCH  13  14
ENDBRANCH  12  13
ENDBRANCH  11  12
ENDBRANCH   1  11
BRANCH   6  21
HETATM   21  C14 UNL     1      27.601   0.385  54.576  1.00  0.00     0.014 C 
HETATM   22  C15 UNL     1      28.606  -0.339  54.105  1.00  0.00     0.083 C 
HETATM   23 CL1  UNL     1      28.793  -1.819  53.201  1.00  0.00    -0.097 Cl
ENDBRANCH   6  21
TORSDOF 5
ENDMDL
MODEL 8
REMARK VINA RESULT:      -7.1      3.828      6.657
REMARK  5 active torsions:
REMARK  status: ('A' for Active; 'I' for Inactive)
REMARK    1  A    between atoms: N1_7  and  C6_8 
REMARK    2  A    between atoms: C6_8  and  C7_9 
REMARK    3  A    between atoms: C7_9  and  C8_10 
REMARK    4  A    between atoms: C8_10  and  C9_11 
REMARK    5  A    between atoms: C13_16  and  C14_17 
ROOT
HETATM    1  C9  UNL     1      21.345   0.493  53.406  1.00  0.00    -0.020 C 
HETATM    2  C10 UNL     1      21.428  -0.487  54.286  1.00  0.00     0.011 C 
HETATM    3  C11 UNL     1      22.362  -1.218  55.137  1.00  0.00     0.017 C 
HETATM    4  C12 UNL     1      23.697  -1.229  55.116  1.00  0.00     0.084 C 
HETATM    5  N2  UNL     1      24.710  -0.607  54.344  1.00  0.00    -0.388 N 
HETATM    6  C13 UNL     1      24.786  -0.042  53.011  1.00  0.00     0.131 C 
HETATM    7  C16 UNL     1      23.859   1.086  52.807  1.00  0.00     0.044 C 
HETATM    8  C17 UNL     1      22.533   1.287  52.960  1.00  0.00     0.121 C 
HETATM    9  F1  UNL     1      22.264   2.576  52.595  1.00  0.00    -0.206 F 
HETATM   10  H18 UNL     1      25.615  -0.564  54.906  1.00  0.00     0.159 HD
ENDROOT
BRANCH   1  11
HETATM   11  C8  UNL     1      20.210   1.035  52.682  1.00  0.00     0.043 C 
BRANCH  11  12
HETATM   12  C7  UNL     1      19.721   0.328  51.462  1.00  0.00     0.024 C 
BRANCH  12  13
HETATM   13  C6  UNL     1      19.392   1.168  50.288  1.00  0.00     0.123 C 
BRANCH  13  14
HETATM   14  N1  UNL     1      20.532   1.836  49.705  1.00  0.00    -0.381 N 
HETATM   15  C2  UNL     1      20.780   3.235  49.734  1.00  0.00     0.021 C 
HETATM   16  C1  UNL     1      19.837   4.047  50.171  1.00  0.00     0.040 C 
HETATM   17  C3  UNL     1      22.058   3.809  49.290  1.00  0.00     0.223 C 
HETATM   18  O1  UNL     1      22.895   2.867  48.700  1.00  0.00    -0.384 OA
HETATM   19  C4  UNL     1      22.182   1.887  47.994  1.00  0.00     0.187 C 
HETATM   20  C5  UNL     1      21.504   1.018  49.033  1.00  0.00     0.149 C 
ENDBRANCH  13  14
ENDBRANCH  12  13
ENDBRANCH  11  12
ENDBRANCH   1  11
BRANCH   6  21
HETATM   21  C14 UNL     1      26.180   0.398  52.761  1.00  0.00     0.014 C 
HETATM   22  C15 UNL     1      27.006  -0.595  52.470  1.00  0.00     0.083 C 
HETATM   23 CL1  UNL     1      26.899  -2.328  52.295  1.00  0.00    -0.097 Cl
ENDBRANCH   6  21
TORSDOF 5
ENDMDL
MODEL 9
REMARK VINA RESULT:      -7.1      4.077      8.289
REMARK  5 active torsions:
REMARK  status: ('A' for Active; 'I' for Inactive)
REMARK    1  A    between atoms: N1_7  and  C6_8 
REMARK    2  A    between atoms: C6_8  and  C7_9 
REMARK    3  A    between atoms: C7_9  and  C8_10 
REMARK    4  A    between atoms: C8_10  and  C9_11 
REMARK    5  A    between atoms: C13_16  and  C14_17 
ROOT
HETATM    1  C9  UNL     1      23.895  -0.111  53.785  1.00  0.00    -0.020 C 
HETATM    2  C10 UNL     1      23.935   0.622  52.688  1.00  0.00     0.011 C 
HETATM    3  C11 UNL     1      24.844   1.238  51.726  1.00  0.00     0.017 C 
HETATM    4  C12 UNL     1      26.163   1.431  51.810  1.00  0.00     0.084 C 
HETATM    5  N2  UNL     1      27.175   1.160  52.764  1.00  0.00    -0.388 N 
HETATM    6  C13 UNL     1      27.207   0.957  54.200  1.00  0.00     0.131 C 
HETATM    7  C16 UNL     1      26.403  -0.198  54.639  1.00  0.00     0.044 C 
HETATM    8  C17 UNL     1      25.128  -0.605  54.477  1.00  0.00     0.121 C 
HETATM    9  F1  UNL     1      24.981  -1.788  55.145  1.00  0.00    -0.206 F 
HETATM   10  H18 UNL     1      28.121   1.100  52.278  1.00  0.00     0.159 HD
ENDROOT
BRANCH   1  11
HETATM   11  C8  UNL     1      22.776  -0.605  54.566  1.00  0.00     0.043 C 
BRANCH  11  12
HETATM   12  C7  UNL     1      21.394  -0.166  54.213  1.00  0.00     0.024 C 
BRANCH  12  13
HETATM   13  C6  UNL     1      20.389  -1.231  53.997  1.00  0.00     0.123 C 
BRANCH  13  14
HETATM   14  N1  UNL     1      19.248  -0.813  53.216  1.00  0.00    -0.381 N 
HETATM   15  C2  UNL     1      17.987  -1.465  53.171  1.00  0.00     0.021 C 
HETATM   16  C1  UNL     1      17.854  -2.647  53.741  1.00  0.00     0.040 C 
HETATM   17  C3  UNL     1      16.822  -0.865  52.506  1.00  0.00     0.223 C 
HETATM   18  O1  UNL     1      17.140   0.294  51.805  1.00  0.00    -0.384 OA
HETATM   19  C4  UNL     1      18.428   0.246  51.251  1.00  0.00     0.187 C 
HETATM   20  C5  UNL     1      19.398   0.367  52.409  1.00  0.00     0.149 C 
ENDBRANCH  13  14
ENDBRANCH  12  13
ENDBRANCH  11  12
ENDBRANCH   1  11
BRANCH   6  21
HETATM   21  C14 UNL     1      28.618   0.783  54.623  1.00  0.00     0.014 C 
HETATM   22  C15 UNL     1      29.183  -0.317  54.147  1.00  0.00     0.083 C 
HETATM   23 CL1  UNL     1      28.708  -1.653  53.131  1.00  0.00    -0.097 Cl
ENDBRANCH   6  21
TORSDOF 5
ENDMDL
