MODEL 1
REMARK VINA RESULT:      -7.6      0.000      0.000
REMARK  5 active torsions:
REMARK  status: ('A' for Active; 'I' for Inactive)
REMARK    1  A    between atoms: O1_1  and  N1_2 
REMARK    2  A    between atoms: C4_10  and  C5_11 
REMARK    3  A    between atoms: C5_11  and  C6_12 
REMARK    4  A    between atoms: C13_19  and  C14_20 
REMARK    5  A    between atoms: C15_21  and  C16_22 
ROOT
HETATM    1  N1  UNL     1      21.559   2.305  52.363  1.00  0.00    -0.228 N 
HETATM    2  C1  UNL     1      20.772   1.183  52.601  1.00  0.00     0.195 A 
HETATM    3  N2  UNL     1      21.720   0.748  53.376  1.00  0.00    -0.196 NA
HETATM    4  C2  UNL     1      21.600  -0.396  53.990  1.00  0.00     0.203 A 
HETATM    5  C3  UNL     1      20.433  -1.288  53.883  1.00  0.00     0.113 A 
HETATM    6  S1  UNL     1      19.525  -0.082  52.672  1.00  0.00    -0.058 SA
HETATM    7  O2  UNL     1      22.903  -0.187  54.568  1.00  0.00    -0.193 OA
HETATM    8  N3  UNL     1      23.954  -0.158  53.632  1.00  0.00    -0.135 NA
HETATM    9  C4  UNL     1      24.233   0.989  53.054  1.00  0.00     0.046 C 
HETATM   10  C12 UNL     1      23.882   2.454  52.937  1.00  0.00     0.089 C 
HETATM   11  C13 UNL     1      22.874   2.693  51.823  1.00  0.00     0.145 C 
ENDROOT
BRANCH   9  12
HETATM   12  C5  UNL     1      25.371   0.767  52.091  1.00  0.00     0.095 C 
BRANCH  12  13
HETATM   13  C6  UNL     1      26.702   0.877  52.690  1.00  0.00    -0.053 A 
HETATM   14  C7  UNL     1      27.347   2.057  53.049  1.00  0.00     0.007 A 
HETATM   15  C8  UNL     1      28.610   1.994  53.608  1.00  0.00     0.001 A 
HETATM   16  C9  UNL     1      29.265   0.797  53.827  1.00  0.00     0.000 A 
HETATM   17  C10 UNL     1      28.647  -0.390  53.479  1.00  0.00     0.001 A 
HETATM   18  C11 UNL     1      27.385  -0.299  52.923  1.00  0.00     0.007 A 
ENDBRANCH  12  13
ENDBRANCH   9  12
BRANCH  11  19
HETATM   19  C14 UNL     1      22.838   4.061  51.316  1.00  0.00    -0.002 C 
HETATM   20  C15 UNL     1      23.528   4.290  50.202  1.00  0.00    -0.018 C 
BRANCH  20  21
HETATM   21  C16 UNL     1      24.320   3.307  49.434  1.00  0.00     0.112 C 
HETATM   22 BR1  UNL     1      26.214   3.682  49.725  1.00  0.00    -0.092 Br
ENDBRANCH  20  21
ENDBRANCH  11  19
BRANCH   1  23
HETATM   23  O1  UNL     1      20.686   3.188  52.915  1.00  0.00    -0.285 OA
HETATM   24  H1  UNL     1      20.100   3.602  52.245  1.00  0.00     0.245 HD
ENDBRANCH   1  23
TORSDOF 5
ENDMDL
MODEL 2
REMARK VINA RESULT:      -7.5      3.386      5.317
REMARK  5 active torsions:
REMARK  status: ('A' for Active; 'I' for Inactive)
REMARK    1  A    between atoms: O1_1  and  N1_2 
REMARK    2  A    between atoms: C4_10  and  C5_11 
REMARK    3  A    between atoms: C5_11  and  C6_12 
REMARK    4  A    between atoms: C13_19  and  C14_20 
REMARK    5  A    between atoms: C15_21  and  C16_22 
ROOT
HETATM    1  N1  UNL     1      24.243   1.042  52.303  1.00  0.00    -0.228 N 
HETATM    2  C1  UNL     1      25.277   0.168  52.625  1.00  0.00     0.195 A 
HETATM    3  N2  UNL     1      26.091   1.174  52.516  1.00  0.00    -0.196 NA
HETATM    4  C2  UNL     1      27.369   1.016  52.717  1.00  0.00     0.203 A 
HETATM    5  C3  UNL     1      28.011  -0.260  53.074  1.00  0.00     0.113 A 
HETATM    6  S1  UNL     1      26.323  -1.204  53.055  1.00  0.00    -0.058 SA
HETATM    7  O2  UNL     1      27.555   2.417  52.436  1.00  0.00    -0.193 OA
HETATM    8  N3  UNL     1      27.234   2.790  51.116  1.00  0.00    -0.135 NA
HETATM    9  C4  UNL     1      25.984   3.095  50.849  1.00  0.00     0.046 C 
HETATM   10  C12 UNL     1      24.582   3.234  51.393  1.00  0.00     0.089 C 
HETATM   11  C13 UNL     1      23.794   1.943  51.227  1.00  0.00     0.145 C 
ENDROOT
BRANCH   9  12
HETATM   12  C5  UNL     1      25.886   3.441  49.385  1.00  0.00     0.095 C 
BRANCH  12  13
HETATM   13  C6  UNL     1      26.530   4.703  49.017  1.00  0.00    -0.053 A 
HETATM   14  C7  UNL     1      27.847   4.862  48.600  1.00  0.00     0.007 A 
HETATM   15  C8  UNL     1      28.310   6.127  48.286  1.00  0.00     0.001 A 
HETATM   16  C9  UNL     1      27.509   7.250  48.371  1.00  0.00     0.000 A 
HETATM   17  C10 UNL     1      26.196   7.120  48.784  1.00  0.00     0.001 A 
HETATM   18  C11 UNL     1      25.760   5.846  49.091  1.00  0.00     0.007 A 
ENDBRANCH  12  13
ENDBRANCH   9  12
BRANCH  11  19
HETATM   19  C14 UNL     1      22.343   2.104  51.264  1.00  0.00    -0.002 C 
HETATM   20  C15 UNL     1      21.727   2.118  50.086  1.00  0.00    -0.018 C 
BRANCH  20  21
HETATM   21  C16 UNL     1      22.357   1.988  48.756  1.00  0.00     0.112 C 
HETATM   22 BR1  UNL     1      22.416   3.756  47.928  1.00  0.00    -0.092 Br
ENDBRANCH  20  21
ENDBRANCH  11  19
BRANCH   1  23
HETATM   23  O1  UNL     1      23.597   0.913  53.491  1.00  0.00    -0.285 OA
HETATM   24  H1  UNL     1      22.684   0.569  53.385  1.00  0.00     0.245 HD
ENDBRANCH   1  23
TORSDOF 5
ENDMDL
MODEL 3
REMARK VINA RESULT:      -7.3      3.012      4.441
REMARK  5 active torsions:
REMARK  status: ('A' for Active; 'I' for Inactive)
REMARK    1  A    between atoms: O1_1  and  N1_2 
REMARK    2  A    between atoms: C4_10  and  C5_11 
REMARK    3  A    between atoms: C5_11  and  C6_12 
REMARK    4  A    between atoms: C13_19  and  C14_20 
REMARK    5  A    between atoms: C15_21  and  C16_22 
ROOT
HETATM    1  N1  UNL     1      21.494   2.875  51.159  1.00  0.00    -0.228 N 
HETATM    2  C1  UNL     1      21.827   4.226  51.152  1.00  0.00     0.195 A 
HETATM    3  N2  UNL     1      23.068   3.865  51.012  1.00  0.00    -0.196 NA
HETATM    4  C2  UNL     1      24.012   4.760  50.932  1.00  0.00     0.203 A 
HETATM    5  C3  UNL     1      23.796   6.216  50.986  1.00  0.00     0.113 A 
HETATM    6  S1  UNL     1      21.883   6.003  51.184  1.00  0.00    -0.058 SA
HETATM    7  O2  UNL     1      24.972   3.692  50.813  1.00  0.00    -0.193 OA
HETATM    8  N3  UNL     1      25.069   2.873  51.954  1.00  0.00    -0.135 NA
HETATM    9  C4  UNL     1      24.237   1.861  52.059  1.00  0.00     0.046 C 
HETATM   10  C12 UNL     1      23.091   1.107  51.425  1.00  0.00     0.089 C 
HETATM   11  C13 UNL     1      21.748   1.633  51.910  1.00  0.00     0.145 C 
ENDROOT
BRANCH   9  12
HETATM   12  C5  UNL     1      24.521   1.149  53.357  1.00  0.00     0.095 C 
BRANCH  12  13
HETATM   13  C6  UNL     1      25.825   0.488  53.412  1.00  0.00    -0.053 A 
HETATM   14  C7  UNL     1      26.304  -0.462  52.515  1.00  0.00     0.007 A 
HETATM   15  C8  UNL     1      27.565  -0.996  52.704  1.00  0.00     0.001 A 
HETATM   16  C9  UNL     1      28.377  -0.622  53.758  1.00  0.00     0.000 A 
HETATM   17  C10 UNL     1      27.926   0.320  54.665  1.00  0.00     0.001 A 
HETATM   18  C11 UNL     1      26.663   0.837  54.452  1.00  0.00     0.007 A 
ENDBRANCH  12  13
ENDBRANCH   9  12
BRANCH  11  19
HETATM   19  C14 UNL     1      20.635   0.702  51.753  1.00  0.00    -0.002 C 
HETATM   20  C15 UNL     1      20.223   0.093  52.861  1.00  0.00    -0.018 C 
BRANCH  20  21
HETATM   21  C16 UNL     1      20.775   0.262  54.222  1.00  0.00     0.112 C 
HETATM   22 BR1  UNL     1      21.908  -1.276  54.621  1.00  0.00    -0.092 Br
ENDBRANCH  20  21
ENDBRANCH  11  19
BRANCH   1  23
HETATM   23  O1  UNL     1      20.749   2.925  50.024  1.00  0.00    -0.285 OA
HETATM   24  H1  UNL     1      20.536   2.032  49.677  1.00  0.00     0.245 HD
ENDBRANCH   1  23
TORSDOF 5
ENDMDL
MODEL 4
REMARK VINA RESULT:      -7.1      3.404      5.892
REMARK  5 active torsions:
REMARK  status: ('A' for Active; 'I' for Inactive)
REMARK    1  A    between atoms: O1_1  and  N1_2 
REMARK    2  A    between atoms: C4_10  and  C5_11 
REMARK    3  A    between atoms: C5_11  and  C6_12 
REMARK    4  A    between atoms: C13_19  and  C14_20 
REMARK    5  A    between atoms: C15_21  and  C16_22 
ROOT
HETATM    1  N1  UNL     1      23.837   4.553  51.637  1.00  0.00    -0.228 N 
HETATM    2  C1  UNL     1      23.734   5.259  50.442  1.00  0.00     0.195 A 
HETATM    3  N2  UNL     1      22.518   4.813  50.344  1.00  0.00    -0.196 NA
HETATM    4  C2  UNL     1      21.774   5.140  49.325  1.00  0.00     0.203 A 
HETATM    5  C3  UNL     1      22.202   6.012  48.219  1.00  0.00     0.113 A 
HETATM    6  S1  UNL     1      23.958   6.261  48.991  1.00  0.00    -0.058 SA
HETATM    7  O2  UNL     1      20.713   4.340  49.883  1.00  0.00    -0.193 OA
HETATM    8  N3  UNL     1      21.000   2.964  49.951  1.00  0.00    -0.135 NA
HETATM    9  C4  UNL     1      21.639   2.519  51.011  1.00  0.00     0.046 C 
HETATM   10  C12 UNL     1      22.273   2.875  52.335  1.00  0.00     0.089 C 
HETATM   11  C13 UNL     1      23.755   3.182  52.172  1.00  0.00     0.145 C 
ENDROOT
BRANCH   9  12
HETATM   12  C5  UNL     1      21.844   1.035  50.849  1.00  0.00     0.095 C 
BRANCH  12  13
HETATM   13  C6  UNL     1      21.387   0.233  51.985  1.00  0.00    -0.053 A 
HETATM   14  C7  UNL     1      20.071   0.082  52.408  1.00  0.00     0.007 A 
HETATM   15  C8  UNL     1      19.800  -0.715  53.506  1.00  0.00     0.001 A 
HETATM   16  C9  UNL     1      20.793  -1.373  54.206  1.00  0.00     0.000 A 
HETATM   17  C10 UNL     1      22.110  -1.240  53.807  1.00  0.00     0.001 A 
HETATM   18  C11 UNL     1      22.353  -0.439  52.708  1.00  0.00     0.007 A 
ENDBRANCH  12  13
ENDBRANCH   9  12
BRANCH  11  19
HETATM   19  C14 UNL     1      24.541   3.061  53.396  1.00  0.00    -0.002 C 
HETATM   20  C15 UNL     1      25.458   2.099  53.408  1.00  0.00    -0.018 C 
BRANCH  20  21
HETATM   21  C16 UNL     1      25.758   1.148  52.317  1.00  0.00     0.112 C 
HETATM   22 BR1  UNL     1      26.165  -0.589  53.109  1.00  0.00    -0.092 Br
ENDBRANCH  20  21
ENDBRANCH  11  19
BRANCH   1  23
HETATM   23  O1  UNL     1      24.015   5.652  52.416  1.00  0.00    -0.285 OA
HETATM   24  H1  UNL     1      24.884   5.649  52.872  1.00  0.00     0.245 HD
ENDBRANCH   1  23
TORSDOF 5
ENDMDL
MODEL 5
REMARK VINA RESULT:      -7.0      3.084      5.801
REMARK  5 active torsions:
REMARK  status: ('A' for Active; 'I' for Inactive)
REMARK    1  A    between atoms: O1_1  and  N1_2 
REMARK    2  A    between atoms: C4_10  and  C5_11 
REMARK    3  A    between atoms: C5_11  and  C6_12 
REMARK    4  A    between atoms: C13_19  and  C14_20 
REMARK    5  A    between atoms: C15_21  and  C16_22 
ROOT
HETATM    1  N1  UNL     1      26.320   2.489  51.809  1.00  0.00    -0.228 N 
HETATM    2  C1  UNL     1      27.279   2.093  52.736  1.00  0.00     0.195 A 
HETATM    3  N2  UNL     1      26.581   1.012  52.916  1.00  0.00    -0.196 NA
HETATM    4  C2  UNL     1      26.975   0.103  53.764  1.00  0.00     0.203 A 
HETATM    5  C3  UNL     1      28.200   0.190  54.578  1.00  0.00     0.113 A 
HETATM    6  S1  UNL     1      28.667   1.912  53.833  1.00  0.00    -0.058 SA
HETATM    7  O2  UNL     1      25.808  -0.672  53.429  1.00  0.00    -0.193 OA
HETATM    8  N3  UNL     1      24.588  -0.064  53.783  1.00  0.00    -0.135 NA
HETATM    9  C4  UNL     1      24.047   0.775  52.927  1.00  0.00     0.046 C 
HETATM   10  C12 UNL     1      24.172   1.451  51.582  1.00  0.00     0.089 C 
HETATM   11  C13 UNL     1      24.882   2.791  51.701  1.00  0.00     0.145 C 
ENDROOT
BRANCH   9  12
HETATM   12  C5  UNL     1      22.770   1.303  53.529  1.00  0.00     0.095 C 
BRANCH  12  13
HETATM   13  C6  UNL     1      21.667   0.341  53.551  1.00  0.00    -0.053 A 
HETATM   14  C7  UNL     1      21.616  -0.833  54.295  1.00  0.00     0.007 A 
HETATM   15  C8  UNL     1      20.497  -1.641  54.208  1.00  0.00     0.001 A 
HETATM   16  C9  UNL     1      19.418  -1.327  53.404  1.00  0.00     0.000 A 
HETATM   17  C10 UNL     1      19.443  -0.165  52.654  1.00  0.00     0.001 A 
HETATM   18  C11 UNL     1      20.572   0.623  52.760  1.00  0.00     0.007 A 
ENDBRANCH  12  13
ENDBRANCH   9  12
BRANCH  11  19
HETATM   19  C14 UNL     1      24.632   3.714  50.598  1.00  0.00    -0.002 C 
HETATM   20  C15 UNL     1      23.675   4.616  50.797  1.00  0.00    -0.018 C 
BRANCH  20  21
HETATM   21  C16 UNL     1      22.847   4.774  52.011  1.00  0.00     0.112 C 
HETATM   22 BR1  UNL     1      21.024   4.216  51.588  1.00  0.00    -0.092 Br
ENDBRANCH  20  21
ENDBRANCH  11  19
BRANCH   1  23
HETATM   23  O1  UNL     1      27.168   2.490  50.747  1.00  0.00    -0.285 OA
HETATM   24  H1  UNL     1      28.067   2.176  50.986  1.00  0.00     0.245 HD
ENDBRANCH   1  23
TORSDOF 5
ENDMDL
MODEL 6
REMARK VINA RESULT:      -6.8      2.921      4.789
REMARK  5 active torsions:
REMARK  status: ('A' for Active; 'I' for Inactive)
REMARK    1  A    between atoms: O1_1  and  N1_2 
REMARK    2  A    between atoms: C4_10  and  C5_11 
REMARK    3  A    between atoms: C5_11  and  C6_12 
REMARK    4  A    between atoms: C13_19  and  C14_20 
REMARK    5  A    between atoms: C15_21  and  C16_22 
ROOT
HETATM    1  N1  UNL     1      23.050   1.118  51.500  1.00  0.00    -0.228 N 
HETATM    2  C1  UNL     1      24.208   0.955  52.254  1.00  0.00     0.195 A 
HETATM    3  N2  UNL     1      24.056   2.181  52.655  1.00  0.00    -0.196 NA
HETATM    4  C2  UNL     1      24.909   2.718  53.482  1.00  0.00     0.203 A 
HETATM    5  C3  UNL     1      26.088   2.030  54.034  1.00  0.00     0.113 A 
HETATM    6  S1  UNL     1      25.686   0.401  53.073  1.00  0.00    -0.058 SA
HETATM    7  O2  UNL     1      24.141   3.936  53.435  1.00  0.00    -0.193 OA
HETATM    8  N3  UNL     1      24.117   4.556  52.172  1.00  0.00    -0.135 NA
HETATM    9  C4  UNL     1      23.202   4.168  51.312  1.00  0.00     0.046 C 
HETATM   10  C12 UNL     1      22.035   3.243  51.052  1.00  0.00     0.089 C 
HETATM   11  C13 UNL     1      22.494   1.941  50.412  1.00  0.00     0.145 C 
ENDROOT
BRANCH   9  12
HETATM   12  C5  UNL     1      23.385   4.955  50.040  1.00  0.00     0.095 C 
BRANCH  12  13
HETATM   13  C6  UNL     1      24.767   5.019  49.561  1.00  0.00    -0.053 A 
HETATM   14  C7  UNL     1      25.398   6.134  49.020  1.00  0.00     0.007 A 
HETATM   15  C8  UNL     1      26.716   6.034  48.612  1.00  0.00     0.001 A 
HETATM   16  C9  UNL     1      27.437   4.860  48.719  1.00  0.00     0.000 A 
HETATM   17  C10 UNL     1      26.833   3.736  49.253  1.00  0.00     0.001 A 
HETATM   18  C11 UNL     1      25.517   3.864  49.653  1.00  0.00     0.007 A 
ENDBRANCH  12  13
ENDBRANCH   9  12
BRANCH  11  19
HETATM   19  C14 UNL     1      21.451   1.212  49.697  1.00  0.00    -0.002 C 
HETATM   20  C15 UNL     1      21.501   1.273  48.370  1.00  0.00    -0.018 C 
BRANCH  20  21
HETATM   21  C16 UNL     1      22.496   2.000  47.553  1.00  0.00     0.112 C 
HETATM   22 BR1  UNL     1      21.678   3.653  46.914  1.00  0.00    -0.092 Br
ENDBRANCH  20  21
ENDBRANCH  11  19
BRANCH   1  23
HETATM   23  O1  UNL     1      22.335   0.173  52.164  1.00  0.00    -0.285 OA
HETATM   24  H1  UNL     1      21.388   0.413  52.250  1.00  0.00     0.245 HD
ENDBRANCH   1  23
TORSDOF 5
ENDMDL
MODEL 7
REMARK VINA RESULT:      -6.7      8.800     11.016
REMARK  5 active torsions:
REMARK  status: ('A' for Active; 'I' for Inactive)
REMARK    1  A    between atoms: O1_1  and  N1_2 
REMARK    2  A    between atoms: C4_10  and  C5_11 
REMARK    3  A    between atoms: C5_11  and  C6_12 
REMARK    4  A    between atoms: C13_19  and  C14_20 
REMARK    5  A    between atoms: C15_21  and  C16_22 
ROOT
HETATM    1  N1  UNL     1      29.985  10.862  48.896  1.00  0.00    -0.228 N 
HETATM    2  C1  UNL     1      29.428  12.006  48.335  1.00  0.00     0.195 A 
HETATM    3  N2  UNL     1      28.259  11.492  48.576  1.00  0.00    -0.196 NA
HETATM    4  C2  UNL     1      27.173  12.135  48.253  1.00  0.00     0.203 A 
HETATM    5  C3  UNL     1      27.142  13.459  47.608  1.00  0.00     0.113 A 
HETATM    6  S1  UNL     1      29.073  13.571  47.569  1.00  0.00    -0.058 SA
HETATM    7  O2  UNL     1      26.403  11.036  48.776  1.00  0.00    -0.193 OA
HETATM    8  N3  UNL     1      26.569   9.827  48.074  1.00  0.00    -0.135 NA
HETATM    9  C4  UNL     1      27.569   9.047  48.420  1.00  0.00     0.046 C 
HETATM   10  C12 UNL     1      28.751   8.855  49.340  1.00  0.00     0.089 C 
HETATM   11  C13 UNL     1      30.029   9.400  48.719  1.00  0.00     0.145 C 
ENDROOT
BRANCH   9  12
HETATM   12  C5  UNL     1      27.552   7.834  47.525  1.00  0.00     0.095 C 
BRANCH  12  13
HETATM   13  C6  UNL     1      27.090   6.607  48.177  1.00  0.00    -0.053 A 
HETATM   14  C7  UNL     1      27.856   5.474  48.433  1.00  0.00     0.007 A 
HETATM   15  C8  UNL     1      27.272   4.390  49.060  1.00  0.00     0.001 A 
HETATM   16  C9  UNL     1      25.945   4.385  49.447  1.00  0.00     0.000 A 
HETATM   17  C10 UNL     1      25.161   5.498  49.204  1.00  0.00     0.001 A 
HETATM   18  C11 UNL     1      25.770   6.567  48.576  1.00  0.00     0.007 A 
ENDBRANCH  12  13
ENDBRANCH   9  12
BRANCH  11  19
HETATM   19  C14 UNL     1      31.261   8.852  49.278  1.00  0.00    -0.002 C 
HETATM   20  C15 UNL     1      31.800   7.833  48.615  1.00  0.00    -0.018 C 
BRANCH  20  21
HETATM   21  C16 UNL     1      31.281   7.205  47.382  1.00  0.00     0.112 C 
HETATM   22 BR1  UNL     1      31.397   5.267  47.582  1.00  0.00    -0.092 Br
ENDBRANCH  20  21
ENDBRANCH  11  19
BRANCH   1  23
HETATM   23  O1  UNL     1      30.584  11.510  49.929  1.00  0.00    -0.285 OA
HETATM   24  H1  UNL     1      31.252  12.162  49.625  1.00  0.00     0.245 HD
ENDBRANCH   1  23
TORSDOF 5
ENDMDL
MODEL 8
REMARK VINA RESULT:      -6.5      2.915      4.185
REMARK  5 active torsions:
REMARK  status: ('A' for Active; 'I' for Inactive)
REMARK    1  A    between atoms: O1_1  and  N1_2 
REMARK    2  A    between atoms: C4_10  and  C5_11 
REMARK    3  A    between atoms: C5_11  and  C6_12 
REMARK    4  A    between atoms: C13_19  and  C14_20 
REMARK    5  A    between atoms: C15_21  and  C16_22 
ROOT
HETATM    1  N1  UNL     1      21.140   2.184  52.054  1.00  0.00    -0.228 N 
HETATM    2  C1  UNL     1      21.557   1.017  52.686  1.00  0.00     0.195 A 
HETATM    3  N2  UNL     1      22.749   1.531  52.735  1.00  0.00    -0.196 NA
HETATM    4  C2  UNL     1      23.735   0.868  53.271  1.00  0.00     0.203 A 
HETATM    5  C3  UNL     1      23.620  -0.478  53.857  1.00  0.00     0.113 A 
HETATM    6  S1  UNL     1      21.731  -0.577  53.453  1.00  0.00    -0.058 SA
HETATM    7  O2  UNL     1      24.605   1.976  52.967  1.00  0.00    -0.193 OA
HETATM    8  N3  UNL     1      24.773   2.218  51.590  1.00  0.00    -0.135 NA
HETATM    9  C4  UNL     1      23.894   2.987  50.988  1.00  0.00     0.046 C 
HETATM   10  C12 UNL     1      22.639   3.816  51.138  1.00  0.00     0.089 C 
HETATM   11  C13 UNL     1      21.394   2.991  50.847  1.00  0.00     0.145 C 
ENDROOT
BRANCH   9  12
HETATM   12  C5  UNL     1      24.271   3.084  49.532  1.00  0.00     0.095 C 
BRANCH  12  13
HETATM   13  C6  UNL     1      25.161   4.201  49.210  1.00  0.00    -0.053 A 
HETATM   14  C7  UNL     1      24.772   5.505  48.924  1.00  0.00     0.007 A 
HETATM   15  C8  UNL     1      25.738   6.453  48.638  1.00  0.00     0.001 A 
HETATM   16  C9  UNL     1      27.087   6.153  48.625  1.00  0.00     0.000 A 
HETATM   17  C10 UNL     1      27.501   4.864  48.906  1.00  0.00     0.001 A 
HETATM   18  C11 UNL     1      26.516   3.938  49.188  1.00  0.00     0.007 A 
ENDBRANCH  12  13
ENDBRANCH   9  12
BRANCH  11  19
HETATM   19  C14 UNL     1      20.213   3.773  50.495  1.00  0.00    -0.002 C 
HETATM   20  C15 UNL     1      19.843   3.729  49.219  1.00  0.00    -0.018 C 
BRANCH  20  21
HETATM   21  C16 UNL     1      20.502   2.975  48.132  1.00  0.00     0.112 C 
HETATM   22 BR1  UNL     1      21.613   4.213  47.110  1.00  0.00    -0.092 Br
ENDBRANCH  20  21
ENDBRANCH  11  19
BRANCH   1  23
HETATM   23  O1  UNL     1      20.281   2.557  53.038  1.00  0.00    -0.285 OA
HETATM   24  H1  UNL     1      19.379   2.740  52.696  1.00  0.00     0.245 HD
ENDBRANCH   1  23
TORSDOF 5
ENDMDL
MODEL 9
REMARK VINA RESULT:      -6.4      3.758      5.255
REMARK  5 active torsions:
REMARK  status: ('A' for Active; 'I' for Inactive)
REMARK    1  A    between atoms: O1_1  and  N1_2 
REMARK    2  A    between atoms: C4_10  and  C5_11 
REMARK    3  A    between atoms: C5_11  and  C6_12 
REMARK    4  A    between atoms: C13_19  and  C14_20 
REMARK    5  A    between atoms: C15_21  and  C16_22 
ROOT
HETATM    1  N1  UNL     1      22.192   4.177  48.898  1.00  0.00    -0.228 N 
HETATM    2  C1  UNL     1      21.802   5.501  49.074  1.00  0.00     0.195 A 
HETATM    3  N2  UNL     1      22.788   5.624  49.911  1.00  0.00    -0.196 NA
HETATM    4  C2  UNL     1      23.010   6.760  50.510  1.00  0.00     0.203 A 
HETATM    5  C3  UNL     1      22.207   7.981  50.318  1.00  0.00     0.113 A 
HETATM    6  S1  UNL     1      21.035   7.104  49.053  1.00  0.00    -0.058 SA
HETATM    7  O2  UNL     1      24.126   6.151  51.187  1.00  0.00    -0.193 OA
HETATM    8  N3  UNL     1      23.770   5.111  52.068  1.00  0.00    -0.135 NA
HETATM    9  C4  UNL     1      23.650   3.899  51.573  1.00  0.00     0.046 C 
HETATM   10  C12 UNL     1      23.732   3.034  50.337  1.00  0.00     0.089 C 
HETATM   11  C13 UNL     1      22.378   2.923  49.650  1.00  0.00     0.145 C 
ENDROOT
BRANCH   9  12
HETATM   12  C5  UNL     1      23.251   2.971  52.692  1.00  0.00     0.095 C 
BRANCH  12  13
HETATM   13  C6  UNL     1      24.237   1.932  52.997  1.00  0.00    -0.053 A 
HETATM   14  C7  UNL     1      24.072   0.563  52.812  1.00  0.00     0.007 A 
HETATM   15  C8  UNL     1      25.102  -0.294  53.151  1.00  0.00     0.001 A 
HETATM   16  C9  UNL     1      26.301   0.157  53.670  1.00  0.00     0.000 A 
HETATM   17  C10 UNL     1      26.491   1.513  53.864  1.00  0.00     0.001 A 
HETATM   18  C11 UNL     1      25.446   2.347  53.517  1.00  0.00     0.007 A 
ENDBRANCH  12  13
ENDBRANCH   9  12
BRANCH  11  19
HETATM   19  C14 UNL     1      22.234   1.769  48.769  1.00  0.00    -0.002 C 
HETATM   20  C15 UNL     1      21.130   1.046  48.930  1.00  0.00    -0.018 C 
BRANCH  20  21
HETATM   21  C16 UNL     1      20.046   1.291  49.904  1.00  0.00     0.112 C 
HETATM   22 BR1  UNL     1      20.474   0.340  51.554  1.00  0.00    -0.092 Br
ENDBRANCH  20  21
ENDBRANCH  11  19
BRANCH   1  23
HETATM   23  O1  UNL     1      22.498   4.312  47.581  1.00  0.00    -0.285 OA
HETATM   24  H1  UNL     1      23.124   5.050  47.416  1.00  0.00     0.245 HD
ENDBRANCH   1  23
TORSDOF 5
ENDMDL
