MODEL 1
REMARK VINA RESULT:      -7.9      0.000      0.000
REMARK  9 active torsions:
REMARK  status: ('A' for Active; 'I' for Inactive)
REMARK    1  A    between atoms: C2_2  and  C3_3 
REMARK    2  A    between atoms: C3_3  and  C4_5 
REMARK    3  A    between atoms: C4_5  and  C5_6 
REMARK    4  A    between atoms: C5_6  and  O1_7 
REMARK    5  A    between atoms: O1_7  and  C6_8 
REMARK    6  A    between atoms: C16_21  and  C17_23 
REMARK    7  A    between atoms: C17_23  and  N4_24 
REMARK    8  A    between atoms: N4_24  and  C18_25 
REMARK    9  A    between atoms: C18_25  and  S1_26 
ROOT
HETATM    1  C6  UNL     1      24.522   0.372  53.093  1.00  0.00     0.082 C 
HETATM    2  C7  UNL     1      24.695  -0.545  54.037  1.00  0.00     0.039 C 
HETATM    3  C8  UNL     1      23.888  -1.248  55.046  1.00  0.00     0.020 C 
HETATM    4  C9  UNL     1      22.599  -1.316  55.320  1.00  0.00     0.090 C 
HETATM    5  N1  UNL     1      21.345  -0.811  54.862  1.00  0.00    -0.350 N 
HETATM    6  C10 UNL     1      21.075  -0.183  53.589  1.00  0.00     0.142 A 
HETATM    7  N2  UNL     1      19.790  -0.470  53.317  1.00  0.00    -0.224 NA
HETATM    8  C11 UNL     1      19.332   0.008  52.121  1.00  0.00     0.235 A 
HETATM    9  N3  UNL     1      20.067   0.730  51.217  1.00  0.00    -0.246 NA
HETATM   10  C12 UNL     1      21.356   1.032  51.462  1.00  0.00     0.047 A 
HETATM   11  C13 UNL     1      22.285   1.706  50.570  1.00  0.00     0.071 C 
HETATM   12  C14 UNL     1      21.830   0.559  52.666  1.00  0.00     0.050 A 
HETATM   13  C15 UNL     1      23.233   1.052  52.751  1.00  0.00     0.049 C 
HETATM   14  C16 UNL     1      23.195   2.389  52.459  1.00  0.00     0.125 C 
HETATM   15  F2  UNL     1      22.293   3.386  52.115  1.00  0.00    -0.208 F 
HETATM   16  H12 UNL     1      20.501  -0.876  55.454  1.00  0.00     0.166 HD
ENDROOT
BRANCH   1  17
HETATM   17  O1  UNL     1      25.456   0.899  52.236  1.00  0.00    -0.350 OA
BRANCH  17  18
HETATM   18  C5  UNL     1      26.794   0.553  52.330  1.00  0.00     0.178 C 
BRANCH  18  19
HETATM   19  C4  UNL     1      27.631   1.600  53.033  1.00  0.00     0.068 C 
BRANCH  19  20
HETATM   20  C3  UNL     1      28.347   0.871  54.178  1.00  0.00     0.194 C 
HETATM   21  F1  UNL     1      29.445   1.612  54.495  1.00  0.00    -0.245 F 
BRANCH  20  22
HETATM   22  C2  UNL     1      28.740  -0.480  53.740  1.00  0.00    -0.000 C 
HETATM   23  C1  UNL     1      29.942  -1.055  53.657  1.00  0.00     0.010 C 
ENDBRANCH  20  22
ENDBRANCH  19  20
ENDBRANCH  18  19
ENDBRANCH  17  18
ENDBRANCH   1  17
BRANCH  14  24
HETATM   24  C17 UNL     1      24.322   3.357  52.485  1.00  0.00     0.186 C 
BRANCH  24  25
HETATM   25  N4  UNL     1      24.451   4.267  51.416  1.00  0.00    -0.403 N 
HETATM   26  H19 UNL     1      23.609   4.795  51.152  1.00  0.00     0.154 HD
BRANCH  25  27
HETATM   27  C18 UNL     1      25.422   4.048  50.414  1.00  0.00     0.255 C 
BRANCH  27  28
HETATM   28  S1  UNL     1      25.496   5.586  49.466  1.00  0.00     0.156 S 
HETATM   29  C19 UNL     1      24.062   5.792  48.479  1.00  0.00     0.163 C 
HETATM   30  O2  UNL     1      26.707   5.588  48.605  1.00  0.00    -0.227 OA
HETATM   31  O3  UNL     1      25.516   6.693  50.491  1.00  0.00    -0.227 OA
ENDBRANCH  27  28
ENDBRANCH  25  27
ENDBRANCH  24  25
ENDBRANCH  14  24
TORSDOF 9
ENDMDL
MODEL 2
REMARK VINA RESULT:      -7.6      3.049      5.803
REMARK  9 active torsions:
REMARK  status: ('A' for Active; 'I' for Inactive)
REMARK    1  A    between atoms: C2_2  and  C3_3 
REMARK    2  A    between atoms: C3_3  and  C4_5 
REMARK    3  A    between atoms: C4_5  and  C5_6 
REMARK    4  A    between atoms: C5_6  and  O1_7 
REMARK    5  A    between atoms: O1_7  and  C6_8 
REMARK    6  A    between atoms: C16_21  and  C17_23 
REMARK    7  A    between atoms: C17_23  and  N4_24 
REMARK    8  A    between atoms: N4_24  and  C18_25 
REMARK    9  A    between atoms: C18_25  and  S1_26 
ROOT
HETATM    1  C6  UNL     1      24.094   3.384  49.921  1.00  0.00     0.082 C 
HETATM    2  C7  UNL     1      23.525   3.620  48.746  1.00  0.00     0.039 C 
HETATM    3  C8  UNL     1      22.521   2.999  47.868  1.00  0.00     0.020 C 
HETATM    4  C9  UNL     1      21.682   1.986  47.987  1.00  0.00     0.090 C 
HETATM    5  N1  UNL     1      21.282   0.989  48.928  1.00  0.00    -0.350 N 
HETATM    6  C10 UNL     1      21.551   0.979  50.348  1.00  0.00     0.142 A 
HETATM    7  N2  UNL     1      20.519   0.316  50.898  1.00  0.00    -0.224 NA
HETATM    8  C11 UNL     1      20.556   0.218  52.261  1.00  0.00     0.235 A 
HETATM    9  N3  UNL     1      21.535   0.733  53.071  1.00  0.00    -0.246 NA
HETATM   10  C12 UNL     1      22.580   1.402  52.548  1.00  0.00     0.047 A 
HETATM   11  C13 UNL     1      23.643   2.077  53.274  1.00  0.00     0.071 C 
HETATM   12  C14 UNL     1      22.557   1.504  51.175  1.00  0.00     0.050 A 
HETATM   13  C15 UNL     1      23.815   2.218  50.817  1.00  0.00     0.049 C 
HETATM   14  C16 UNL     1      24.827   1.579  51.482  1.00  0.00     0.125 C 
HETATM   15  F2  UNL     1      25.037   0.521  52.356  1.00  0.00    -0.208 F 
HETATM   16  H12 UNL     1      20.737   0.166  48.625  1.00  0.00     0.166 HD
ENDROOT
BRANCH   1  17
HETATM   17  O1  UNL     1      25.046   4.129  50.572  1.00  0.00    -0.350 OA
BRANCH  17  18
HETATM   18  C5  UNL     1      25.529   5.308  50.030  1.00  0.00     0.178 C 
BRANCH  18  19
HETATM   19  C4  UNL     1      26.640   5.088  49.024  1.00  0.00     0.068 C 
BRANCH  19  20
HETATM   20  C3  UNL     1      27.078   6.486  48.565  1.00  0.00     0.194 C 
HETATM   21  F1  UNL     1      26.152   6.915  47.663  1.00  0.00    -0.245 F 
BRANCH  20  22
HETATM   22  C2  UNL     1      28.413   6.413  47.947  1.00  0.00    -0.000 C 
HETATM   23  C1  UNL     1      29.434   5.581  48.170  1.00  0.00     0.010 C 
ENDBRANCH  20  22
ENDBRANCH  19  20
ENDBRANCH  18  19
ENDBRANCH  17  18
ENDBRANCH   1  17
BRANCH  14  24
HETATM   24  C17 UNL     1      26.285   1.856  51.401  1.00  0.00     0.186 C 
BRANCH  24  25
HETATM   25  N4  UNL     1      26.894   2.569  52.453  1.00  0.00    -0.403 N 
HETATM   26  H19 UNL     1      26.566   3.531  52.613  1.00  0.00     0.154 HD
BRANCH  25  27
HETATM   27  C18 UNL     1      28.214   2.259  52.846  1.00  0.00     0.255 C 
BRANCH  27  28
HETATM   28  S1  UNL     1      28.051   1.066  54.196  1.00  0.00     0.156 S 
HETATM   29  C19 UNL     1      28.317  -0.572  53.630  1.00  0.00     0.163 C 
HETATM   30  O2  UNL     1      26.702   1.178  54.805  1.00  0.00    -0.227 OA
HETATM   31  O3  UNL     1      29.154   1.403  55.170  1.00  0.00    -0.227 OA
ENDBRANCH  27  28
ENDBRANCH  25  27
ENDBRANCH  24  25
ENDBRANCH  14  24
TORSDOF 9
ENDMDL
MODEL 3
REMARK VINA RESULT:      -7.3      3.116      4.695
REMARK  9 active torsions:
REMARK  status: ('A' for Active; 'I' for Inactive)
REMARK    1  A    between atoms: C2_2  and  C3_3 
REMARK    2  A    between atoms: C3_3  and  C4_5 
REMARK    3  A    between atoms: C4_5  and  C5_6 
REMARK    4  A    between atoms: C5_6  and  O1_7 
REMARK    5  A    between atoms: O1_7  and  C6_8 
REMARK    6  A    between atoms: C16_21  and  C17_23 
REMARK    7  A    between atoms: C17_23  and  N4_24 
REMARK    8  A    between atoms: N4_24  and  C18_25 
REMARK    9  A    between atoms: C18_25  and  S1_26 
ROOT
HETATM    1  C6  UNL     1      25.688   2.652  51.397  1.00  0.00     0.082 C 
HETATM    2  C7  UNL     1      26.876   2.202  51.782  1.00  0.00     0.039 C 
HETATM    3  C8  UNL     1      27.432   1.318  52.817  1.00  0.00     0.020 C 
HETATM    4  C9  UNL     1      26.916   0.506  53.720  1.00  0.00     0.090 C 
HETATM    5  N1  UNL     1      25.651   0.042  54.192  1.00  0.00    -0.350 N 
HETATM    6  C10 UNL     1      24.377   0.159  53.520  1.00  0.00     0.142 A 
HETATM    7  N2  UNL     1      23.661  -0.903  53.929  1.00  0.00    -0.224 NA
HETATM    8  C11 UNL     1      22.415  -1.007  53.377  1.00  0.00     0.235 A 
HETATM    9  N3  UNL     1      21.870  -0.136  52.470  1.00  0.00    -0.246 NA
HETATM   10  C12 UNL     1      22.564   0.936  52.041  1.00  0.00     0.047 A 
HETATM   11  C13 UNL     1      22.161   1.893  51.023  1.00  0.00     0.071 C 
HETATM   12  C14 UNL     1      23.820   1.055  52.592  1.00  0.00     0.050 A 
HETATM   13  C15 UNL     1      24.373   2.319  52.030  1.00  0.00     0.049 C 
HETATM   14  C16 UNL     1      23.409   3.275  52.203  1.00  0.00     0.125 C 
HETATM   15  F2  UNL     1      22.126   3.426  52.712  1.00  0.00    -0.208 F 
HETATM   16  H12 UNL     1      25.571  -0.441  55.102  1.00  0.00     0.166 HD
ENDROOT
BRANCH   1  17
HETATM   17  O1  UNL     1      25.394   3.504  50.362  1.00  0.00    -0.350 OA
BRANCH  17  18
HETATM   18  C5  UNL     1      26.392   4.180  49.682  1.00  0.00     0.178 C 
BRANCH  18  19
HETATM   19  C4  UNL     1      25.892   5.418  48.967  1.00  0.00     0.068 C 
BRANCH  19  20
HETATM   20  C3  UNL     1      27.139   6.251  48.640  1.00  0.00     0.194 C 
HETATM   21  F1  UNL     1      26.853   6.969  47.519  1.00  0.00    -0.245 F 
BRANCH  20  22
HETATM   22  C2  UNL     1      28.288   5.358  48.408  1.00  0.00    -0.000 C 
HETATM   23  C1  UNL     1      29.565   5.634  48.130  1.00  0.00     0.010 C 
ENDBRANCH  20  22
ENDBRANCH  19  20
ENDBRANCH  18  19
ENDBRANCH  17  18
ENDBRANCH   1  17
BRANCH  14  24
HETATM   24  C17 UNL     1      23.498   4.723  51.882  1.00  0.00     0.186 C 
BRANCH  24  25
HETATM   25  N4  UNL     1      22.343   5.518  52.030  1.00  0.00    -0.403 N 
HETATM   26  H19 UNL     1      21.571   5.116  52.578  1.00  0.00     0.154 HD
BRANCH  25  27
HETATM   27  C18 UNL     1      22.012   6.475  51.046  1.00  0.00     0.255 C 
BRANCH  27  28
HETATM   28  S1  UNL     1      20.761   5.688  50.005  1.00  0.00     0.156 S 
HETATM   29  C19 UNL     1      21.500   4.785  48.696  1.00  0.00     0.163 C 
HETATM   30  O2  UNL     1      19.844   6.718  49.454  1.00  0.00    -0.227 OA
HETATM   31  O3  UNL     1      20.049   4.703  50.901  1.00  0.00    -0.227 OA
ENDBRANCH  27  28
ENDBRANCH  25  27
ENDBRANCH  24  25
ENDBRANCH  14  24
TORSDOF 9
ENDMDL
MODEL 4
REMARK VINA RESULT:      -7.1      2.965      6.086
REMARK  9 active torsions:
REMARK  status: ('A' for Active; 'I' for Inactive)
REMARK    1  A    between atoms: C2_2  and  C3_3 
REMARK    2  A    between atoms: C3_3  and  C4_5 
REMARK    3  A    between atoms: C4_5  and  C5_6 
REMARK    4  A    between atoms: C5_6  and  O1_7 
REMARK    5  A    between atoms: O1_7  and  C6_8 
REMARK    6  A    between atoms: C16_21  and  C17_23 
REMARK    7  A    between atoms: C17_23  and  N4_24 
REMARK    8  A    between atoms: N4_24  and  C18_25 
REMARK    9  A    between atoms: C18_25  and  S1_26 
ROOT
HETATM    1  C6  UNL     1      24.981   2.749  51.270  1.00  0.00     0.082 C 
HETATM    2  C7  UNL     1      26.163   2.994  50.717  1.00  0.00     0.039 C 
HETATM    3  C8  UNL     1      26.731   3.876  49.686  1.00  0.00     0.020 C 
HETATM    4  C9  UNL     1      26.271   4.890  48.976  1.00  0.00     0.090 C 
HETATM    5  N1  UNL     1      25.084   5.661  48.793  1.00  0.00    -0.350 N 
HETATM    6  C10 UNL     1      23.942   5.717  49.676  1.00  0.00     0.142 A 
HETATM    7  N2  UNL     1      23.426   6.948  49.510  1.00  0.00    -0.224 NA
HETATM    8  C11 UNL     1      22.340   7.230  50.291  1.00  0.00     0.235 A 
HETATM    9  N3  UNL     1      21.766   6.376  51.196  1.00  0.00    -0.246 NA
HETATM   10  C12 UNL     1      22.261   5.138  51.384  1.00  0.00     0.047 A 
HETATM   11  C13 UNL     1      21.822   4.156  52.363  1.00  0.00     0.071 C 
HETATM   12  C14 UNL     1      23.354   4.839  50.601  1.00  0.00     0.050 A 
HETATM   13  C15 UNL     1      23.691   3.425  50.927  1.00  0.00     0.049 C 
HETATM   14  C16 UNL     1      22.522   2.718  50.845  1.00  0.00     0.125 C 
HETATM   15  F2  UNL     1      21.174   2.901  50.571  1.00  0.00    -0.208 F 
HETATM   16  H12 UNL     1      24.970   6.267  47.964  1.00  0.00     0.166 HD
ENDROOT
BRANCH   1  17
HETATM   17  O1  UNL     1      24.673   1.844  52.256  1.00  0.00    -0.350 OA
BRANCH  17  18
HETATM   18  C5  UNL     1      25.533   1.618  53.317  1.00  0.00     0.178 C 
BRANCH  18  19
HETATM   19  C4  UNL     1      25.880   0.155  53.500  1.00  0.00     0.068 C 
BRANCH  19  20
HETATM   20  C3  UNL     1      27.167  -0.078  52.697  1.00  0.00     0.194 C 
HETATM   21  F1  UNL     1      26.830  -0.842  51.621  1.00  0.00    -0.245 F 
BRANCH  20  22
HETATM   22  C2  UNL     1      28.160  -0.770  53.536  1.00  0.00    -0.000 C 
HETATM   23  C1  UNL     1      29.492  -0.824  53.448  1.00  0.00     0.010 C 
ENDBRANCH  20  22
ENDBRANCH  19  20
ENDBRANCH  18  19
ENDBRANCH  17  18
ENDBRANCH   1  17
BRANCH  14  24
HETATM   24  C17 UNL     1      22.334   1.252  51.004  1.00  0.00     0.186 C 
BRANCH  24  25
HETATM   25  N4  UNL     1      22.024   0.749  52.284  1.00  0.00    -0.403 N 
HETATM   26  H19 UNL     1      22.044   1.420  53.064  1.00  0.00     0.154 HD
BRANCH  25  27
HETATM   27  C18 UNL     1      22.268  -0.608  52.588  1.00  0.00     0.255 C 
BRANCH  27  28
HETATM   28  S1  UNL     1      21.626  -0.854  54.261  1.00  0.00     0.156 S 
HETATM   29  C19 UNL     1      22.908  -1.288  55.375  1.00  0.00     0.163 C 
HETATM   30  O2  UNL     1      20.585  -1.913  54.250  1.00  0.00    -0.227 OA
HETATM   31  O3  UNL     1      21.079   0.488  54.686  1.00  0.00    -0.227 OA
ENDBRANCH  27  28
ENDBRANCH  25  27
ENDBRANCH  24  25
ENDBRANCH  14  24
TORSDOF 9
ENDMDL
MODEL 5
REMARK VINA RESULT:      -7.1      3.148      5.221
REMARK  9 active torsions:
REMARK  status: ('A' for Active; 'I' for Inactive)
REMARK    1  A    between atoms: C2_2  and  C3_3 
REMARK    2  A    between atoms: C3_3  and  C4_5 
REMARK    3  A    between atoms: C4_5  and  C5_6 
REMARK    4  A    between atoms: C5_6  and  O1_7 
REMARK    5  A    between atoms: O1_7  and  C6_8 
REMARK    6  A    between atoms: C16_21  and  C17_23 
REMARK    7  A    between atoms: C17_23  and  N4_24 
REMARK    8  A    between atoms: N4_24  and  C18_25 
REMARK    9  A    between atoms: C18_25  and  S1_26 
ROOT
HETATM    1  C6  UNL     1      26.336   2.338  51.804  1.00  0.00     0.082 C 
HETATM    2  C7  UNL     1      27.615   2.220  52.139  1.00  0.00     0.039 C 
HETATM    3  C8  UNL     1      28.412   1.705  53.264  1.00  0.00     0.020 C 
HETATM    4  C9  UNL     1      28.138   1.025  54.361  1.00  0.00     0.090 C 
HETATM    5  N1  UNL     1      27.033   0.441  55.051  1.00  0.00    -0.350 N 
HETATM    6  C10 UNL     1      25.722   0.162  54.510  1.00  0.00     0.142 A 
HETATM    7  N2  UNL     1      25.274  -0.902  55.198  1.00  0.00    -0.224 NA
HETATM    8  C11 UNL     1      24.045  -1.362  54.817  1.00  0.00     0.235 A 
HETATM    9  N3  UNL     1      23.270  -0.830  53.818  1.00  0.00    -0.246 NA
HETATM   10  C12 UNL     1      23.693   0.236  53.112  1.00  0.00     0.047 A 
HETATM   11  C13 UNL     1      23.032   0.853  51.973  1.00  0.00     0.071 C 
HETATM   12  C14 UNL     1      24.929   0.711  53.489  1.00  0.00     0.050 A 
HETATM   13  C15 UNL     1      25.165   1.904  52.629  1.00  0.00     0.049 C 
HETATM   14  C16 UNL     1      24.035   2.672  52.712  1.00  0.00     0.125 C 
HETATM   15  F2  UNL     1      22.786   2.681  53.317  1.00  0.00    -0.208 F 
HETATM   16  H12 UNL     1      27.117   0.162  56.042  1.00  0.00     0.166 HD
ENDROOT
BRANCH   1  17
HETATM   17  O1  UNL     1      25.802   2.872  50.658  1.00  0.00    -0.350 OA
BRANCH  17  18
HETATM   18  C5  UNL     1      26.611   3.407  49.669  1.00  0.00     0.178 C 
BRANCH  18  19
HETATM   19  C4  UNL     1      26.199   4.804  49.255  1.00  0.00     0.068 C 
BRANCH  19  20
HETATM   20  C3  UNL     1      27.361   5.358  48.419  1.00  0.00     0.194 C 
HETATM   21  F1  UNL     1      28.501   4.786  48.899  1.00  0.00    -0.245 F 
BRANCH  20  22
HETATM   22  C2  UNL     1      27.418   6.824  48.553  1.00  0.00    -0.000 C 
HETATM   23  C1  UNL     1      26.566   7.770  48.149  1.00  0.00     0.010 C 
ENDBRANCH  20  22
ENDBRANCH  19  20
ENDBRANCH  18  19
ENDBRANCH  17  18
ENDBRANCH   1  17
BRANCH  14  24
HETATM   24  C17 UNL     1      23.796   4.005  52.100  1.00  0.00     0.186 C 
BRANCH  24  25
HETATM   25  N4  UNL     1      22.575   4.658  52.366  1.00  0.00    -0.403 N 
HETATM   26  H19 UNL     1      22.052   4.345  53.194  1.00  0.00     0.154 HD
BRANCH  25  27
HETATM   27  C18 UNL     1      21.835   5.231  51.308  1.00  0.00     0.255 C 
BRANCH  27  28
HETATM   28  S1  UNL     1      20.465   4.092  51.001  1.00  0.00     0.156 S 
HETATM   29  C19 UNL     1      19.165   4.882  50.131  1.00  0.00     0.163 C 
HETATM   30  O2  UNL     1      19.958   3.556  52.290  1.00  0.00    -0.227 OA
HETATM   31  O3  UNL     1      21.029   3.012  50.110  1.00  0.00    -0.227 OA
ENDBRANCH  27  28
ENDBRANCH  25  27
ENDBRANCH  24  25
ENDBRANCH  14  24
TORSDOF 9
ENDMDL
MODEL 6
REMARK VINA RESULT:      -7.1      3.303      7.256
REMARK  9 active torsions:
REMARK  status: ('A' for Active; 'I' for Inactive)
REMARK    1  A    between atoms: C2_2  and  C3_3 
REMARK    2  A    between atoms: C3_3  and  C4_5 
REMARK    3  A    between atoms: C4_5  and  C5_6 
REMARK    4  A    between atoms: C5_6  and  O1_7 
REMARK    5  A    between atoms: O1_7  and  C6_8 
REMARK    6  A    between atoms: C16_21  and  C17_23 
REMARK    7  A    between atoms: C17_23  and  N4_24 
REMARK    8  A    between atoms: N4_24  and  C18_25 
REMARK    9  A    between atoms: C18_25  and  S1_26 
ROOT
HETATM    1  C6  UNL     1      23.320   4.138  50.740  1.00  0.00     0.082 C 
HETATM    2  C7  UNL     1      22.465   5.150  50.815  1.00  0.00     0.039 C 
HETATM    3  C8  UNL     1      22.504   6.621  50.827  1.00  0.00     0.020 C 
HETATM    4  C9  UNL     1      23.446   7.526  50.637  1.00  0.00     0.090 C 
HETATM    5  N1  UNL     1      24.839   7.625  50.340  1.00  0.00    -0.350 N 
HETATM    6  C10 UNL     1      25.691   6.580  49.819  1.00  0.00     0.142 A 
HETATM    7  N2  UNL     1      26.636   7.217  49.106  1.00  0.00    -0.224 NA
HETATM    8  C11 UNL     1      27.541   6.401  48.487  1.00  0.00     0.235 A 
HETATM    9  N3  UNL     1      27.547   5.031  48.542  1.00  0.00    -0.246 NA
HETATM   10  C12 UNL     1      26.612   4.366  49.247  1.00  0.00     0.047 A 
HETATM   11  C13 UNL     1      26.433   2.925  49.328  1.00  0.00     0.071 C 
HETATM   12  C14 UNL     1      25.696   5.177  49.879  1.00  0.00     0.050 A 
HETATM   13  C15 UNL     1      24.809   4.247  50.633  1.00  0.00     0.049 C 
HETATM   14  C16 UNL     1      25.632   3.402  51.327  1.00  0.00     0.125 C 
HETATM   15  F2  UNL     1      26.981   3.146  51.532  1.00  0.00    -0.208 F 
HETATM   16  H12 UNL     1      25.349   8.510  50.487  1.00  0.00     0.166 HD
ENDROOT
BRANCH   1  17
HETATM   17  O1  UNL     1      23.049   2.792  50.747  1.00  0.00    -0.350 OA
BRANCH  17  18
HETATM   18  C5  UNL     1      21.766   2.319  50.967  1.00  0.00     0.178 C 
BRANCH  18  19
HETATM   19  C4  UNL     1      21.740   0.908  51.518  1.00  0.00     0.068 C 
BRANCH  19  20
HETATM   20  C3  UNL     1      20.844   0.957  52.764  1.00  0.00     0.194 C 
HETATM   21  F1  UNL     1      20.601   2.272  53.025  1.00  0.00    -0.245 F 
BRANCH  20  22
HETATM   22  C2  UNL     1      21.533   0.320  53.899  1.00  0.00    -0.000 C 
HETATM   23  C1  UNL     1      22.620  -0.456  53.936  1.00  0.00     0.010 C 
ENDBRANCH  20  22
ENDBRANCH  19  20
ENDBRANCH  18  19
ENDBRANCH  17  18
ENDBRANCH   1  17
BRANCH  14  24
HETATM   24  C17 UNL     1      25.241   2.340  52.290  1.00  0.00     0.186 C 
BRANCH  24  25
HETATM   25  N4  UNL     1      25.913   2.272  53.527  1.00  0.00    -0.403 N 
HETATM   26  H19 UNL     1      26.636   2.983  53.702  1.00  0.00     0.154 HD
BRANCH  25  27
HETATM   27  C18 UNL     1      26.045   1.035  54.193  1.00  0.00     0.255 C 
BRANCH  27  28
HETATM   28  S1  UNL     1      27.755   0.515  53.918  1.00  0.00     0.156 S 
HETATM   29  C19 UNL     1      28.829   1.897  53.815  1.00  0.00     0.163 C 
HETATM   30  O2  UNL     1      27.843  -0.287  52.670  1.00  0.00    -0.227 OA
HETATM   31  O3  UNL     1      28.140  -0.280  55.142  1.00  0.00    -0.227 OA
ENDBRANCH  27  28
ENDBRANCH  25  27
ENDBRANCH  24  25
ENDBRANCH  14  24
TORSDOF 9
ENDMDL
MODEL 7
REMARK VINA RESULT:      -6.8      3.057      6.530
REMARK  9 active torsions:
REMARK  status: ('A' for Active; 'I' for Inactive)
REMARK    1  A    between atoms: C2_2  and  C3_3 
REMARK    2  A    between atoms: C3_3  and  C4_5 
REMARK    3  A    between atoms: C4_5  and  C5_6 
REMARK    4  A    between atoms: C5_6  and  O1_7 
REMARK    5  A    between atoms: O1_7  and  C6_8 
REMARK    6  A    between atoms: C16_21  and  C17_23 
REMARK    7  A    between atoms: C17_23  and  N4_24 
REMARK    8  A    between atoms: N4_24  and  C18_25 
REMARK    9  A    between atoms: C18_25  and  S1_26 
ROOT
HETATM    1  C6  UNL     1      23.342   2.170  50.195  1.00  0.00     0.082 C 
HETATM    2  C7  UNL     1      24.265   2.819  49.496  1.00  0.00     0.039 C 
HETATM    3  C8  UNL     1      25.630   3.331  49.690  1.00  0.00     0.020 C 
HETATM    4  C9  UNL     1      26.535   3.222  50.645  1.00  0.00     0.090 C 
HETATM    5  N1  UNL     1      26.724   2.614  51.923  1.00  0.00    -0.350 N 
HETATM    6  C10 UNL     1      25.934   1.554  52.504  1.00  0.00     0.142 A 
HETATM    7  N2  UNL     1      26.779   0.880  53.304  1.00  0.00    -0.224 NA
HETATM    8  C11 UNL     1      26.237  -0.203  53.937  1.00  0.00     0.235 A 
HETATM    9  N3  UNL     1      24.941  -0.632  53.813  1.00  0.00    -0.246 NA
HETATM   10  C12 UNL     1      24.072   0.022  53.018  1.00  0.00     0.047 A 
HETATM   11  C13 UNL     1      22.702  -0.358  52.715  1.00  0.00     0.071 C 
HETATM   12  C14 UNL     1      24.605   1.118  52.378  1.00  0.00     0.050 A 
HETATM   13  C15 UNL     1      23.471   1.711  51.613  1.00  0.00     0.049 C 
HETATM   14  C16 UNL     1      22.426   1.818  52.490  1.00  0.00     0.125 C 
HETATM   15  F2  UNL     1      22.103   1.550  53.813  1.00  0.00    -0.208 F 
HETATM   16  H12 UNL     1      27.493   2.917  52.543  1.00  0.00     0.166 HD
ENDROOT
BRANCH   1  17
HETATM   17  O1  UNL     1      22.088   1.781  49.794  1.00  0.00    -0.350 OA
BRANCH  17  18
HETATM   18  C5  UNL     1      21.695   1.875  48.470  1.00  0.00     0.178 C 
BRANCH  18  19
HETATM   19  C4  UNL     1      20.245   2.279  48.307  1.00  0.00     0.068 C 
BRANCH  19  20
HETATM   20  C3  UNL     1      20.231   3.382  47.239  1.00  0.00     0.194 C 
HETATM   21  F1  UNL     1      19.282   3.036  46.325  1.00  0.00    -0.245 F 
BRANCH  20  22
HETATM   22  C2  UNL     1      21.556   3.476  46.603  1.00  0.00    -0.000 C 
HETATM   23  C1  UNL     1      21.907   3.847  45.368  1.00  0.00     0.010 C 
ENDBRANCH  20  22
ENDBRANCH  19  20
ENDBRANCH  18  19
ENDBRANCH  17  18
ENDBRANCH   1  17
BRANCH  14  24
HETATM   24  C17 UNL     1      21.090   2.419  52.241  1.00  0.00     0.186 C 
BRANCH  24  25
HETATM   25  N4  UNL     1      20.960   3.821  52.304  1.00  0.00    -0.403 N 
HETATM   26  H19 UNL     1      20.754   4.227  53.226  1.00  0.00     0.154 HD
BRANCH  25  27
HETATM   27  C18 UNL     1      20.539   4.544  51.166  1.00  0.00     0.255 C 
BRANCH  27  28
HETATM   28  S1  UNL     1      21.854   5.742  50.839  1.00  0.00     0.156 S 
HETATM   29  C19 UNL     1      23.251   5.445  51.856  1.00  0.00     0.163 C 
HETATM   30  O2  UNL     1      21.347   7.120  51.065  1.00  0.00    -0.227 OA
HETATM   31  O3  UNL     1      22.267   5.509  49.406  1.00  0.00    -0.227 OA
ENDBRANCH  27  28
ENDBRANCH  25  27
ENDBRANCH  24  25
ENDBRANCH  14  24
TORSDOF 9
ENDMDL
MODEL 8
REMARK VINA RESULT:      -6.7      2.577      5.913
REMARK  9 active torsions:
REMARK  status: ('A' for Active; 'I' for Inactive)
REMARK    1  A    between atoms: C2_2  and  C3_3 
REMARK    2  A    between atoms: C3_3  and  C4_5 
REMARK    3  A    between atoms: C4_5  and  C5_6 
REMARK    4  A    between atoms: C5_6  and  O1_7 
REMARK    5  A    between atoms: O1_7  and  C6_8 
REMARK    6  A    between atoms: C16_21  and  C17_23 
REMARK    7  A    between atoms: C17_23  and  N4_24 
REMARK    8  A    between atoms: N4_24  and  C18_25 
REMARK    9  A    between atoms: C18_25  and  S1_26 
ROOT
HETATM    1  C6  UNL     1      22.075   0.875  53.423  1.00  0.00     0.082 C 
HETATM    2  C7  UNL     1      21.598  -0.059  54.237  1.00  0.00     0.039 C 
HETATM    3  C8  UNL     1      22.102  -1.207  55.006  1.00  0.00     0.020 C 
HETATM    4  C9  UNL     1      23.301  -1.686  55.280  1.00  0.00     0.090 C 
HETATM    5  N1  UNL     1      24.681  -1.418  55.029  1.00  0.00    -0.350 N 
HETATM    6  C10 UNL     1      25.249  -0.185  54.536  1.00  0.00     0.142 A 
HETATM    7  N2  UNL     1      26.487  -0.132  55.058  1.00  0.00    -0.224 NA
HETATM    8  C11 UNL     1      27.200   0.991  54.741  1.00  0.00     0.235 A 
HETATM    9  N3  UNL     1      26.753   2.025  53.959  1.00  0.00    -0.246 NA
HETATM   10  C12 UNL     1      25.518   2.000  53.424  1.00  0.00     0.047 A 
HETATM   11  C13 UNL     1      24.873   3.051  52.655  1.00  0.00     0.071 C 
HETATM   12  C14 UNL     1      24.790   0.872  53.733  1.00  0.00     0.050 A 
HETATM   13  C15 UNL     1      23.503   1.028  53.000  1.00  0.00     0.049 C 
HETATM   14  C16 UNL     1      23.826   1.355  51.710  1.00  0.00     0.125 C 
HETATM   15  F2  UNL     1      24.935   1.584  50.908  1.00  0.00    -0.208 F 
HETATM   16  H12 UNL     1      25.399  -2.140  55.203  1.00  0.00     0.166 HD
ENDROOT
BRANCH   1  17
HETATM   17  O1  UNL     1      21.393   1.888  52.796  1.00  0.00    -0.350 OA
BRANCH  17  18
HETATM   18  C5  UNL     1      20.014   1.860  52.678  1.00  0.00     0.178 C 
BRANCH  18  19
HETATM   19  C4  UNL     1      19.526   0.880  51.631  1.00  0.00     0.068 C 
BRANCH  19  20
HETATM   20  C3  UNL     1      18.385   0.092  52.289  1.00  0.00     0.194 C 
HETATM   21  F1  UNL     1      18.894  -1.120  52.645  1.00  0.00    -0.245 F 
BRANCH  20  22
HETATM   22  C2  UNL     1      17.276  -0.070  51.333  1.00  0.00    -0.000 C 
HETATM   23  C1  UNL     1      17.266  -0.063  49.997  1.00  0.00     0.010 C 
ENDBRANCH  20  22
ENDBRANCH  19  20
ENDBRANCH  18  19
ENDBRANCH  17  18
ENDBRANCH   1  17
BRANCH  14  24
HETATM   24  C17 UNL     1      22.903   1.542  50.561  1.00  0.00     0.186 C 
BRANCH  24  25
HETATM   25  N4  UNL     1      22.369   2.826  50.329  1.00  0.00    -0.403 N 
HETATM   26  H19 UNL     1      21.347   2.922  50.392  1.00  0.00     0.154 HD
BRANCH  25  27
HETATM   27  C18 UNL     1      23.057   3.739  49.500  1.00  0.00     0.255 C 
BRANCH  27  28
HETATM   28  S1  UNL     1      22.872   5.352  50.296  1.00  0.00     0.156 S 
HETATM   29  C19 UNL     1      21.902   6.435  49.316  1.00  0.00     0.163 C 
HETATM   30  O2  UNL     1      24.210   5.950  50.538  1.00  0.00    -0.227 OA
HETATM   31  O3  UNL     1      22.119   5.088  51.577  1.00  0.00    -0.227 OA
ENDBRANCH  27  28
ENDBRANCH  25  27
ENDBRANCH  24  25
ENDBRANCH  14  24
TORSDOF 9
ENDMDL
MODEL 9
REMARK VINA RESULT:      -6.6      3.367      6.068
REMARK  9 active torsions:
REMARK  status: ('A' for Active; 'I' for Inactive)
REMARK    1  A    between atoms: C2_2  and  C3_3 
REMARK    2  A    between atoms: C3_3  and  C4_5 
REMARK    3  A    between atoms: C4_5  and  C5_6 
REMARK    4  A    between atoms: C5_6  and  O1_7 
REMARK    5  A    between atoms: O1_7  and  C6_8 
REMARK    6  A    between atoms: C16_21  and  C17_23 
REMARK    7  A    between atoms: C17_23  and  N4_24 
REMARK    8  A    between atoms: N4_24  and  C18_25 
REMARK    9  A    between atoms: C18_25  and  S1_26 
ROOT
HETATM    1  C6  UNL     1      22.648   2.492  49.637  1.00  0.00     0.082 C 
HETATM    2  C7  UNL     1      22.748   2.769  48.343  1.00  0.00     0.039 C 
HETATM    3  C8  UNL     1      21.855   2.973  47.192  1.00  0.00     0.020 C 
HETATM    4  C9  UNL     1      20.548   3.080  47.038  1.00  0.00     0.090 C 
HETATM    5  N1  UNL     1      19.342   3.065  47.801  1.00  0.00    -0.350 N 
HETATM    6  C10 UNL     1      19.220   3.214  49.233  1.00  0.00     0.142 A 
HETATM    7  N2  UNL     1      18.017   3.782  49.429  1.00  0.00    -0.224 NA
HETATM    8  C11 UNL     1      17.709   4.048  50.734  1.00  0.00     0.235 A 
HETATM    9  N3  UNL     1      18.514   3.785  51.812  1.00  0.00    -0.246 NA
HETATM   10  C12 UNL     1      19.723   3.217  51.647  1.00  0.00     0.047 A 
HETATM   11  C13 UNL     1      20.721   2.960  52.673  1.00  0.00     0.071 C 
HETATM   12  C14 UNL     1      20.045   2.941  50.337  1.00  0.00     0.050 A 
HETATM   13  C15 UNL     1      21.376   2.274  50.396  1.00  0.00     0.049 C 
HETATM   14  C16 UNL     1      21.277   1.291  51.343  1.00  0.00     0.125 C 
HETATM   15  F2  UNL     1      20.363   0.749  52.235  1.00  0.00    -0.208 F 
HETATM   16  H12 UNL     1      18.426   2.943  47.340  1.00  0.00     0.166 HD
ENDROOT
BRANCH   1  17
HETATM   17  O1  UNL     1      23.656   2.342  50.556  1.00  0.00    -0.350 OA
BRANCH  17  18
HETATM   18  C5  UNL     1      24.860   3.012  50.418  1.00  0.00     0.178 C 
BRANCH  18  19
HETATM   19  C4  UNL     1      24.784   4.464  50.840  1.00  0.00     0.068 C 
BRANCH  19  20
HETATM   20  C3  UNL     1      25.418   5.270  49.697  1.00  0.00     0.194 C 
HETATM   21  F1  UNL     1      24.447   5.461  48.761  1.00  0.00    -0.245 F 
BRANCH  20  22
HETATM   22  C2  UNL     1      26.551   4.521  49.127  1.00  0.00    -0.000 C 
HETATM   23  C1  UNL     1      27.720   4.944  48.638  1.00  0.00     0.010 C 
ENDBRANCH  20  22
ENDBRANCH  19  20
ENDBRANCH  18  19
ENDBRANCH  17  18
ENDBRANCH   1  17
BRANCH  14  24
HETATM   24  C17 UNL     1      22.308   0.292  51.726  1.00  0.00     0.186 C 
BRANCH  24  25
HETATM   25  N4  UNL     1      23.141   0.571  52.828  1.00  0.00    -0.403 N 
HETATM   26  H19 UNL     1      23.783   1.369  52.734  1.00  0.00     0.154 HD
BRANCH  25  27
HETATM   27  C18 UNL     1      23.517  -0.465  53.711  1.00  0.00     0.255 C 
BRANCH  27  28
HETATM   28  S1  UNL     1      25.313  -0.335  53.873  1.00  0.00     0.156 S 
HETATM   29  C19 UNL     1      25.847   1.327  53.707  1.00  0.00     0.163 C 
HETATM   30  O2  UNL     1      25.974  -1.183  52.848  1.00  0.00    -0.227 OA
HETATM   31  O3  UNL     1      25.626  -0.783  55.280  1.00  0.00    -0.227 OA
ENDBRANCH  27  28
ENDBRANCH  25  27
ENDBRANCH  24  25
ENDBRANCH  14  24
TORSDOF 9
ENDMDL
