MODEL 1
REMARK VINA RESULT:      -6.9      0.000      0.000
REMARK  4 active torsions:
REMARK  status: ('A' for Active; 'I' for Inactive)
REMARK    1  A    between atoms: O1_2  and  C2_3 
REMARK    2  A    between atoms: C6_7  and  C7_8 
REMARK       I    between atoms: C7_8  and  N1_10 
REMARK    3  A    between atoms: N1_10  and  C9_12 
REMARK    4  A    between atoms: C13_18  and  O3_19 
ROOT
HETATM    1  C2  UNL     1      24.992   3.415  51.327  1.00  0.00     0.092 C 
HETATM    2  C3  UNL     1      26.086   2.819  50.756  1.00  0.00     0.115 C 
HETATM    3  C4  UNL     1      26.512   1.382  50.970  1.00  0.00     0.013 C 
HETATM    4  C5  UNL     1      26.308   0.967  52.385  1.00  0.00     0.047 C 
HETATM    5  C6  UNL     1      26.268  -0.398  52.832  1.00  0.00     0.041 C 
HETATM    6  C10 UNL     1      25.139  -0.723  53.470  1.00  0.00     0.092 C 
HETATM    7  N3  UNL     1      24.490   0.341  53.838  1.00  0.00    -0.283 NA
HETATM    8  C11 UNL     1      23.936   0.999  52.712  1.00  0.00     0.179 C 
HETATM    9  C12 UNL     1      23.321   2.321  52.791  1.00  0.00     0.030 C 
HETATM   10  C13 UNL     1      23.728   3.456  52.194  1.00  0.00     0.073 C 
ENDROOT
BRANCH   5  11
HETATM   11  C7  UNL     1      27.260  -1.457  52.706  1.00  0.00     0.256 C 
HETATM   12  O2  UNL     1      26.490  -2.030  51.942  1.00  0.00    -0.267 OA
HETATM   13  N1  UNL     1      28.213  -0.871  53.577  1.00  0.00    -0.313 N 
HETATM   14  C8  UNL     1      28.532   0.270  54.449  1.00  0.00     0.160 C 
BRANCH  13  15
HETATM   15  C9  UNL     1      29.110  -1.959  53.392  1.00  0.00     0.202 C 
HETATM   16  N2  UNL     1      28.993  -3.243  53.392  1.00  0.00    -0.295 NA
HETATM   17  H13 UNL     1      29.849  -3.807  53.224  1.00  0.00     0.187 HD
ENDBRANCH  13  15
ENDBRANCH   5  11
BRANCH   1  18
HETATM   18  O1  UNL     1      25.317   4.647  50.669  1.00  0.00    -0.383 OA
HETATM   19  C1  UNL     1      25.068   4.553  49.257  1.00  0.00     0.202 C 
ENDBRANCH   1  18
BRANCH  10  20
HETATM   20  O3  UNL     1      23.152   4.705  52.247  1.00  0.00    -0.358 OA
HETATM   21  C14 UNL     1      21.880   4.963  51.648  1.00  0.00     0.209 C 
ENDBRANCH  10  20
TORSDOF 4
ENDMDL
MODEL 2
REMARK VINA RESULT:      -6.6      2.462      3.027
REMARK  4 active torsions:
REMARK  status: ('A' for Active; 'I' for Inactive)
REMARK    1  A    between atoms: O1_2  and  C2_3 
REMARK    2  A    between atoms: C6_7  and  C7_8 
REMARK       I    between atoms: C7_8  and  N1_10 
REMARK    3  A    between atoms: N1_10  and  C9_12 
REMARK    4  A    between atoms: C13_18  and  O3_19 
ROOT
HETATM    1  C2  UNL     1      22.566   1.483  51.605  1.00  0.00     0.092 C 
HETATM    2  C3  UNL     1      23.835   1.853  51.240  1.00  0.00     0.115 C 
HETATM    3  C4  UNL     1      25.113   1.273  51.805  1.00  0.00     0.013 C 
HETATM    4  C5  UNL     1      24.988   1.023  53.267  1.00  0.00     0.047 C 
HETATM    5  C6  UNL     1      25.861   0.165  54.020  1.00  0.00     0.041 C 
HETATM    6  C10 UNL     1      25.226  -0.817  54.666  1.00  0.00     0.092 C 
HETATM    7  N3  UNL     1      23.952  -0.575  54.744  1.00  0.00    -0.283 NA
HETATM    8  C11 UNL     1      23.343  -0.705  53.471  1.00  0.00     0.179 C 
HETATM    9  C12 UNL     1      21.962  -0.305  53.208  1.00  0.00     0.030 C 
HETATM   10  C13 UNL     1      21.529   0.662  52.379  1.00  0.00     0.073 C 
ENDROOT
BRANCH   5  11
HETATM   11  C7  UNL     1      27.307   0.214  54.192  1.00  0.00     0.256 C 
HETATM   12  O2  UNL     1      27.141   1.149  54.969  1.00  0.00    -0.267 OA
HETATM   13  N1  UNL     1      27.597  -0.857  53.310  1.00  0.00    -0.313 N 
HETATM   14  C8  UNL     1      27.047  -1.875  52.401  1.00  0.00     0.160 C 
BRANCH  13  15
HETATM   15  C9  UNL     1      28.994  -0.722  53.540  1.00  0.00     0.202 C 
HETATM   16  N2  UNL     1      29.816   0.271  53.579  1.00  0.00    -0.295 NA
HETATM   17  H13 UNL     1      30.815   0.064  53.777  1.00  0.00     0.187 HD
ENDBRANCH  13  15
ENDBRANCH   5  11
BRANCH   1  18
HETATM   18  O1  UNL     1      22.020   2.444  50.690  1.00  0.00    -0.383 OA
HETATM   19  C1  UNL     1      22.458   2.177  49.348  1.00  0.00     0.202 C 
ENDBRANCH   1  18
BRANCH  10  20
HETATM   20  O3  UNL     1      20.233   1.041  52.111  1.00  0.00    -0.358 OA
HETATM   21  C14 UNL     1      19.268   0.101  51.634  1.00  0.00     0.209 C 
ENDBRANCH  10  20
TORSDOF 4
ENDMDL
MODEL 3
REMARK VINA RESULT:      -6.4      2.282      3.714
REMARK  4 active torsions:
REMARK  status: ('A' for Active; 'I' for Inactive)
REMARK    1  A    between atoms: O1_2  and  C2_3 
REMARK    2  A    between atoms: C6_7  and  C7_8 
REMARK       I    between atoms: C7_8  and  N1_10 
REMARK    3  A    between atoms: N1_10  and  C9_12 
REMARK    4  A    between atoms: C13_18  and  O3_19 
ROOT
HETATM    1  C2  UNL     1      22.085   0.310  53.942  1.00  0.00     0.092 C 
HETATM    2  C3  UNL     1      22.829  -0.667  54.553  1.00  0.00     0.115 C 
HETATM    3  C4  UNL     1      24.322  -0.856  54.399  1.00  0.00     0.013 C 
HETATM    4  C5  UNL     1      24.753  -0.602  52.996  1.00  0.00     0.047 C 
HETATM    5  C6  UNL     1      26.110  -0.346  52.599  1.00  0.00     0.041 C 
HETATM    6  C10 UNL     1      26.272   0.813  51.954  1.00  0.00     0.092 C 
HETATM    7  N3  UNL     1      25.133   1.277  51.537  1.00  0.00    -0.283 NA
HETATM    8  C11 UNL     1      24.350   1.729  52.628  1.00  0.00     0.179 C 
HETATM    9  C12 UNL     1      22.950   2.121  52.491  1.00  0.00     0.030 C 
HETATM   10  C13 UNL     1      21.874   1.541  53.054  1.00  0.00     0.073 C 
ENDROOT
BRANCH   5  11
HETATM   11  C7  UNL     1      27.310  -1.152  52.780  1.00  0.00     0.256 C 
HETATM   12  O2  UNL     1      26.785  -2.014  52.084  1.00  0.00    -0.267 OA
HETATM   13  N1  UNL     1      27.996  -0.215  53.594  1.00  0.00    -0.313 N 
HETATM   14  C8  UNL     1      27.951   1.106  54.239  1.00  0.00     0.160 C 
BRANCH  13  15
HETATM   15  C9  UNL     1      29.118  -1.081  53.715  1.00  0.00     0.202 C 
HETATM   16  N2  UNL     1      29.326  -2.334  53.492  1.00  0.00    -0.295 NA
HETATM   17  H13 UNL     1      30.278  -2.706  53.676  1.00  0.00     0.187 HD
ENDBRANCH  13  15
ENDBRANCH   5  11
BRANCH   1  18
HETATM   18  O1  UNL     1      20.898  -0.204  54.561  1.00  0.00    -0.383 OA
HETATM   19  C1  UNL     1      20.717  -1.593  54.243  1.00  0.00     0.202 C 
ENDBRANCH   1  18
BRANCH  10  20
HETATM   20  O3  UNL     1      20.551   1.906  52.946  1.00  0.00    -0.358 OA
HETATM   21  C14 UNL     1      20.149   3.010  52.131  1.00  0.00     0.209 C 
ENDBRANCH  10  20
TORSDOF 4
ENDMDL
MODEL 4
REMARK VINA RESULT:      -6.3      2.689      6.643
REMARK  4 active torsions:
REMARK  status: ('A' for Active; 'I' for Inactive)
REMARK    1  A    between atoms: O1_2  and  C2_3 
REMARK    2  A    between atoms: C6_7  and  C7_8 
REMARK       I    between atoms: C7_8  and  N1_10 
REMARK    3  A    between atoms: N1_10  and  C9_12 
REMARK    4  A    between atoms: C13_18  and  O3_19 
ROOT
HETATM    1  C2  UNL     1      25.533  -0.379  54.007  1.00  0.00     0.092 C 
HETATM    2  C3  UNL     1      24.176  -0.399  53.814  1.00  0.00     0.115 C 
HETATM    3  C4  UNL     1      23.437   0.336  52.717  1.00  0.00     0.013 C 
HETATM    4  C5  UNL     1      24.028   1.683  52.481  1.00  0.00     0.047 C 
HETATM    5  C6  UNL     1      23.805   2.470  51.299  1.00  0.00     0.041 C 
HETATM    6  C10 UNL     1      24.928   2.806  50.657  1.00  0.00     0.092 C 
HETATM    7  N3  UNL     1      25.967   2.640  51.418  1.00  0.00    -0.283 NA
HETATM    8  C11 UNL     1      26.222   1.261  51.618  1.00  0.00     0.179 C 
HETATM    9  C12 UNL     1      27.202   0.767  52.582  1.00  0.00     0.030 C 
HETATM   10  C13 UNL     1      26.976   0.020  53.677  1.00  0.00     0.073 C 
ENDROOT
BRANCH   5  11
HETATM   11  C7  UNL     1      22.563   2.957  50.716  1.00  0.00     0.256 C 
HETATM   12  O2  UNL     1      22.591   1.995  49.955  1.00  0.00    -0.267 OA
HETATM   13  N1  UNL     1      22.445   4.097  51.551  1.00  0.00    -0.313 N 
HETATM   14  C8  UNL     1      23.037   4.872  52.652  1.00  0.00     0.160 C 
BRANCH  13  15
HETATM   15  C9  UNL     1      21.238   4.492  50.909  1.00  0.00     0.202 C 
HETATM   16  N2  UNL     1      20.255   3.864  50.358  1.00  0.00    -0.295 NA
HETATM   17  H13 UNL     1      19.483   4.433  49.957  1.00  0.00     0.187 HD
ENDBRANCH  13  15
ENDBRANCH   5  11
BRANCH   1  18
HETATM   18  O1  UNL     1      25.385  -1.235  55.149  1.00  0.00    -0.383 OA
HETATM   19  C1  UNL     1      24.019  -1.259  55.595  1.00  0.00     0.202 C 
ENDBRANCH   1  18
BRANCH  10  20
HETATM   20  O3  UNL     1      27.889  -0.464  54.587  1.00  0.00    -0.358 OA
HETATM   21  C14 UNL     1      29.291  -0.461  54.305  1.00  0.00     0.209 C 
ENDBRANCH  10  20
TORSDOF 4
ENDMDL
MODEL 5
REMARK VINA RESULT:      -6.2      2.929      4.114
REMARK  4 active torsions:
REMARK  status: ('A' for Active; 'I' for Inactive)
REMARK    1  A    between atoms: O1_2  and  C2_3 
REMARK    2  A    between atoms: C6_7  and  C7_8 
REMARK       I    between atoms: C7_8  and  N1_10 
REMARK    3  A    between atoms: N1_10  and  C9_12 
REMARK    4  A    between atoms: C13_18  and  O3_19 
ROOT
HETATM    1  C2  UNL     1      21.726   0.892  51.142  1.00  0.00     0.092 C 
HETATM    2  C3  UNL     1      22.040   0.433  52.396  1.00  0.00     0.115 C 
HETATM    3  C4  UNL     1      23.276   0.811  53.183  1.00  0.00     0.013 C 
HETATM    4  C5  UNL     1      24.467   0.910  52.295  1.00  0.00     0.047 C 
HETATM    5  C6  UNL     1      25.686   1.584  52.648  1.00  0.00     0.041 C 
HETATM    6  C10 UNL     1      26.034   2.551  51.794  1.00  0.00     0.092 C 
HETATM    7  N3  UNL     1      25.387   2.436  50.673  1.00  0.00    -0.283 NA
HETATM    8  C11 UNL     1      24.021   2.768  50.852  1.00  0.00     0.179 C 
HETATM    9  C12 UNL     1      23.010   2.547  49.821  1.00  0.00     0.030 C 
HETATM   10  C13 UNL     1      21.944   1.727  49.876  1.00  0.00     0.073 C 
ENDROOT
BRANCH   5  11
HETATM   11  C7  UNL     1      26.590   1.365  53.770  1.00  0.00     0.256 C 
HETATM   12  O2  UNL     1      26.223   2.445  54.222  1.00  0.00    -0.267 OA
HETATM   13  N1  UNL     1      27.074   0.108  53.327  1.00  0.00    -0.313 N 
HETATM   14  C8  UNL     1      27.008  -0.929  52.285  1.00  0.00     0.160 C 
BRANCH  13  15
HETATM   15  C9  UNL     1      27.929  -0.006  54.458  1.00  0.00     0.202 C 
HETATM   16  N2  UNL     1      28.676   0.812  55.117  1.00  0.00    -0.295 NA
HETATM   17  H13 UNL     1      29.206   0.435  55.929  1.00  0.00     0.187 HD
ENDBRANCH  13  15
ENDBRANCH   5  11
BRANCH   1  18
HETATM   18  O1  UNL     1      20.530   0.100  51.149  1.00  0.00    -0.383 OA
HETATM   19  C1  UNL     1      19.642   0.525  52.196  1.00  0.00     0.202 C 
ENDBRANCH   1  18
BRANCH  10  20
HETATM   20  O3  UNL     1      20.976   1.518  48.920  1.00  0.00    -0.358 OA
HETATM   21  C14 UNL     1      20.661   2.520  47.950  1.00  0.00     0.209 C 
ENDBRANCH  10  20
TORSDOF 4
ENDMDL
MODEL 6
REMARK VINA RESULT:      -6.2      3.444      6.768
REMARK  4 active torsions:
REMARK  status: ('A' for Active; 'I' for Inactive)
REMARK    1  A    between atoms: O1_2  and  C2_3 
REMARK    2  A    between atoms: C6_7  and  C7_8 
REMARK       I    between atoms: C7_8  and  N1_10 
REMARK    3  A    between atoms: N1_10  and  C9_12 
REMARK    4  A    between atoms: C13_18  and  O3_19 
ROOT
HETATM    1  C2  UNL     1      25.063   0.038  53.998  1.00  0.00     0.092 C 
HETATM    2  C3  UNL     1      23.896  -0.540  53.570  1.00  0.00     0.115 C 
HETATM    3  C4  UNL     1      22.856   0.128  52.698  1.00  0.00     0.013 C 
HETATM    4  C5  UNL     1      22.681   1.559  53.072  1.00  0.00     0.047 C 
HETATM    5  C6  UNL     1      22.057   2.545  52.234  1.00  0.00     0.041 C 
HETATM    6  C10 UNL     1      22.838   3.597  51.968  1.00  0.00     0.092 C 
HETATM    7  N3  UNL     1      23.840   3.652  52.792  1.00  0.00    -0.283 NA
HETATM    8  C11 UNL     1      24.762   2.609  52.525  1.00  0.00     0.179 C 
HETATM    9  C12 UNL     1      25.885   2.298  53.405  1.00  0.00     0.030 C 
HETATM   10  C13 UNL     1      26.098   1.165  54.098  1.00  0.00     0.073 C 
ENDROOT
BRANCH   5  11
HETATM   11  C7  UNL     1      20.722   2.575  51.652  1.00  0.00     0.256 C 
HETATM   12  O2  UNL     1      20.302   2.958  52.739  1.00  0.00    -0.267 OA
HETATM   13  N1  UNL     1      21.113   2.137  50.362  1.00  0.00    -0.313 N 
HETATM   14  C8  UNL     1      22.229   1.718  49.499  1.00  0.00     0.160 C 
BRANCH  13  15
HETATM   15  C9  UNL     1      19.771   2.193  49.892  1.00  0.00     0.202 C 
HETATM   16  N2  UNL     1      18.962   1.346  49.353  1.00  0.00    -0.295 NA
HETATM   17  H13 UNL     1      18.009   1.679  49.105  1.00  0.00     0.187 HD
ENDBRANCH  13  15
ENDBRANCH   5  11
BRANCH   1  18
HETATM   18  O1  UNL     1      25.400  -1.161  54.708  1.00  0.00    -0.383 OA
HETATM   19  C1  UNL     1      24.508  -1.366  55.816  1.00  0.00     0.202 C 
ENDBRANCH   1  18
BRANCH  10  20
HETATM   20  O3  UNL     1      27.157   0.851  54.920  1.00  0.00    -0.358 OA
HETATM   21  C14 UNL     1      28.444   0.535  54.386  1.00  0.00     0.209 C 
ENDBRANCH  10  20
TORSDOF 4
ENDMDL
MODEL 7
REMARK VINA RESULT:      -6.1      3.424      6.088
REMARK  4 active torsions:
REMARK  status: ('A' for Active; 'I' for Inactive)
REMARK    1  A    between atoms: O1_2  and  C2_3 
REMARK    2  A    between atoms: C6_7  and  C7_8 
REMARK       I    between atoms: C7_8  and  N1_10 
REMARK    3  A    between atoms: N1_10  and  C9_12 
REMARK    4  A    between atoms: C13_18  and  O3_19 
ROOT
HETATM    1  C2  UNL     1      23.980   0.338  53.306  1.00  0.00     0.092 C 
HETATM    2  C3  UNL     1      25.022   1.220  53.429  1.00  0.00     0.115 C 
HETATM    3  C4  UNL     1      25.196   2.488  52.621  1.00  0.00     0.013 C 
HETATM    4  C5  UNL     1      24.787   2.281  51.204  1.00  0.00     0.047 C 
HETATM    5  C6  UNL     1      24.491   3.343  50.283  1.00  0.00     0.041 C 
HETATM    6  C10 UNL     1      23.267   3.270  49.752  1.00  0.00     0.092 C 
HETATM    7  N3  UNL     1      22.756   2.087  49.922  1.00  0.00    -0.283 NA
HETATM    8  C11 UNL     1      22.428   1.880  51.285  1.00  0.00     0.179 C 
HETATM    9  C12 UNL     1      22.019   0.581  51.813  1.00  0.00     0.030 C 
HETATM   10  C13 UNL     1      22.656  -0.174  52.727  1.00  0.00     0.073 C 
ENDROOT
BRANCH   5  11
HETATM   11  C7  UNL     1      25.315   4.459  49.840  1.00  0.00     0.256 C 
HETATM   12  O2  UNL     1      25.948   3.665  49.152  1.00  0.00    -0.267 OA
HETATM   13  N1  UNL     1      24.645   5.450  50.602  1.00  0.00    -0.313 N 
HETATM   14  C8  UNL     1      23.558   5.732  51.552  1.00  0.00     0.160 C 
BRANCH  13  15
HETATM   15  C9  UNL     1      25.510   6.468  50.114  1.00  0.00     0.202 C 
HETATM   16  N2  UNL     1      26.699   6.487  49.616  1.00  0.00    -0.295 NA
HETATM   17  H13 UNL     1      27.092   7.408  49.337  1.00  0.00     0.187 HD
ENDBRANCH  13  15
ENDBRANCH   5  11
BRANCH   1  18
HETATM   18  O1  UNL     1      24.558  -0.490  54.325  1.00  0.00    -0.383 OA
HETATM   19  C1  UNL     1      25.911  -0.840  53.992  1.00  0.00     0.202 C 
ENDBRANCH   1  18
BRANCH  10  20
HETATM   20  O3  UNL     1      22.278  -1.392  53.245  1.00  0.00    -0.358 OA
HETATM   21  C14 UNL     1      21.234  -1.495  54.216  1.00  0.00     0.209 C 
ENDBRANCH  10  20
TORSDOF 4
ENDMDL
MODEL 8
REMARK VINA RESULT:      -6.1      2.939      6.523
REMARK  4 active torsions:
REMARK  status: ('A' for Active; 'I' for Inactive)
REMARK    1  A    between atoms: O1_2  and  C2_3 
REMARK    2  A    between atoms: C6_7  and  C7_8 
REMARK       I    between atoms: C7_8  and  N1_10 
REMARK    3  A    between atoms: N1_10  and  C9_12 
REMARK    4  A    between atoms: C13_18  and  O3_19 
ROOT
HETATM    1  C2  UNL     1      25.957   1.120  53.819  1.00  0.00     0.092 C 
HETATM    2  C3  UNL     1      25.804   2.482  53.833  1.00  0.00     0.115 C 
HETATM    3  C4  UNL     1      24.543   3.226  53.451  1.00  0.00     0.013 C 
HETATM    4  C5  UNL     1      23.876   2.588  52.283  1.00  0.00     0.047 C 
HETATM    5  C6  UNL     1      22.508   2.817  51.906  1.00  0.00     0.041 C 
HETATM    6  C10 UNL     1      21.772   1.703  51.849  1.00  0.00     0.092 C 
HETATM    7  N3  UNL     1      22.527   0.647  51.814  1.00  0.00    -0.283 NA
HETATM    8  C11 UNL     1      23.156   0.443  53.068  1.00  0.00     0.179 C 
HETATM    9  C12 UNL     1      24.209  -0.547  53.275  1.00  0.00     0.030 C 
HETATM   10  C13 UNL     1      25.490  -0.326  53.620  1.00  0.00     0.073 C 
ENDROOT
BRANCH   5  11
HETATM   11  C7  UNL     1      21.822   4.056  51.569  1.00  0.00     0.256 C 
HETATM   12  O2  UNL     1      21.247   3.982  52.650  1.00  0.00    -0.267 OA
HETATM   13  N1  UNL     1      22.436   4.226  50.302  1.00  0.00    -0.313 N 
HETATM   14  C8  UNL     1      23.392   3.683  49.326  1.00  0.00     0.160 C 
BRANCH  13  15
HETATM   15  C9  UNL     1      21.709   5.426  50.067  1.00  0.00     0.202 C 
HETATM   16  N2  UNL     1      21.377   6.443  50.787  1.00  0.00    -0.295 NA
HETATM   17  H13 UNL     1      20.825   7.198  50.332  1.00  0.00     0.187 HD
ENDBRANCH  13  15
ENDBRANCH   5  11
BRANCH   1  18
HETATM   18  O1  UNL     1      27.315   1.266  54.256  1.00  0.00    -0.383 OA
HETATM   19  C1  UNL     1      28.078   2.029  53.307  1.00  0.00     0.202 C 
ENDBRANCH   1  18
BRANCH  10  20
HETATM   20  O3  UNL     1      26.491  -1.249  53.833  1.00  0.00    -0.358 OA
HETATM   21  C14 UNL     1      27.139  -1.905  52.741  1.00  0.00     0.209 C 
ENDBRANCH  10  20
TORSDOF 4
ENDMDL
MODEL 9
REMARK VINA RESULT:      -6.0      2.916      6.218
REMARK  4 active torsions:
REMARK  status: ('A' for Active; 'I' for Inactive)
REMARK    1  A    between atoms: O1_2  and  C2_3 
REMARK    2  A    between atoms: C6_7  and  C7_8 
REMARK       I    between atoms: C7_8  and  N1_10 
REMARK    3  A    between atoms: N1_10  and  C9_12 
REMARK    4  A    between atoms: C13_18  and  O3_19 
ROOT
HETATM    1  C2  UNL     1      26.038   1.401  52.586  1.00  0.00     0.092 C 
HETATM    2  C3  UNL     1      25.191   2.469  52.442  1.00  0.00     0.115 C 
HETATM    3  C4  UNL     1      23.708   2.458  52.743  1.00  0.00     0.013 C 
HETATM    4  C5  UNL     1      23.085   1.173  52.321  1.00  0.00     0.047 C 
HETATM    5  C6  UNL     1      21.806   0.704  52.780  1.00  0.00     0.041 C 
HETATM    6  C10 UNL     1      21.851  -0.498  53.364  1.00  0.00     0.092 C 
HETATM    7  N3  UNL     1      22.962  -1.110  53.084  1.00  0.00    -0.283 NA
HETATM    8  C11 UNL     1      24.051  -0.491  53.746  1.00  0.00     0.179 C 
HETATM    9  C12 UNL     1      25.444  -0.834  53.473  1.00  0.00     0.030 C 
HETATM   10  C13 UNL     1      26.402  -0.040  52.959  1.00  0.00     0.073 C 
ENDROOT
BRANCH   5  11
HETATM   11  C7  UNL     1      20.491   1.324  52.692  1.00  0.00     0.256 C 
HETATM   12  O2  UNL     1      20.472   1.359  53.918  1.00  0.00    -0.267 OA
HETATM   13  N1  UNL     1      20.422   1.326  51.276  1.00  0.00    -0.313 N 
HETATM   14  C8  UNL     1      21.103   0.979  50.019  1.00  0.00     0.160 C 
BRANCH  13  15
HETATM   15  C9  UNL     1      19.134   1.928  51.299  1.00  0.00     0.202 C 
HETATM   16  N2  UNL     1      18.597   2.899  51.957  1.00  0.00    -0.295 NA
HETATM   17  H13 UNL     1      17.602   3.124  51.760  1.00  0.00     0.187 HD
ENDBRANCH  13  15
ENDBRANCH   5  11
BRANCH   1  18
HETATM   18  O1  UNL     1      27.131   2.200  52.113  1.00  0.00    -0.383 OA
HETATM   19  C1  UNL     1      26.787   2.857  50.882  1.00  0.00     0.202 C 
ENDBRANCH   1  18
BRANCH  10  20
HETATM   20  O3  UNL     1      27.721  -0.345  52.708  1.00  0.00    -0.358 OA
HETATM   21  C14 UNL     1      28.660  -0.514  53.772  1.00  0.00     0.209 C 
ENDBRANCH  10  20
TORSDOF 4
ENDMDL
