MODEL 1
REMARK VINA RESULT:      -7.6      0.000      0.000
REMARK  2 active torsions:
REMARK  status: ('A' for Active; 'I' for Inactive)
REMARK    1  A    between atoms: C2_3  and  C3_4 
REMARK    2  A    between atoms: C4_5  and  C5_6 
ROOT
HETATM    1  C5  UNL     1      24.715   2.063  52.111  1.00  0.00     0.103 C 
HETATM    2 CL1  UNL     1      25.853   2.344  50.742  1.00  0.00    -0.105 Cl
HETATM    3  C6  UNL     1      24.489   3.290  52.909  1.00  0.00     0.008 C 
HETATM    4  C7  UNL     1      23.753   4.380  52.982  1.00  0.00    -0.003 C 
HETATM    5  C8  UNL     1      22.695   5.101  52.348  1.00  0.00     0.007 C 
HETATM    6  C9  UNL     1      21.751   5.443  51.514  1.00  0.00     0.176 C 
HETATM    7  O1  UNL     1      21.793   4.377  50.617  1.00  0.00    -0.379 OA
HETATM    8  C10 UNL     1      22.961   4.031  49.877  1.00  0.00     0.173 C 
HETATM    9  C11 UNL     1      22.931   2.610  49.421  1.00  0.00     0.065 C 
HETATM   10  C12 UNL     1      22.700   1.658  50.535  1.00  0.00    -0.044 A 
HETATM   11  C13 UNL     1      21.536   0.908  50.371  1.00  0.00     0.008 A 
HETATM   12  C14 UNL     1      21.043  -0.043  51.241  1.00  0.00     0.004 A 
HETATM   13  C15 UNL     1      21.790  -0.269  52.391  1.00  0.00     0.043 A 
HETATM   14  C16 UNL     1      22.945   0.479  52.544  1.00  0.00     0.125 A 
HETATM   15  F1  UNL     1      23.599   0.179  53.710  1.00  0.00    -0.205 F 
HETATM   16  C17 UNL     1      23.447   1.446  51.660  1.00  0.00     0.018 A 
ENDROOT
BRANCH   1  17
HETATM   17  C4  UNL     1      25.462   1.094  53.007  1.00  0.00     0.009 C 
HETATM   18  C3  UNL     1      26.602   0.631  52.539  1.00  0.00     0.017 C 
BRANCH  18  19
HETATM   19  C2  UNL     1      27.353  -0.312  53.385  1.00  0.00     0.109 C 
HETATM   20  N1  UNL     1      28.623  -0.174  53.204  1.00  0.00    -0.306 NA
HETATM   21  C1  UNL     1      29.576  -0.991  53.925  1.00  0.00     0.177 C 
ENDBRANCH  18  19
ENDBRANCH   1  17
TORSDOF 2
ENDMDL
MODEL 2
REMARK VINA RESULT:      -7.5      2.559      4.138
REMARK  2 active torsions:
REMARK  status: ('A' for Active; 'I' for Inactive)
REMARK    1  A    between atoms: C2_3  and  C3_4 
REMARK    2  A    between atoms: C4_5  and  C5_6 
ROOT
HETATM    1  C5  UNL     1      24.641   2.934  51.337  1.00  0.00     0.103 C 
HETATM    2 CL1  UNL     1      24.078   3.529  52.943  1.00  0.00    -0.105 Cl
HETATM    3  C6  UNL     1      23.575   2.210  50.607  1.00  0.00     0.008 C 
HETATM    4  C7  UNL     1      22.553   2.377  49.794  1.00  0.00    -0.003 C 
HETATM    5  C8  UNL     1      21.795   3.358  49.082  1.00  0.00     0.007 C 
HETATM    6  C9  UNL     1      21.372   4.500  48.612  1.00  0.00     0.176 C 
HETATM    7  O1  UNL     1      22.272   5.380  49.210  1.00  0.00    -0.379 OA
HETATM    8  C10 UNL     1      22.429   5.491  50.621  1.00  0.00     0.173 C 
HETATM    9  C11 UNL     1      23.756   6.067  50.992  1.00  0.00     0.065 C 
HETATM   10  C12 UNL     1      24.888   5.329  50.382  1.00  0.00    -0.044 A 
HETATM   11  C13 UNL     1      25.662   6.127  49.540  1.00  0.00     0.008 A 
HETATM   12  C14 UNL     1      26.768   5.727  48.818  1.00  0.00     0.004 A 
HETATM   13  C15 UNL     1      27.139   4.395  48.952  1.00  0.00     0.043 A 
HETATM   14  C16 UNL     1      26.367   3.610  49.791  1.00  0.00     0.125 A 
HETATM   15  F1  UNL     1      26.818   2.318  49.845  1.00  0.00    -0.205 F 
HETATM   16  C17 UNL     1      25.242   4.015  50.526  1.00  0.00     0.018 A 
ENDROOT
BRANCH   1  17
HETATM   17  C4  UNL     1      25.703   1.908  51.686  1.00  0.00     0.009 C 
HETATM   18  C3  UNL     1      25.894   1.683  52.969  1.00  0.00     0.017 C 
BRANCH  18  19
HETATM   19  C2  UNL     1      26.918   0.692  53.340  1.00  0.00     0.109 C 
HETATM   20  N1  UNL     1      27.541   1.060  54.408  1.00  0.00    -0.306 NA
HETATM   21  C1  UNL     1      28.598   0.250  54.977  1.00  0.00     0.177 C 
ENDBRANCH  18  19
ENDBRANCH   1  17
TORSDOF 2
ENDMDL
MODEL 3
REMARK VINA RESULT:      -7.5      3.008      5.240
REMARK  2 active torsions:
REMARK  status: ('A' for Active; 'I' for Inactive)
REMARK    1  A    between atoms: C2_3  and  C3_4 
REMARK    2  A    between atoms: C4_5  and  C5_6 
ROOT
HETATM    1  C5  UNL     1      21.867   1.400  52.109  1.00  0.00     0.103 C 
HETATM    2 CL1  UNL     1      20.650   2.595  52.693  1.00  0.00    -0.105 Cl
HETATM    3  C6  UNL     1      21.878   1.291  50.632  1.00  0.00     0.008 C 
HETATM    4  C7  UNL     1      22.391   1.819  49.540  1.00  0.00    -0.003 C 
HETATM    5  C8  UNL     1      23.267   2.838  49.053  1.00  0.00     0.007 C 
HETATM    6  C9  UNL     1      24.098   3.843  49.008  1.00  0.00     0.176 C 
HETATM    7  O1  UNL     1      24.232   4.135  50.364  1.00  0.00    -0.379 OA
HETATM    8  C10 UNL     1      23.130   4.484  51.196  1.00  0.00     0.173 C 
HETATM    9  C11 UNL     1      23.418   4.234  52.639  1.00  0.00     0.065 C 
HETATM   10  C12 UNL     1      23.867   2.844  52.898  1.00  0.00    -0.044 A 
HETATM   11  C13 UNL     1      25.148   2.784  53.445  1.00  0.00     0.008 A 
HETATM   12  C14 UNL     1      25.845   1.640  53.779  1.00  0.00     0.004 A 
HETATM   13  C15 UNL     1      25.196   0.435  53.543  1.00  0.00     0.043 A 
HETATM   14  C16 UNL     1      23.923   0.504  53.002  1.00  0.00     0.125 A 
HETATM   15  F1  UNL     1      23.380  -0.738  52.808  1.00  0.00    -0.205 F 
HETATM   16  C17 UNL     1      23.214   1.666  52.662  1.00  0.00     0.018 A 
ENDROOT
BRANCH   1  17
HETATM   17  C4  UNL     1      21.352   0.075  52.638  1.00  0.00     0.009 C 
HETATM   18  C3  UNL     1      20.203   0.111  53.278  1.00  0.00     0.017 C 
BRANCH  18  19
HETATM   19  C2  UNL     1      19.675  -1.159  53.804  1.00  0.00     0.109 C 
HETATM   20  N1  UNL     1      18.522  -1.421  53.288  1.00  0.00    -0.306 NA
HETATM   21  C1  UNL     1      17.796  -2.621  53.647  1.00  0.00     0.177 C 
ENDBRANCH  18  19
ENDBRANCH   1  17
TORSDOF 2
ENDMDL
MODEL 4
REMARK VINA RESULT:      -7.3      3.100      5.374
REMARK  2 active torsions:
REMARK  status: ('A' for Active; 'I' for Inactive)
REMARK    1  A    between atoms: C2_3  and  C3_4 
REMARK    2  A    between atoms: C4_5  and  C5_6 
ROOT
HETATM    1  C5  UNL     1      24.476   2.953  51.809  1.00  0.00     0.103 C 
HETATM    2 CL1  UNL     1      24.327   3.569  53.497  1.00  0.00    -0.105 Cl
HETATM    3  C6  UNL     1      25.833   2.432  51.524  1.00  0.00     0.008 C 
HETATM    4  C7  UNL     1      26.589   1.357  51.609  1.00  0.00    -0.003 C 
HETATM    5  C8  UNL     1      26.608  -0.009  52.030  1.00  0.00     0.007 C 
HETATM    6  C9  UNL     1      26.242  -1.163  52.516  1.00  0.00     0.176 C 
HETATM    7  O1  UNL     1      24.925  -0.891  52.879  1.00  0.00    -0.379 OA
HETATM    8  C10 UNL     1      24.570   0.133  53.804  1.00  0.00     0.173 C 
HETATM    9  C11 UNL     1      23.155   0.576  53.631  1.00  0.00     0.065 C 
HETATM   10  C12 UNL     1      22.851   0.983  52.238  1.00  0.00    -0.044 A 
HETATM   11  C13 UNL     1      21.850   0.207  51.655  1.00  0.00     0.008 A 
HETATM   12  C14 UNL     1      21.360   0.328  50.371  1.00  0.00     0.004 A 
HETATM   13  C15 UNL     1      21.927   1.328  49.590  1.00  0.00     0.043 A 
HETATM   14  C16 UNL     1      22.919   2.094  50.177  1.00  0.00     0.125 A 
HETATM   15  F1  UNL     1      23.410   3.043  49.319  1.00  0.00    -0.205 F 
HETATM   16  C17 UNL     1      23.418   1.972  51.483  1.00  0.00     0.018 A 
ENDROOT
BRANCH   1  17
HETATM   17  C4  UNL     1      24.300   4.195  50.957  1.00  0.00     0.009 C 
HETATM   18  C3  UNL     1      23.850   5.266  51.575  1.00  0.00     0.017 C 
BRANCH  18  19
HETATM   19  C2  UNL     1      23.668   6.489  50.776  1.00  0.00     0.109 C 
HETATM   20  N1  UNL     1      24.756   7.181  50.748  1.00  0.00    -0.306 NA
HETATM   21  C1  UNL     1      24.831   8.432  50.023  1.00  0.00     0.177 C 
ENDBRANCH  18  19
ENDBRANCH   1  17
TORSDOF 2
ENDMDL
MODEL 5
REMARK VINA RESULT:      -7.0      9.312     10.876
REMARK  2 active torsions:
REMARK  status: ('A' for Active; 'I' for Inactive)
REMARK    1  A    between atoms: C2_3  and  C3_4 
REMARK    2  A    between atoms: C4_5  and  C5_6 
ROOT
HETATM    1  C5  UNL     1      31.021   6.518  47.903  1.00  0.00     0.103 C 
HETATM    2 CL1  UNL     1      31.112   7.675  49.283  1.00  0.00    -0.105 Cl
HETATM    3  C6  UNL     1      30.781   7.206  46.614  1.00  0.00     0.008 C 
HETATM    4  C7  UNL     1      31.387   7.809  45.612  1.00  0.00    -0.003 C 
HETATM    5  C8  UNL     1      32.665   8.199  45.103  1.00  0.00     0.007 C 
HETATM    6  C9  UNL     1      33.951   8.379  44.986  1.00  0.00     0.176 C 
HETATM    7  O1  UNL     1      34.409   7.787  46.161  1.00  0.00    -0.379 OA
HETATM    8  C10 UNL     1      33.999   8.213  47.457  1.00  0.00     0.173 C 
HETATM    9  C11 UNL     1      34.183   7.143  48.482  1.00  0.00     0.065 C 
HETATM   10  C12 UNL     1      33.521   5.871  48.101  1.00  0.00    -0.044 A 
HETATM   11  C13 UNL     1      34.419   4.811  47.980  1.00  0.00     0.008 A 
HETATM   12  C14 UNL     1      34.114   3.513  47.624  1.00  0.00     0.004 A 
HETATM   13  C15 UNL     1      32.775   3.247  47.365  1.00  0.00     0.043 A 
HETATM   14  C16 UNL     1      31.890   4.304  47.490  1.00  0.00     0.125 A 
HETATM   15  F1  UNL     1      30.602   3.932  47.209  1.00  0.00    -0.205 F 
HETATM   16  C17 UNL     1      32.199   5.625  47.851  1.00  0.00     0.018 A 
ENDROOT
BRANCH   1  17
HETATM   17  C4  UNL     1      29.776   5.703  48.199  1.00  0.00     0.009 C 
HETATM   18  C3  UNL     1      28.634   6.357  48.176  1.00  0.00     0.017 C 
BRANCH  18  19
HETATM   19  C2  UNL     1      27.407   5.594  48.459  1.00  0.00     0.109 C 
HETATM   20  N1  UNL     1      27.687   4.486  49.057  1.00  0.00    -0.306 NA
HETATM   21  C1  UNL     1      26.645   3.558  49.444  1.00  0.00     0.177 C 
ENDBRANCH  18  19
ENDBRANCH   1  17
TORSDOF 2
ENDMDL
MODEL 6
REMARK VINA RESULT:      -7.0      3.588      5.890
REMARK  2 active torsions:
REMARK  status: ('A' for Active; 'I' for Inactive)
REMARK    1  A    between atoms: C2_3  and  C3_4 
REMARK    2  A    between atoms: C4_5  and  C5_6 
ROOT
HETATM    1  C5  UNL     1      24.060   4.050  50.188  1.00  0.00     0.103 C 
HETATM    2 CL1  UNL     1      23.783   5.118  51.613  1.00  0.00    -0.105 Cl
HETATM    3  C6  UNL     1      25.484   3.673  50.042  1.00  0.00     0.008 C 
HETATM    4  C7  UNL     1      26.389   2.798  50.431  1.00  0.00    -0.003 C 
HETATM    5  C8  UNL     1      26.600   1.642  51.245  1.00  0.00     0.007 C 
HETATM    6  C9  UNL     1      26.398   0.648  52.066  1.00  0.00     0.176 C 
HETATM    7  O1  UNL     1      25.047   0.820  52.361  1.00  0.00    -0.379 OA
HETATM    8  C10 UNL     1      24.524   2.012  52.940  1.00  0.00     0.173 C 
HETATM    9  C11 UNL     1      23.063   2.168  52.675  1.00  0.00     0.065 C 
HETATM   10  C12 UNL     1      22.734   2.084  51.231  1.00  0.00    -0.044 A 
HETATM   11  C13 UNL     1      21.872   1.029  50.935  1.00  0.00     0.008 A 
HETATM   12  C14 UNL     1      21.398   0.682  49.686  1.00  0.00     0.004 A 
HETATM   13  C15 UNL     1      21.829   1.471  48.626  1.00  0.00     0.043 A 
HETATM   14  C16 UNL     1      22.683   2.517  48.929  1.00  0.00     0.125 A 
HETATM   15  F1  UNL     1      23.047   3.223  47.813  1.00  0.00    -0.205 F 
HETATM   16  C17 UNL     1      23.166   2.870  50.199  1.00  0.00     0.018 A 
ENDROOT
BRANCH   1  17
HETATM   17  C4  UNL     1      23.721   4.935  49.004  1.00  0.00     0.009 C 
HETATM   18  C3  UNL     1      24.401   6.057  48.903  1.00  0.00     0.017 C 
BRANCH  18  19
HETATM   19  C2  UNL     1      24.096   6.938  47.764  1.00  0.00     0.109 C 
HETATM   20  N1  UNL     1      23.055   6.517  47.128  1.00  0.00    -0.306 NA
HETATM   21  C1  UNL     1      22.552   7.218  45.966  1.00  0.00     0.177 C 
ENDBRANCH  18  19
ENDBRANCH   1  17
TORSDOF 2
ENDMDL
MODEL 7
REMARK VINA RESULT:      -6.9      3.253      5.061
REMARK  2 active torsions:
REMARK  status: ('A' for Active; 'I' for Inactive)
REMARK    1  A    between atoms: C2_3  and  C3_4 
REMARK    2  A    between atoms: C4_5  and  C5_6 
ROOT
HETATM    1  C5  UNL     1      23.266   3.571  51.599  1.00  0.00     0.103 C 
HETATM    2 CL1  UNL     1      22.113   4.443  52.675  1.00  0.00    -0.105 Cl
HETATM    3  C6  UNL     1      24.251   2.773  52.366  1.00  0.00     0.008 C 
HETATM    4  C7  UNL     1      24.444   1.602  52.936  1.00  0.00    -0.003 C 
HETATM    5  C8  UNL     1      23.841   0.332  53.195  1.00  0.00     0.007 C 
HETATM    6  C9  UNL     1      22.985  -0.652  53.228  1.00  0.00     0.176 C 
HETATM    7  O1  UNL     1      21.913  -0.092  52.535  1.00  0.00    -0.379 OA
HETATM    8  C10 UNL     1      21.259   1.103  52.950  1.00  0.00     0.173 C 
HETATM    9  C11 UNL     1      20.542   1.768  51.822  1.00  0.00     0.065 C 
HETATM   10  C12 UNL     1      21.422   2.016  50.654  1.00  0.00    -0.044 A 
HETATM   11  C13 UNL     1      20.988   1.360  49.503  1.00  0.00     0.008 A 
HETATM   12  C14 UNL     1      21.601   1.381  48.266  1.00  0.00     0.004 A 
HETATM   13  C15 UNL     1      22.764   2.134  48.170  1.00  0.00     0.043 A 
HETATM   14  C16 UNL     1      23.187   2.783  49.318  1.00  0.00     0.125 A 
HETATM   15  F1  UNL     1      24.342   3.490  49.112  1.00  0.00    -0.205 F 
HETATM   16  C17 UNL     1      22.565   2.763  50.576  1.00  0.00     0.018 A 
ENDROOT
BRANCH   1  17
HETATM   17  C4  UNL     1      24.041   4.686  50.923  1.00  0.00     0.009 C 
HETATM   18  C3  UNL     1      23.888   5.891  51.431  1.00  0.00     0.017 C 
BRANCH  18  19
HETATM   19  C2  UNL     1      24.628   6.995  50.799  1.00  0.00     0.109 C 
HETATM   20  N1  UNL     1      25.607   6.542  50.091  1.00  0.00    -0.306 NA
HETATM   21  C1  UNL     1      26.485   7.436  49.366  1.00  0.00     0.177 C 
ENDBRANCH  18  19
ENDBRANCH   1  17
TORSDOF 2
ENDMDL
MODEL 8
REMARK VINA RESULT:      -6.6     10.267     11.805
REMARK  2 active torsions:
REMARK  status: ('A' for Active; 'I' for Inactive)
REMARK    1  A    between atoms: C2_3  and  C3_4 
REMARK    2  A    between atoms: C4_5  and  C5_6 
ROOT
HETATM    1  C5  UNL     1      31.104   7.861  47.492  1.00  0.00     0.103 C 
HETATM    2 CL1  UNL     1      31.061   7.421  45.745  1.00  0.00    -0.105 Cl
HETATM    3  C6  UNL     1      32.053   7.019  48.256  1.00  0.00     0.008 C 
HETATM    4  C7  UNL     1      33.316   6.912  48.614  1.00  0.00    -0.003 C 
HETATM    5  C8  UNL     1      34.601   7.527  48.504  1.00  0.00     0.007 C 
HETATM    6  C9  UNL     1      35.559   8.352  48.180  1.00  0.00     0.176 C 
HETATM    7  O1  UNL     1      34.861   9.275  47.405  1.00  0.00    -0.379 OA
HETATM    8  C10 UNL     1      34.142   8.917  46.228  1.00  0.00     0.173 C 
HETATM    9  C11 UNL     1      33.086   9.918  45.892  1.00  0.00     0.065 C 
HETATM   10  C12 UNL     1      32.165  10.177  47.026  1.00  0.00    -0.044 A 
HETATM   11  C13 UNL     1      32.183  11.508  47.441  1.00  0.00     0.008 A 
HETATM   12  C14 UNL     1      31.452  12.054  48.477  1.00  0.00     0.004 A 
HETATM   13  C15 UNL     1      30.620  11.182  49.167  1.00  0.00     0.043 A 
HETATM   14  C16 UNL     1      30.607   9.863  48.747  1.00  0.00     0.125 A 
HETATM   15  F1  UNL     1      29.758   9.093  49.497  1.00  0.00    -0.205 F 
HETATM   16  C17 UNL     1      31.349   9.306  47.694  1.00  0.00     0.018 A 
ENDROOT
BRANCH   1  17
HETATM   17  C4  UNL     1      29.714   7.507  47.986  1.00  0.00     0.009 C 
HETATM   18  C3  UNL     1      29.360   6.245  47.870  1.00  0.00     0.017 C 
BRANCH  18  19
HETATM   19  C2  UNL     1      28.017   5.868  48.341  1.00  0.00     0.109 C 
HETATM   20  N1  UNL     1      28.004   4.645  48.750  1.00  0.00    -0.306 NA
HETATM   21  C1  UNL     1      26.793   4.039  49.264  1.00  0.00     0.177 C 
ENDBRANCH  18  19
ENDBRANCH   1  17
TORSDOF 2
ENDMDL
MODEL 9
REMARK VINA RESULT:      -6.3      8.610      9.492
REMARK  2 active torsions:
REMARK  status: ('A' for Active; 'I' for Inactive)
REMARK    1  A    between atoms: C2_3  and  C3_4 
REMARK    2  A    between atoms: C4_5  and  C5_6 
ROOT
HETATM    1  C5  UNL     1      30.624   7.366  46.957  1.00  0.00     0.103 C 
HETATM    2 CL1  UNL     1      30.878   7.903  45.255  1.00  0.00    -0.105 Cl
HETATM    3  C6  UNL     1      31.370   8.205  47.924  1.00  0.00     0.008 C 
HETATM    4  C7  UNL     1      31.300   9.312  48.633  1.00  0.00    -0.003 C 
HETATM    5  C8  UNL     1      30.468  10.434  48.941  1.00  0.00     0.007 C 
HETATM    6  C9  UNL     1      29.464  11.267  48.958  1.00  0.00     0.176 C 
HETATM    7  O1  UNL     1      28.595  10.651  48.060  1.00  0.00    -0.379 OA
HETATM    8  C10 UNL     1      28.944  10.375  46.706  1.00  0.00     0.173 C 
HETATM    9  C11 UNL     1      28.105   9.286  46.125  1.00  0.00     0.065 C 
HETATM   10  C12 UNL     1      28.126   8.051  46.946  1.00  0.00    -0.044 A 
HETATM   11  C13 UNL     1      26.862   7.694  47.416  1.00  0.00     0.008 A 
HETATM   12  C14 UNL     1      26.559   6.611  48.216  1.00  0.00     0.004 A 
HETATM   13  C15 UNL     1      27.627   5.802  48.582  1.00  0.00     0.043 A 
HETATM   14  C16 UNL     1      28.878   6.162  48.110  1.00  0.00     0.125 A 
HETATM   15  F1  UNL     1      29.855   5.300  48.534  1.00  0.00    -0.205 F 
HETATM   16  C17 UNL     1      29.187   7.263  47.297  1.00  0.00     0.018 A 
ENDROOT
BRANCH   1  17
HETATM   17  C4  UNL     1      31.257   5.989  46.998  1.00  0.00     0.009 C 
HETATM   18  C3  UNL     1      32.489   5.901  46.542  1.00  0.00     0.017 C 
BRANCH  18  19
HETATM   19  C2  UNL     1      33.132   4.577  46.568  1.00  0.00     0.109 C 
HETATM   20  N1  UNL     1      33.918   4.473  47.587  1.00  0.00    -0.306 NA
HETATM   21  C1  UNL     1      34.667   3.259  47.834  1.00  0.00     0.177 C 
ENDBRANCH  18  19
ENDBRANCH   1  17
TORSDOF 2
ENDMDL
