MODEL 1
REMARK VINA RESULT:      -9.3      0.000      0.000
REMARK  6 active torsions:
REMARK  status: ('A' for Active; 'I' for Inactive)
REMARK    1  A    between atoms: O1_2  and  C2_3 
REMARK    2  A    between atoms: C8_12  and  O3_13 
REMARK    3  A    between atoms: O3_13  and  C9_14 
REMARK    4  A    between atoms: C9_14  and  C10_15 
REMARK    5  A    between atoms: C14_19  and  N3_20 
REMARK       I    between atoms: N3_20  and  C15_21 
REMARK       I    between atoms: C15_21  and  N4_23 
REMARK    6  A    between atoms: N4_23  and  C16_24 
ROOT
HETATM    1  C10 UNL     1      26.300   4.775  49.161  1.00  0.00    -0.032 A 
HETATM    2  C11 UNL     1      25.582   5.919  49.505  1.00  0.00     0.009 A 
HETATM    3  C12 UNL     1      26.106   7.173  49.274  1.00  0.00     0.003 A 
HETATM    4  C13 UNL     1      27.366   7.265  48.690  1.00  0.00     0.029 A 
HETATM    5  C14 UNL     1      28.053   6.119  48.361  1.00  0.00     0.036 A 
HETATM    6  C22 UNL     1      27.548   4.854  48.582  1.00  0.00     0.039 A 
ENDROOT
BRANCH   1   7
HETATM    7  C9  UNL     1      25.608   3.472  49.469  1.00  0.00     0.214 C 
BRANCH   7   8
HETATM    8  O3  UNL     1      25.375   3.328  50.836  1.00  0.00    -0.344 OA
BRANCH   8   9
HETATM    9  C8  UNL     1      25.844   2.343  51.662  1.00  0.00     0.104 C 
HETATM   10  C2  UNL     1      25.039   1.267  52.200  1.00  0.00     0.100 C 
HETATM   11  C3  UNL     1      25.321   0.234  52.959  1.00  0.00     0.053 C 
HETATM   12  C4  UNL     1      26.754   0.161  53.220  1.00  0.00     0.232 C 
HETATM   13  O2  UNL     1      27.107  -0.606  54.306  1.00  0.00    -0.240 OA
HETATM   14  C6  UNL     1      27.552   1.321  52.907  1.00  0.00     0.074 C 
HETATM   15  N1  UNL     1      28.302  -0.425  54.988  1.00  0.00    -0.126 NA
HETATM   16  C5  UNL     1      29.014   0.592  54.634  1.00  0.00     0.262 C 
HETATM   17  N2  UNL     1      28.655   1.514  53.584  1.00  0.00    -0.241 NA
HETATM   18  C7  UNL     1      27.139   2.373  51.998  1.00  0.00     0.070 C 
BRANCH  10  19
HETATM   19  O1  UNL     1      23.684   1.392  51.867  1.00  0.00    -0.353 OA
HETATM   20  C1  UNL     1      22.730   1.115  52.866  1.00  0.00     0.210 C 
ENDBRANCH  10  19
ENDBRANCH   8   9
ENDBRANCH   7   8
ENDBRANCH   1   7
BRANCH   5  21
HETATM   21  N3  UNL     1      29.338   6.266  47.765  1.00  0.00    -0.309 N 
HETATM   22  C15 UNL     1      30.624   6.008  48.266  1.00  0.00     0.325 C 
HETATM   23  O4  UNL     1      30.912   5.577  49.392  1.00  0.00    -0.247 OA
HETATM   24  N4  UNL     1      31.705   6.268  47.393  1.00  0.00    -0.309 N 
HETATM   25  H14 UNL     1      31.569   6.635  46.418  1.00  0.00     0.170 HD
HETATM   26  H13 UNL     1      29.119   6.629  46.811  1.00  0.00     0.170 HD
BRANCH  24  27
HETATM   27  C16 UNL     1      33.032   6.027  47.845  1.00  0.00     0.036 A 
HETATM   28  C17 UNL     1      33.707   4.838  48.022  1.00  0.00     0.029 A 
HETATM   29  C18 UNL     1      35.009   4.870  48.479  1.00  0.00     0.002 A 
HETATM   30  C19 UNL     1      35.651   6.052  48.761  1.00  0.00     0.000 A 
HETATM   31  C20 UNL     1      34.992   7.251  48.591  1.00  0.00     0.002 A 
HETATM   32  C21 UNL     1      33.676   7.223  48.130  1.00  0.00     0.029 A 
ENDBRANCH  24  27
ENDBRANCH   5  21
TORSDOF 6
ENDMDL
MODEL 2
REMARK VINA RESULT:      -9.2      1.206      1.479
REMARK  6 active torsions:
REMARK  status: ('A' for Active; 'I' for Inactive)
REMARK    1  A    between atoms: O1_2  and  C2_3 
REMARK    2  A    between atoms: C8_12  and  O3_13 
REMARK    3  A    between atoms: O3_13  and  C9_14 
REMARK    4  A    between atoms: C9_14  and  C10_15 
REMARK    5  A    between atoms: C14_19  and  N3_20 
REMARK       I    between atoms: N3_20  and  C15_21 
REMARK       I    between atoms: C15_21  and  N4_23 
REMARK    6  A    between atoms: N4_23  and  C16_24 
ROOT
HETATM    1  C10 UNL     1      25.038   4.498  49.265  1.00  0.00    -0.032 A 
HETATM    2  C11 UNL     1      24.042   5.286  48.689  1.00  0.00     0.009 A 
HETATM    3  C12 UNL     1      24.336   6.536  48.188  1.00  0.00     0.003 A 
HETATM    4  C13 UNL     1      25.651   6.988  48.273  1.00  0.00     0.029 A 
HETATM    5  C14 UNL     1      26.613   6.190  48.847  1.00  0.00     0.036 A 
HETATM    6  C22 UNL     1      26.342   4.937  49.354  1.00  0.00     0.039 A 
ENDROOT
BRANCH   1   7
HETATM    7  C9  UNL     1      24.576   3.156  49.770  1.00  0.00     0.214 C 
BRANCH   7   8
HETATM    8  O3  UNL     1      24.715   3.055  51.153  1.00  0.00    -0.344 OA
BRANCH   8   9
HETATM    9  C8  UNL     1      25.422   2.116  51.854  1.00  0.00     0.104 C 
HETATM   10  C2  UNL     1      24.835   0.992  52.550  1.00  0.00     0.100 C 
HETATM   11  C3  UNL     1      25.350  -0.009  53.225  1.00  0.00     0.053 C 
HETATM   12  C4  UNL     1      26.807   0.025  53.167  1.00  0.00     0.232 C 
HETATM   13  O2  UNL     1      27.443  -0.701  54.148  1.00  0.00    -0.240 OA
HETATM   14  C6  UNL     1      27.431   1.236  52.693  1.00  0.00     0.074 C 
HETATM   15  N1  UNL     1      28.741  -0.425  54.555  1.00  0.00    -0.126 NA
HETATM   16  C5  UNL     1      29.283   0.635  54.058  1.00  0.00     0.262 C 
HETATM   17  N2  UNL     1      28.637   1.517  53.114  1.00  0.00    -0.241 NA
HETATM   18  C7  UNL     1      26.754   2.244  51.900  1.00  0.00     0.070 C 
BRANCH  10  19
HETATM   19  O1  UNL     1      23.434   1.014  52.520  1.00  0.00    -0.353 OA
HETATM   20  C1  UNL     1      22.745  -0.129  52.972  1.00  0.00     0.210 C 
ENDBRANCH  10  19
ENDBRANCH   8   9
ENDBRANCH   7   8
ENDBRANCH   1   7
BRANCH   5  21
HETATM   21  N3  UNL     1      27.943   6.698  48.910  1.00  0.00    -0.309 N 
HETATM   22  C15 UNL     1      29.166   6.140  48.505  1.00  0.00     0.325 C 
HETATM   23  O4  UNL     1      29.341   5.030  47.981  1.00  0.00    -0.247 OA
HETATM   24  N4  UNL     1      30.320   6.929  48.717  1.00  0.00    -0.309 N 
HETATM   25  H14 UNL     1      30.280   7.884  49.153  1.00  0.00     0.170 HD
HETATM   26  H13 UNL     1      27.819   7.637  49.349  1.00  0.00     0.170 HD
BRANCH  24  27
HETATM   27  C16 UNL     1      31.588   6.417  48.327  1.00  0.00     0.036 A 
HETATM   28  C17 UNL     1      32.514   5.695  49.051  1.00  0.00     0.029 A 
HETATM   29  C18 UNL     1      33.688   5.308  48.436  1.00  0.00     0.002 A 
HETATM   30  C19 UNL     1      33.960   5.622  47.126  1.00  0.00     0.000 A 
HETATM   31  C20 UNL     1      33.046   6.344  46.387  1.00  0.00     0.002 A 
HETATM   32  C21 UNL     1      31.859   6.736  47.004  1.00  0.00     0.029 A 
ENDBRANCH  24  27
ENDBRANCH   5  21
TORSDOF 6
ENDMDL
MODEL 3
REMARK VINA RESULT:      -8.9      1.624      2.527
REMARK  6 active torsions:
REMARK  status: ('A' for Active; 'I' for Inactive)
REMARK    1  A    between atoms: O1_2  and  C2_3 
REMARK    2  A    between atoms: C8_12  and  O3_13 
REMARK    3  A    between atoms: O3_13  and  C9_14 
REMARK    4  A    between atoms: C9_14  and  C10_15 
REMARK    5  A    between atoms: C14_19  and  N3_20 
REMARK       I    between atoms: N3_20  and  C15_21 
REMARK       I    between atoms: C15_21  and  N4_23 
REMARK    6  A    between atoms: N4_23  and  C16_24 
ROOT
HETATM    1  C10 UNL     1      26.579   4.473  49.253  1.00  0.00    -0.032 A 
HETATM    2  C11 UNL     1      25.647   5.503  49.363  1.00  0.00     0.009 A 
HETATM    3  C12 UNL     1      25.950   6.775  48.928  1.00  0.00     0.003 A 
HETATM    4  C13 UNL     1      27.210   7.002  48.378  1.00  0.00     0.029 A 
HETATM    5  C14 UNL     1      28.111   5.966  48.283  1.00  0.00     0.036 A 
HETATM    6  C22 UNL     1      27.828   4.686  48.711  1.00  0.00     0.039 A 
ENDROOT
BRANCH   1   7
HETATM    7  C9  UNL     1      26.113   3.135  49.767  1.00  0.00     0.214 C 
BRANCH   7   8
HETATM    8  O3  UNL     1      26.805   2.760  50.918  1.00  0.00    -0.344 OA
BRANCH   8   9
HETATM    9  C8  UNL     1      26.355   1.972  51.942  1.00  0.00     0.104 C 
HETATM   10  C2  UNL     1      27.195   1.411  52.979  1.00  0.00     0.100 C 
HETATM   11  C3  UNL     1      26.937   0.682  54.040  1.00  0.00     0.053 C 
HETATM   12  C4  UNL     1      25.500   0.493  54.199  1.00  0.00     0.232 C 
HETATM   13  O2  UNL     1      25.140  -0.564  55.004  1.00  0.00    -0.240 OA
HETATM   14  C6  UNL     1      24.651   0.828  53.082  1.00  0.00     0.074 C 
HETATM   15  N1  UNL     1      23.905  -1.189  54.903  1.00  0.00    -0.126 NA
HETATM   16  C5  UNL     1      23.153  -0.816  53.924  1.00  0.00     0.262 C 
HETATM   17  N2  UNL     1      23.508   0.203  52.964  1.00  0.00    -0.241 NA
HETATM   18  C7  UNL     1      25.046   1.700  51.993  1.00  0.00     0.070 C 
BRANCH  10  19
HETATM   19  O1  UNL     1      28.555   1.676  52.771  1.00  0.00    -0.353 OA
HETATM   20  C1  UNL     1      29.469   1.248  53.754  1.00  0.00     0.210 C 
ENDBRANCH  10  19
ENDBRANCH   8   9
ENDBRANCH   7   8
ENDBRANCH   1   7
BRANCH   5  21
HETATM   21  N3  UNL     1      29.385   6.248  47.713  1.00  0.00    -0.309 N 
HETATM   22  C15 UNL     1      30.683   6.086  48.224  1.00  0.00     0.325 C 
HETATM   23  O4  UNL     1      30.994   5.639  49.338  1.00  0.00    -0.247 OA
HETATM   24  N4  UNL     1      31.747   6.474  47.378  1.00  0.00    -0.309 N 
HETATM   25  H14 UNL     1      31.591   6.864  46.415  1.00  0.00     0.170 HD
HETATM   26  H13 UNL     1      29.147   6.627  46.770  1.00  0.00     0.170 HD
BRANCH  24  27
HETATM   27  C16 UNL     1      33.085   6.334  47.842  1.00  0.00     0.036 A 
HETATM   28  C17 UNL     1      33.812   5.197  48.124  1.00  0.00     0.029 A 
HETATM   29  C18 UNL     1      35.112   5.328  48.567  1.00  0.00     0.002 A 
HETATM   30  C19 UNL     1      35.703   6.558  48.734  1.00  0.00     0.000 A 
HETATM   31  C20 UNL     1      34.991   7.706  48.457  1.00  0.00     0.002 A 
HETATM   32  C21 UNL     1      33.677   7.578  48.010  1.00  0.00     0.029 A 
ENDBRANCH  24  27
ENDBRANCH   5  21
TORSDOF 6
ENDMDL
MODEL 4
REMARK VINA RESULT:      -8.8      3.481      4.404
REMARK  6 active torsions:
REMARK  status: ('A' for Active; 'I' for Inactive)
REMARK    1  A    between atoms: O1_2  and  C2_3 
REMARK    2  A    between atoms: C8_12  and  O3_13 
REMARK    3  A    between atoms: O3_13  and  C9_14 
REMARK    4  A    between atoms: C9_14  and  C10_15 
REMARK    5  A    between atoms: C14_19  and  N3_20 
REMARK       I    between atoms: N3_20  and  C15_21 
REMARK       I    between atoms: C15_21  and  N4_23 
REMARK    6  A    between atoms: N4_23  and  C16_24 
ROOT
HETATM    1  C10 UNL     1      22.875   4.566  51.338  1.00  0.00    -0.032 A 
HETATM    2  C11 UNL     1      21.668   5.194  51.033  1.00  0.00     0.009 A 
HETATM    3  C12 UNL     1      21.626   6.546  50.771  1.00  0.00     0.003 A 
HETATM    4  C13 UNL     1      22.817   7.265  50.819  1.00  0.00     0.029 A 
HETATM    5  C14 UNL     1      23.994   6.620  51.123  1.00  0.00     0.036 A 
HETATM    6  C22 UNL     1      24.060   5.268  51.388  1.00  0.00     0.039 A 
ENDROOT
BRANCH   1   7
HETATM    7  C9  UNL     1      22.773   3.086  51.601  1.00  0.00     0.214 C 
BRANCH   7   8
HETATM    8  O3  UNL     1      23.259   2.757  52.866  1.00  0.00    -0.344 OA
BRANCH   8   9
HETATM    9  C8  UNL     1      24.256   1.872  53.172  1.00  0.00     0.104 C 
HETATM   10  C2  UNL     1      24.048   0.479  53.502  1.00  0.00     0.100 C 
HETATM   11  C3  UNL     1      24.871  -0.507  53.778  1.00  0.00     0.053 C 
HETATM   12  C4  UNL     1      26.256  -0.077  53.634  1.00  0.00     0.232 C 
HETATM   13  O2  UNL     1      27.179  -0.870  54.278  1.00  0.00    -0.240 OA
HETATM   14  C6  UNL     1      26.513   1.338  53.538  1.00  0.00     0.074 C 
HETATM   15  N1  UNL     1      28.426  -0.399  54.663  1.00  0.00    -0.126 NA
HETATM   16  C5  UNL     1      28.634   0.865  54.503  1.00  0.00     0.262 C 
HETATM   17  N2  UNL     1      27.674   1.786  53.944  1.00  0.00    -0.241 NA
HETATM   18  C7  UNL     1      25.516   2.323  53.166  1.00  0.00     0.070 C 
BRANCH  10  19
HETATM   19  O1  UNL     1      22.690   0.141  53.578  1.00  0.00    -0.353 OA
HETATM   20  C1  UNL     1      22.307  -1.152  53.172  1.00  0.00     0.210 C 
ENDBRANCH  10  19
ENDBRANCH   8   9
ENDBRANCH   7   8
ENDBRANCH   1   7
BRANCH   5  21
HETATM   21  N3  UNL     1      25.186   7.399  51.159  1.00  0.00    -0.309 N 
HETATM   22  C15 UNL     1      26.029   7.849  50.130  1.00  0.00     0.325 C 
HETATM   23  O4  UNL     1      25.894   7.645  48.915  1.00  0.00    -0.247 OA
HETATM   24  N4  UNL     1      27.149   8.616  50.523  1.00  0.00    -0.309 N 
HETATM   25  H14 UNL     1      27.354   8.846  51.528  1.00  0.00     0.170 HD
HETATM   26  H13 UNL     1      25.319   7.584  52.178  1.00  0.00     0.170 HD
BRANCH  24  27
HETATM   27  C16 UNL     1      28.040   9.099  49.524  1.00  0.00     0.036 A 
HETATM   28  C17 UNL     1      29.103   8.475  48.906  1.00  0.00     0.029 A 
HETATM   29  C18 UNL     1      29.823   9.168  47.954  1.00  0.00     0.002 A 
HETATM   30  C19 UNL     1      29.511  10.461  47.606  1.00  0.00     0.000 A 
HETATM   31  C20 UNL     1      28.453  11.102  48.214  1.00  0.00     0.002 A 
HETATM   32  C21 UNL     1      27.723  10.404  49.177  1.00  0.00     0.029 A 
ENDBRANCH  24  27
ENDBRANCH   5  21
TORSDOF 6
ENDMDL
MODEL 5
REMARK VINA RESULT:      -8.8      2.914      3.613
REMARK  6 active torsions:
REMARK  status: ('A' for Active; 'I' for Inactive)
REMARK    1  A    between atoms: O1_2  and  C2_3 
REMARK    2  A    between atoms: C8_12  and  O3_13 
REMARK    3  A    between atoms: O3_13  and  C9_14 
REMARK    4  A    between atoms: C9_14  and  C10_15 
REMARK    5  A    between atoms: C14_19  and  N3_20 
REMARK       I    between atoms: N3_20  and  C15_21 
REMARK       I    between atoms: C15_21  and  N4_23 
REMARK    6  A    between atoms: N4_23  and  C16_24 
ROOT
HETATM    1  C10 UNL     1      24.489   5.425  49.630  1.00  0.00    -0.032 A 
HETATM    2  C11 UNL     1      23.258   6.061  49.788  1.00  0.00     0.009 A 
HETATM    3  C12 UNL     1      23.193   7.385  50.164  1.00  0.00     0.003 A 
HETATM    4  C13 UNL     1      24.387   8.068  50.381  1.00  0.00     0.029 A 
HETATM    5  C14 UNL     1      25.588   7.417  50.218  1.00  0.00     0.036 A 
HETATM    6  C22 UNL     1      25.676   6.092  49.842  1.00  0.00     0.039 A 
ENDROOT
BRANCH   1   7
HETATM    7  C9  UNL     1      24.409   3.979  49.216  1.00  0.00     0.214 C 
BRANCH   7   8
HETATM    8  O3  UNL     1      23.971   3.170  50.263  1.00  0.00    -0.344 OA
BRANCH   8   9
HETATM    9  C8  UNL     1      24.717   2.656  51.288  1.00  0.00     0.104 C 
HETATM   10  C2  UNL     1      24.169   2.114  52.513  1.00  0.00     0.100 C 
HETATM   11  C3  UNL     1      24.719   1.553  53.566  1.00  0.00     0.053 C 
HETATM   12  C4  UNL     1      26.157   1.402  53.378  1.00  0.00     0.232 C 
HETATM   13  O2  UNL     1      26.876   1.219  54.538  1.00  0.00    -0.240 OA
HETATM   14  C6  UNL     1      26.772   2.127  52.294  1.00  0.00     0.074 C 
HETATM   15  N1  UNL     1      28.225   1.528  54.633  1.00  0.00    -0.126 NA
HETATM   16  C5  UNL     1      28.749   2.122  53.614  1.00  0.00     0.262 C 
HETATM   17  N2  UNL     1      28.033   2.457  52.406  1.00  0.00    -0.241 NA
HETATM   18  C7  UNL     1      26.048   2.650  51.151  1.00  0.00     0.070 C 
BRANCH  10  19
HETATM   19  O1  UNL     1      22.778   2.263  52.592  1.00  0.00    -0.353 OA
HETATM   20  C1  UNL     1      21.978   1.128  52.355  1.00  0.00     0.210 C 
ENDBRANCH  10  19
ENDBRANCH   8   9
ENDBRANCH   7   8
ENDBRANCH   1   7
BRANCH   5  21
HETATM   21  N3  UNL     1      26.781   8.159  50.451  1.00  0.00    -0.309 N 
HETATM   22  C15 UNL     1      27.666   8.790  49.563  1.00  0.00     0.325 C 
HETATM   23  O4  UNL     1      27.579   8.829  48.327  1.00  0.00    -0.247 OA
HETATM   24  N4  UNL     1      28.774   9.452  50.140  1.00  0.00    -0.309 N 
HETATM   25  H14 UNL     1      28.939   9.478  51.177  1.00  0.00     0.170 HD
HETATM   26  H13 UNL     1      26.874   8.139  51.491  1.00  0.00     0.170 HD
BRANCH  24  27
HETATM   27  C16 UNL     1      29.706  10.109  49.290  1.00  0.00     0.036 A 
HETATM   28  C17 UNL     1      29.717  11.406  48.819  1.00  0.00     0.029 A 
HETATM   29  C18 UNL     1      30.748  11.808  47.995  1.00  0.00     0.002 A 
HETATM   30  C19 UNL     1      31.762  10.956  47.630  1.00  0.00     0.000 A 
HETATM   31  C20 UNL     1      31.768   9.656  48.090  1.00  0.00     0.002 A 
HETATM   32  C21 UNL     1      30.727   9.245  48.923  1.00  0.00     0.029 A 
ENDBRANCH  24  27
ENDBRANCH   5  21
TORSDOF 6
ENDMDL
MODEL 6
REMARK VINA RESULT:      -8.7      2.325      8.122
REMARK  6 active torsions:
REMARK  status: ('A' for Active; 'I' for Inactive)
REMARK    1  A    between atoms: O1_2  and  C2_3 
REMARK    2  A    between atoms: C8_12  and  O3_13 
REMARK    3  A    between atoms: O3_13  and  C9_14 
REMARK    4  A    between atoms: C9_14  and  C10_15 
REMARK    5  A    between atoms: C14_19  and  N3_20 
REMARK       I    between atoms: N3_20  and  C15_21 
REMARK       I    between atoms: C15_21  and  N4_23 
REMARK    6  A    between atoms: N4_23  and  C16_24 
ROOT
HETATM    1  C10 UNL     1      26.198   6.699  48.266  1.00  0.00    -0.032 A 
HETATM    2  C11 UNL     1      24.947   7.063  47.770  1.00  0.00     0.009 A 
HETATM    3  C12 UNL     1      23.794   6.547  48.322  1.00  0.00     0.003 A 
HETATM    4  C13 UNL     1      23.914   5.656  49.386  1.00  0.00     0.029 A 
HETATM    5  C14 UNL     1      25.161   5.314  49.855  1.00  0.00     0.036 A 
HETATM    6  C22 UNL     1      26.328   5.818  49.318  1.00  0.00     0.039 A 
ENDROOT
BRANCH   1   7
HETATM    7  C9  UNL     1      27.370   7.339  47.568  1.00  0.00     0.214 C 
BRANCH   7   8
HETATM    8  O3  UNL     1      28.330   7.778  48.479  1.00  0.00    -0.344 OA
BRANCH   8   9
HETATM    9  C8  UNL     1      29.613   7.325  48.622  1.00  0.00     0.104 C 
HETATM   10  C2  UNL     1      30.725   8.132  49.074  1.00  0.00     0.100 C 
HETATM   11  C3  UNL     1      31.989   7.861  49.306  1.00  0.00     0.053 C 
HETATM   12  C4  UNL     1      32.252   6.438  49.131  1.00  0.00     0.232 C 
HETATM   13  O2  UNL     1      33.576   6.112  48.943  1.00  0.00    -0.240 OA
HETATM   14  C6  UNL     1      31.247   5.647  48.465  1.00  0.00     0.074 C 
HETATM   15  N1  UNL     1      33.972   4.945  48.304  1.00  0.00    -0.126 NA
HETATM   16  C5  UNL     1      33.032   4.236  47.774  1.00  0.00     0.262 C 
HETATM   17  N2  UNL     1      31.629   4.572  47.825  1.00  0.00    -0.241 NA
HETATM   18  C7  UNL     1      29.859   6.043  48.326  1.00  0.00     0.070 C 
BRANCH  10  19
HETATM   19  O1  UNL     1      30.375   9.476  49.257  1.00  0.00    -0.353 OA
HETATM   20  C1  UNL     1      30.875  10.420  48.338  1.00  0.00     0.210 C 
ENDBRANCH  10  19
ENDBRANCH   8   9
ENDBRANCH   7   8
ENDBRANCH   1   7
BRANCH   5  21
HETATM   21  N3  UNL     1      25.231   4.399  50.944  1.00  0.00    -0.309 N 
HETATM   22  C15 UNL     1      26.068   3.294  51.172  1.00  0.00     0.325 C 
HETATM   23  O4  UNL     1      26.964   2.873  50.427  1.00  0.00    -0.247 OA
HETATM   24  N4  UNL     1      25.866   2.589  52.380  1.00  0.00    -0.309 N 
HETATM   25  H14 UNL     1      25.132   2.865  53.081  1.00  0.00     0.170 HD
HETATM   26  H13 UNL     1      24.481   4.736  51.587  1.00  0.00     0.170 HD
BRANCH  24  27
HETATM   27  C16 UNL     1      26.683   1.460  52.667  1.00  0.00     0.036 A 
HETATM   28  C17 UNL     1      27.938   1.395  53.235  1.00  0.00     0.029 A 
HETATM   29  C18 UNL     1      28.528   0.159  53.410  1.00  0.00     0.002 A 
HETATM   30  C19 UNL     1      27.902  -1.005  53.033  1.00  0.00     0.000 A 
HETATM   31  C20 UNL     1      26.648  -0.959  52.462  1.00  0.00     0.002 A 
HETATM   32  C21 UNL     1      26.048   0.287  52.284  1.00  0.00     0.029 A 
ENDBRANCH  24  27
ENDBRANCH   5  21
TORSDOF 6
ENDMDL
MODEL 7
REMARK VINA RESULT:      -8.5      2.856      9.784
REMARK  6 active torsions:
REMARK  status: ('A' for Active; 'I' for Inactive)
REMARK    1  A    between atoms: O1_2  and  C2_3 
REMARK    2  A    between atoms: C8_12  and  O3_13 
REMARK    3  A    between atoms: O3_13  and  C9_14 
REMARK    4  A    between atoms: C9_14  and  C10_15 
REMARK    5  A    between atoms: C14_19  and  N3_20 
REMARK       I    between atoms: N3_20  and  C15_21 
REMARK       I    between atoms: C15_21  and  N4_23 
REMARK    6  A    between atoms: N4_23  and  C16_24 
ROOT
HETATM    1  C10 UNL     1      26.721   5.043  48.975  1.00  0.00    -0.032 A 
HETATM    2  C11 UNL     1      26.164   6.316  49.097  1.00  0.00     0.009 A 
HETATM    3  C12 UNL     1      24.871   6.477  49.544  1.00  0.00     0.003 A 
HETATM    4  C13 UNL     1      24.137   5.339  49.867  1.00  0.00     0.029 A 
HETATM    5  C14 UNL     1      24.711   4.095  49.737  1.00  0.00     0.036 A 
HETATM    6  C22 UNL     1      26.004   3.910  49.292  1.00  0.00     0.039 A 
ENDROOT
BRANCH   1   7
HETATM    7  C9  UNL     1      28.142   5.016  48.476  1.00  0.00     0.214 C 
BRANCH   7   8
HETATM    8  O3  UNL     1      28.695   6.295  48.435  1.00  0.00    -0.344 OA
BRANCH   8   9
HETATM    9  C8  UNL     1      30.015   6.637  48.545  1.00  0.00     0.104 C 
HETATM   10  C2  UNL     1      30.497   7.950  48.915  1.00  0.00     0.100 C 
HETATM   11  C3  UNL     1      31.701   8.439  49.105  1.00  0.00     0.053 C 
HETATM   12  C4  UNL     1      32.708   7.392  48.981  1.00  0.00     0.232 C 
HETATM   13  O2  UNL     1      33.988   7.844  48.752  1.00  0.00    -0.240 OA
HETATM   14  C6  UNL     1      32.305   6.139  48.392  1.00  0.00     0.074 C 
HETATM   15  N1  UNL     1      34.958   7.057  48.147  1.00  0.00    -0.126 NA
HETATM   16  C5  UNL     1      34.565   5.916  47.687  1.00  0.00     0.262 C 
HETATM   17  N2  UNL     1      33.212   5.421  47.782  1.00  0.00    -0.241 NA
HETATM   18  C7  UNL     1      30.929   5.692  48.294  1.00  0.00     0.070 C 
BRANCH  10  19
HETATM   19  O1  UNL     1      29.462   8.883  49.055  1.00  0.00    -0.353 OA
HETATM   20  C1  UNL     1      29.760  10.241  48.824  1.00  0.00     0.210 C 
ENDBRANCH  10  19
ENDBRANCH   8   9
ENDBRANCH   7   8
ENDBRANCH   1   7
BRANCH   5  21
HETATM   21  N3  UNL     1      23.920   2.962  50.080  1.00  0.00    -0.309 N 
HETATM   22  C15 UNL     1      23.699   2.328  51.314  1.00  0.00     0.325 C 
HETATM   23  O4  UNL     1      24.176   2.650  52.412  1.00  0.00    -0.247 OA
HETATM   24  N4  UNL     1      22.840   1.205  51.301  1.00  0.00    -0.309 N 
HETATM   25  H14 UNL     1      22.385   0.851  50.423  1.00  0.00     0.170 HD
HETATM   26  H13 UNL     1      23.507   2.673  49.166  1.00  0.00     0.170 HD
BRANCH  24  27
HETATM   27  C16 UNL     1      22.578   0.521  52.521  1.00  0.00     0.036 A 
HETATM   28  C17 UNL     1      23.359  -0.374  53.222  1.00  0.00     0.029 A 
HETATM   29  C18 UNL     1      22.871  -0.906  54.398  1.00  0.00     0.002 A 
HETATM   30  C19 UNL     1      21.633  -0.570  54.890  1.00  0.00     0.000 A 
HETATM   31  C20 UNL     1      20.838   0.323  54.202  1.00  0.00     0.002 A 
HETATM   32  C21 UNL     1      21.327   0.863  53.013  1.00  0.00     0.029 A 
ENDBRANCH  24  27
ENDBRANCH   5  21
TORSDOF 6
ENDMDL
MODEL 8
REMARK VINA RESULT:      -8.5      2.293      7.946
REMARK  6 active torsions:
REMARK  status: ('A' for Active; 'I' for Inactive)
REMARK    1  A    between atoms: O1_2  and  C2_3 
REMARK    2  A    between atoms: C8_12  and  O3_13 
REMARK    3  A    between atoms: O3_13  and  C9_14 
REMARK    4  A    between atoms: C9_14  and  C10_15 
REMARK    5  A    between atoms: C14_19  and  N3_20 
REMARK       I    between atoms: N3_20  and  C15_21 
REMARK       I    between atoms: C15_21  and  N4_23 
REMARK    6  A    between atoms: N4_23  and  C16_24 
ROOT
HETATM    1  C10 UNL     1      24.461   5.494  49.324  1.00  0.00    -0.032 A 
HETATM    2  C11 UNL     1      23.500   5.051  48.416  1.00  0.00     0.009 A 
HETATM    3  C12 UNL     1      22.955   3.790  48.529  1.00  0.00     0.003 A 
HETATM    4  C13 UNL     1      23.390   2.974  49.570  1.00  0.00     0.029 A 
HETATM    5  C14 UNL     1      24.339   3.436  50.451  1.00  0.00     0.036 A 
HETATM    6  C22 UNL     1      24.898   4.694  50.358  1.00  0.00     0.039 A 
ENDROOT
BRANCH   1   7
HETATM    7  C9  UNL     1      24.969   6.891  49.082  1.00  0.00     0.214 C 
BRANCH   7   8
HETATM    8  O3  UNL     1      25.888   6.928  48.034  1.00  0.00    -0.344 OA
BRANCH   8   9
HETATM    9  C8  UNL     1      27.250   7.025  48.122  1.00  0.00     0.104 C 
HETATM   10  C2  UNL     1      27.990   8.268  48.088  1.00  0.00     0.100 C 
HETATM   11  C3  UNL     1      29.268   8.550  48.197  1.00  0.00     0.053 C 
HETATM   12  C4  UNL     1      30.039   7.346  48.483  1.00  0.00     0.232 C 
HETATM   13  O2  UNL     1      31.385   7.442  48.213  1.00  0.00    -0.240 OA
HETATM   14  C6  UNL     1      29.389   6.073  48.297  1.00  0.00     0.074 C 
HETATM   15  N1  UNL     1      32.175   6.329  47.961  1.00  0.00    -0.126 NA
HETATM   16  C5  UNL     1      31.557   5.200  47.862  1.00  0.00     0.262 C 
HETATM   17  N2  UNL     1      30.131   5.033  48.013  1.00  0.00    -0.241 NA
HETATM   18  C7  UNL     1      27.950   5.892  48.250  1.00  0.00     0.070 C 
BRANCH  10  19
HETATM   19  O1  UNL     1      27.168   9.377  47.850  1.00  0.00    -0.353 OA
HETATM   20  C1  UNL     1      26.838  10.202  48.944  1.00  0.00     0.210 C 
ENDBRANCH  10  19
ENDBRANCH   8   9
ENDBRANCH   7   8
ENDBRANCH   1   7
BRANCH   5  21
HETATM   21  N3  UNL     1      24.750   2.564  51.499  1.00  0.00    -0.309 N 
HETATM   22  C15 UNL     1      25.944   1.851  51.695  1.00  0.00     0.325 C 
HETATM   23  O4  UNL     1      26.935   1.839  50.949  1.00  0.00    -0.247 OA
HETATM   24  N4  UNL     1      26.024   1.063  52.866  1.00  0.00    -0.309 N 
HETATM   25  H14 UNL     1      25.240   1.005  53.563  1.00  0.00     0.170 HD
HETATM   26  H13 UNL     1      23.928   2.559  52.142  1.00  0.00     0.170 HD
BRANCH  24  27
HETATM   27  C16 UNL     1      27.210   0.318  53.118  1.00  0.00     0.036 A 
HETATM   28  C17 UNL     1      27.504  -1.001  52.842  1.00  0.00     0.029 A 
HETATM   29  C18 UNL     1      28.745  -1.495  53.191  1.00  0.00     0.002 A 
HETATM   30  C19 UNL     1      29.693  -0.712  53.803  1.00  0.00     0.000 A 
HETATM   31  C20 UNL     1      29.417   0.609  54.087  1.00  0.00     0.002 A 
HETATM   32  C21 UNL     1      28.164   1.112  53.737  1.00  0.00     0.029 A 
ENDBRANCH  24  27
ENDBRANCH   5  21
TORSDOF 6
ENDMDL
MODEL 9
REMARK VINA RESULT:      -8.3      3.577      4.582
REMARK  6 active torsions:
REMARK  status: ('A' for Active; 'I' for Inactive)
REMARK    1  A    between atoms: O1_2  and  C2_3 
REMARK    2  A    between atoms: C8_12  and  O3_13 
REMARK    3  A    between atoms: O3_13  and  C9_14 
REMARK    4  A    between atoms: C9_14  and  C10_15 
REMARK    5  A    between atoms: C14_19  and  N3_20 
REMARK       I    between atoms: N3_20  and  C15_21 
REMARK       I    between atoms: C15_21  and  N4_23 
REMARK    6  A    between atoms: N4_23  and  C16_24 
ROOT
HETATM    1  C10 UNL     1      23.351   2.855  50.656  1.00  0.00    -0.032 A 
HETATM    2  C11 UNL     1      22.800   2.781  49.378  1.00  0.00     0.009 A 
HETATM    3  C12 UNL     1      23.040   3.772  48.451  1.00  0.00     0.003 A 
HETATM    4  C13 UNL     1      23.844   4.846  48.825  1.00  0.00     0.029 A 
HETATM    5  C14 UNL     1      24.374   4.894  50.094  1.00  0.00     0.036 A 
HETATM    6  C22 UNL     1      24.148   3.913  51.037  1.00  0.00     0.039 A 
ENDROOT
BRANCH   1   7
HETATM    7  C9  UNL     1      23.006   1.704  51.565  1.00  0.00     0.214 C 
BRANCH   7   8
HETATM    8  O3  UNL     1      24.034   0.764  51.612  1.00  0.00    -0.344 OA
BRANCH   8   9
HETATM    9  C8  UNL     1      25.114   0.749  52.452  1.00  0.00     0.104 C 
HETATM   10  C2  UNL     1      25.140   0.106  53.748  1.00  0.00     0.100 C 
HETATM   11  C3  UNL     1      26.080  -0.041  54.653  1.00  0.00     0.053 C 
HETATM   12  C4  UNL     1      27.346   0.501  54.175  1.00  0.00     0.232 C 
HETATM   13  O2  UNL     1      28.269   0.773  55.160  1.00  0.00    -0.240 OA
HETATM   14  C6  UNL     1      27.316   1.346  53.007  1.00  0.00     0.074 C 
HETATM   15  N1  UNL     1      29.290   1.697  54.987  1.00  0.00    -0.126 NA
HETATM   16  C5  UNL     1      29.257   2.390  53.899  1.00  0.00     0.262 C 
HETATM   17  N2  UNL     1      28.254   2.247  52.871  1.00  0.00    -0.241 NA
HETATM   18  C7  UNL     1      26.228   1.371  52.048  1.00  0.00     0.070 C 
BRANCH  10  19
HETATM   19  O1  UNL     1      23.895  -0.424  54.110  1.00  0.00    -0.353 OA
HETATM   20  C1  UNL     1      23.824  -1.203  55.282  1.00  0.00     0.210 C 
ENDBRANCH  10  19
ENDBRANCH   8   9
ENDBRANCH   7   8
ENDBRANCH   1   7
BRANCH   5  21
HETATM   21  N3  UNL     1      25.190   6.012  50.428  1.00  0.00    -0.309 N 
HETATM   22  C15 UNL     1      25.966   6.864  49.626  1.00  0.00     0.325 C 
HETATM   23  O4  UNL     1      26.103   6.807  48.395  1.00  0.00    -0.247 OA
HETATM   24  N4  UNL     1      26.666   7.895  50.294  1.00  0.00    -0.309 N 
HETATM   25  H14 UNL     1      26.617   8.029  51.335  1.00  0.00     0.170 HD
HETATM   26  H13 UNL     1      25.090   6.079  51.465  1.00  0.00     0.170 HD
BRANCH  24  27
HETATM   27  C16 UNL     1      27.470   8.789  49.533  1.00  0.00     0.036 A 
HETATM   28  C17 UNL     1      28.734   8.619  49.009  1.00  0.00     0.029 A 
HETATM   29  C18 UNL     1      29.307   9.654  48.298  1.00  0.00     0.002 A 
HETATM   30  C19 UNL     1      28.655  10.847  48.098  1.00  0.00     0.000 A 
HETATM   31  C20 UNL     1      27.390  11.035  48.614  1.00  0.00     0.002 A 
HETATM   32  C21 UNL     1      26.808   9.992  49.334  1.00  0.00     0.029 A 
ENDBRANCH  24  27
ENDBRANCH   5  21
TORSDOF 6
ENDMDL
