MODEL 1
REMARK VINA RESULT:      -7.5      0.000      0.000
REMARK  4 active torsions:
REMARK  status: ('A' for Active; 'I' for Inactive)
REMARK    1  A    between atoms: C7_7  and  N1_8 
REMARK    2  A    between atoms: N1_8  and  C8_9 
REMARK    3  A    between atoms: N4_23  and  C17_24 
REMARK    4  A    between atoms: C17_24  and  C18_25 
ROOT
HETATM    1  C8  UNL     1      23.435   2.887  51.675  1.00  0.00     0.176 C 
HETATM    2  C9  UNL     1      23.788   1.721  52.541  1.00  0.00     0.127 C 
HETATM    3  C10 UNL     1      22.692   0.942  53.105  1.00  0.00     0.053 C 
HETATM    4  C11 UNL     1      21.357   0.819  53.126  1.00  0.00     0.093 C 
HETATM    5  C12 UNL     1      20.389   1.664  52.390  1.00  0.00     0.059 C 
HETATM    6  C13 UNL     1      20.388   2.974  52.301  1.00  0.00     0.036 C 
HETATM    7  S1  UNL     1      21.833   3.653  52.123  1.00  0.00    -0.014 SA
HETATM    8  N2  UNL     1      22.521   5.053  53.017  1.00  0.00    -0.214 NA
HETATM    9  C14 UNL     1      23.772   5.036  52.699  1.00  0.00     0.213 C 
HETATM   10  N3  UNL     1      24.250   4.050  51.834  1.00  0.00    -0.348 N 
HETATM   11  O1  UNL     1      20.592  -0.105  53.826  1.00  0.00    -0.340 OA
HETATM   12  C15 UNL     1      21.147  -1.336  54.240  1.00  0.00     0.279 C 
HETATM   13  C16 UNL     1      22.552  -1.032  54.632  1.00  0.00     0.248 C 
HETATM   14  O2  UNL     1      22.986  -1.699  55.635  1.00  0.00    -0.271 OA
HETATM   15  N4  UNL     1      23.350  -0.054  53.920  1.00  0.00    -0.316 N 
HETATM   16  H15 UNL     1      25.158   4.154  51.328  1.00  0.00     0.163 HD
ENDROOT
BRANCH   1  17
HETATM   17  N1  UNL     1      23.388   2.570  50.265  1.00  0.00    -0.353 N 
HETATM   18  H10 UNL     1      23.988   1.821  49.821  1.00  0.00     0.163 HD
BRANCH  17  19
HETATM   19  C7  UNL     1      22.733   2.950  49.063  1.00  0.00     0.032 A 
HETATM   20  C2  UNL     1      21.726   2.164  48.376  1.00  0.00    -0.040 A 
HETATM   21  C1  UNL     1      21.338   0.856  48.962  1.00  0.00     0.050 C 
HETATM   22  C3  UNL     1      21.188   2.629  47.261  1.00  0.00    -0.018 A 
HETATM   23  C4  UNL     1      21.481   3.909  46.571  1.00  0.00     0.031 A 
HETATM   24  C5  UNL     1      22.513   4.737  47.255  1.00  0.00     0.033 A 
HETATM   25  C6  UNL     1      23.046   4.105  48.506  1.00  0.00     0.003 A 
ENDBRANCH  17  19
ENDBRANCH   1  17
BRANCH  15  26
HETATM   26  C17 UNL     1      24.747  -0.267  54.170  1.00  0.00     0.142 C 
BRANCH  26  27
HETATM   27  C18 UNL     1      25.421  -1.163  53.154  1.00  0.00     0.105 C 
HETATM   28 BR1  UNL     1      27.089  -0.292  52.620  1.00  0.00    -0.095 Br
ENDBRANCH  26  27
ENDBRANCH  15  26
TORSDOF 4
ENDMDL
MODEL 2
REMARK VINA RESULT:      -7.4      4.972      7.675
REMARK  4 active torsions:
REMARK  status: ('A' for Active; 'I' for Inactive)
REMARK    1  A    between atoms: C7_7  and  N1_8 
REMARK    2  A    between atoms: N1_8  and  C8_9 
REMARK    3  A    between atoms: N4_23  and  C17_24 
REMARK    4  A    between atoms: C17_24  and  C18_25 
ROOT
HETATM    1  C8  UNL     1      24.887   4.165  49.922  1.00  0.00     0.176 C 
HETATM    2  C9  UNL     1      25.982   4.965  49.293  1.00  0.00     0.127 C 
HETATM    3  C10 UNL     1      26.044   6.388  49.604  1.00  0.00     0.053 C 
HETATM    4  C11 UNL     1      25.474   7.356  50.335  1.00  0.00     0.093 C 
HETATM    5  C12 UNL     1      24.332   7.195  51.263  1.00  0.00     0.059 C 
HETATM    6  C13 UNL     1      23.215   6.541  51.039  1.00  0.00     0.036 C 
HETATM    7  S1  UNL     1      23.379   5.151  50.250  1.00  0.00    -0.014 SA
HETATM    8  N2  UNL     1      22.438   4.559  48.836  1.00  0.00    -0.214 NA
HETATM    9  C14 UNL     1      23.114   3.540  48.422  1.00  0.00     0.213 C 
HETATM   10  N3  UNL     1      24.284   3.172  49.089  1.00  0.00    -0.348 N 
HETATM   11  O1  UNL     1      25.814   8.702  50.390  1.00  0.00    -0.340 OA
HETATM   12  C15 UNL     1      27.111   9.133  50.033  1.00  0.00     0.279 C 
HETATM   13  C16 UNL     1      27.521   8.273  48.889  1.00  0.00     0.248 C 
HETATM   14  O2  UNL     1      28.216   8.867  47.992  1.00  0.00    -0.271 OA
HETATM   15  N4  UNL     1      27.152   6.874  48.813  1.00  0.00    -0.316 N 
HETATM   16  H15 UNL     1      24.701   2.220  48.986  1.00  0.00     0.163 HD
ENDROOT
BRANCH   1  17
HETATM   17  N1  UNL     1      25.270   3.528  51.162  1.00  0.00    -0.353 N 
HETATM   18  H10 UNL     1      25.601   4.066  52.010  1.00  0.00     0.163 HD
BRANCH  17  19
HETATM   19  C7  UNL     1      25.385   2.246  51.761  1.00  0.00     0.032 A 
HETATM   20  C2  UNL     1      24.320   1.552  52.460  1.00  0.00    -0.040 A 
HETATM   21  C1  UNL     1      22.999   2.221  52.566  1.00  0.00     0.050 C 
HETATM   22  C3  UNL     1      24.553   0.356  52.977  1.00  0.00    -0.018 A 
HETATM   23  C4  UNL     1      25.816  -0.421  52.944  1.00  0.00     0.031 A 
HETATM   24  C5  UNL     1      26.927   0.269  52.233  1.00  0.00     0.033 A 
HETATM   25  C6  UNL     1      26.542   1.613  51.692  1.00  0.00     0.003 A 
ENDBRANCH  17  19
ENDBRANCH   1  17
BRANCH  15  26
HETATM   26  C17 UNL     1      28.015   6.174  47.905  1.00  0.00     0.142 C 
BRANCH  26  27
HETATM   27  C18 UNL     1      29.326   5.735  48.521  1.00  0.00     0.105 C 
HETATM   28 BR1  UNL     1      30.766   6.484  47.429  1.00  0.00    -0.095 Br
ENDBRANCH  26  27
ENDBRANCH  15  26
TORSDOF 4
ENDMDL
MODEL 3
REMARK VINA RESULT:      -7.3      3.344      4.919
REMARK  4 active torsions:
REMARK  status: ('A' for Active; 'I' for Inactive)
REMARK    1  A    between atoms: C7_7  and  N1_8 
REMARK    2  A    between atoms: N1_8  and  C8_9 
REMARK    3  A    between atoms: N4_23  and  C17_24 
REMARK    4  A    between atoms: C17_24  and  C18_25 
ROOT
HETATM    1  C8  UNL     1      23.142   5.524  50.782  1.00  0.00     0.176 C 
HETATM    2  C9  UNL     1      22.467   4.281  51.267  1.00  0.00     0.127 C 
HETATM    3  C10 UNL     1      22.075   3.292  50.269  1.00  0.00     0.053 C 
HETATM    4  C11 UNL     1      22.119   3.007  48.960  1.00  0.00     0.093 C 
HETATM    5  C12 UNL     1      22.738   3.839  47.904  1.00  0.00     0.059 C 
HETATM    6  C13 UNL     1      22.612   5.135  47.740  1.00  0.00     0.036 C 
HETATM    7  S1  UNL     1      22.628   6.004  49.091  1.00  0.00    -0.014 SA
HETATM    8  N2  UNL     1      21.494   7.309  49.587  1.00  0.00    -0.214 NA
HETATM    9  C14 UNL     1      21.769   7.497  50.835  1.00  0.00     0.213 C 
HETATM   10  N3  UNL     1      22.768   6.734  51.443  1.00  0.00    -0.348 N 
HETATM   11  O1  UNL     1      21.606   1.893  48.308  1.00  0.00    -0.340 OA
HETATM   12  C15 UNL     1      21.381   0.687  49.008  1.00  0.00     0.279 C 
HETATM   13  C16 UNL     1      20.898   1.089  50.358  1.00  0.00     0.248 C 
HETATM   14  O2  UNL     1      20.004   0.322  50.859  1.00  0.00    -0.271 OA
HETATM   15  N4  UNL     1      21.413   2.261  51.036  1.00  0.00    -0.316 N 
HETATM   16  H15 UNL     1      23.219   7.030  52.337  1.00  0.00     0.163 HD
ENDROOT
BRANCH   1  17
HETATM   17  N1  UNL     1      24.586   5.443  50.793  1.00  0.00    -0.353 N 
HETATM   18  H10 UNL     1      25.142   5.155  51.644  1.00  0.00     0.163 HD
BRANCH  17  19
HETATM   19  C7  UNL     1      25.714   5.637  49.952  1.00  0.00     0.032 A 
HETATM   20  C2  UNL     1      26.519   4.576  49.377  1.00  0.00    -0.040 A 
HETATM   21  C1  UNL     1      26.148   3.171  49.681  1.00  0.00     0.050 C 
HETATM   22  C3  UNL     1      27.549   4.888  48.607  1.00  0.00    -0.018 A 
HETATM   23  C4  UNL     1      28.028   6.239  48.225  1.00  0.00     0.031 A 
HETATM   24  C5  UNL     1      27.219   7.348  48.803  1.00  0.00     0.033 A 
HETATM   25  C6  UNL     1      26.082   6.870  49.655  1.00  0.00     0.003 A 
ENDBRANCH  17  19
ENDBRANCH   1  17
BRANCH  15  26
HETATM   26  C17 UNL     1      21.156   2.181  52.446  1.00  0.00     0.142 C 
BRANCH  26  27
HETATM   27  C18 UNL     1      22.117   1.283  53.194  1.00  0.00     0.105 C 
HETATM   28 BR1  UNL     1      21.050   0.091  54.319  1.00  0.00    -0.095 Br
ENDBRANCH  26  27
ENDBRANCH  15  26
TORSDOF 4
ENDMDL
MODEL 4
REMARK VINA RESULT:      -7.2      2.339      5.146
REMARK  4 active torsions:
REMARK  status: ('A' for Active; 'I' for Inactive)
REMARK    1  A    between atoms: C7_7  and  N1_8 
REMARK    2  A    between atoms: N1_8  and  C8_9 
REMARK    3  A    between atoms: N4_23  and  C17_24 
REMARK    4  A    between atoms: C17_24  and  C18_25 
ROOT
HETATM    1  C8  UNL     1      24.057   2.484  52.456  1.00  0.00     0.176 C 
HETATM    2  C9  UNL     1      22.880   1.666  52.882  1.00  0.00     0.127 C 
HETATM    3  C10 UNL     1      21.822   1.444  51.903  1.00  0.00     0.053 C 
HETATM    4  C11 UNL     1      21.468   1.671  50.630  1.00  0.00     0.093 C 
HETATM    5  C12 UNL     1      22.264   2.399  49.617  1.00  0.00     0.059 C 
HETATM    6  C13 UNL     1      22.890   3.543  49.773  1.00  0.00     0.036 C 
HETATM    7  S1  UNL     1      23.640   3.730  51.181  1.00  0.00    -0.014 SA
HETATM    8  N2  UNL     1      23.582   5.144  52.291  1.00  0.00    -0.214 NA
HETATM    9  C14 UNL     1      24.123   4.703  53.378  1.00  0.00     0.213 C 
HETATM   10  N3  UNL     1      24.577   3.385  53.437  1.00  0.00    -0.348 N 
HETATM   11  O1  UNL     1      20.300   1.286  49.984  1.00  0.00    -0.340 OA
HETATM   12  C15 UNL     1      19.539   0.195  50.459  1.00  0.00     0.279 C 
HETATM   13  C16 UNL     1      19.619   0.264  51.944  1.00  0.00     0.248 C 
HETATM   14  O2  UNL     1      18.548  -0.075  52.557  1.00  0.00    -0.271 OA
HETATM   15  N4  UNL     1      20.827   0.685  52.625  1.00  0.00    -0.316 N 
HETATM   16  H15 UNL     1      25.261   3.069  54.160  1.00  0.00     0.163 HD
ENDROOT
BRANCH   1  17
HETATM   17  N1  UNL     1      25.160   1.696  51.952  1.00  0.00    -0.353 N 
HETATM   18  H10 UNL     1      25.482   1.731  50.945  1.00  0.00     0.163 HD
BRANCH  17  19
HETATM   19  C7  UNL     1      26.126   0.743  52.371  1.00  0.00     0.032 A 
HETATM   20  C2  UNL     1      27.442   1.061  52.892  1.00  0.00    -0.040 A 
HETATM   21  C1  UNL     1      27.825   2.491  53.002  1.00  0.00     0.050 C 
HETATM   22  C3  UNL     1      28.253   0.079  53.250  1.00  0.00    -0.018 A 
HETATM   23  C4  UNL     1      27.999  -1.381  53.193  1.00  0.00     0.031 A 
HETATM   24  C5  UNL     1      26.654  -1.736  52.661  1.00  0.00     0.033 A 
HETATM   25  C6  UNL     1      25.828  -0.541  52.291  1.00  0.00     0.003 A 
ENDBRANCH  17  19
ENDBRANCH   1  17
BRANCH  15  26
HETATM   26  C17 UNL     1      20.816   0.240  53.990  1.00  0.00     0.142 C 
BRANCH  26  27
HETATM   27  C18 UNL     1      21.147  -1.227  54.159  1.00  0.00     0.105 C 
HETATM   28 BR1  UNL     1      22.819  -1.338  55.167  1.00  0.00    -0.095 Br
ENDBRANCH  26  27
ENDBRANCH  15  26
TORSDOF 4
ENDMDL
MODEL 5
REMARK VINA RESULT:      -7.1      1.016      1.181
REMARK  4 active torsions:
REMARK  status: ('A' for Active; 'I' for Inactive)
REMARK    1  A    between atoms: C7_7  and  N1_8 
REMARK    2  A    between atoms: N1_8  and  C8_9 
REMARK    3  A    between atoms: N4_23  and  C17_24 
REMARK    4  A    between atoms: C17_24  and  C18_25 
ROOT
HETATM    1  C8  UNL     1      23.827   3.244  51.220  1.00  0.00     0.176 C 
HETATM    2  C9  UNL     1      24.585   2.228  52.013  1.00  0.00     0.127 C 
HETATM    3  C10 UNL     1      23.813   1.265  52.788  1.00  0.00     0.053 C 
HETATM    4  C11 UNL     1      22.566   0.861  53.070  1.00  0.00     0.093 C 
HETATM    5  C12 UNL     1      21.316   1.438  52.528  1.00  0.00     0.059 C 
HETATM    6  C13 UNL     1      21.009   2.711  52.427  1.00  0.00     0.036 C 
HETATM    7  S1  UNL     1      22.210   3.673  51.963  1.00  0.00    -0.014 SA
HETATM    8  N2  UNL     1      22.728   5.233  52.692  1.00  0.00    -0.214 NA
HETATM    9  C14 UNL     1      23.870   5.467  52.136  1.00  0.00     0.213 C 
HETATM   10  N3  UNL     1      24.382   4.562  51.204  1.00  0.00    -0.348 N 
HETATM   11  O1  UNL     1      22.168  -0.168  53.916  1.00  0.00    -0.340 OA
HETATM   12  C15 UNL     1      23.049  -1.227  54.227  1.00  0.00     0.279 C 
HETATM   13  C16 UNL     1      24.400  -0.610  54.334  1.00  0.00     0.248 C 
HETATM   14  O2  UNL     1      25.150  -1.114  55.240  1.00  0.00    -0.271 OA
HETATM   15  N4  UNL     1      24.815   0.477  53.470  1.00  0.00    -0.316 N 
HETATM   16  H15 UNL     1      25.132   4.830  50.530  1.00  0.00     0.163 HD
ENDROOT
BRANCH   1  17
HETATM   17  N1  UNL     1      23.587   2.851  49.849  1.00  0.00    -0.353 N 
HETATM   18  H10 UNL     1      24.136   2.089  49.362  1.00  0.00     0.163 HD
BRANCH  17  19
HETATM   19  C7  UNL     1      22.757   3.153  48.737  1.00  0.00     0.032 A 
HETATM   20  C2  UNL     1      21.697   2.301  48.231  1.00  0.00    -0.040 A 
HETATM   21  C1  UNL     1      21.447   1.009  48.918  1.00  0.00     0.050 C 
HETATM   22  C3  UNL     1      20.991   2.697  47.184  1.00  0.00    -0.018 A 
HETATM   23  C4  UNL     1      21.134   3.953  46.409  1.00  0.00     0.031 A 
HETATM   24  C5  UNL     1      22.216   4.846  46.907  1.00  0.00     0.033 A 
HETATM   25  C6  UNL     1      22.943   4.291  48.096  1.00  0.00     0.003 A 
ENDBRANCH  17  19
ENDBRANCH   1  17
BRANCH  15  26
HETATM   26  C17 UNL     1      26.246   0.581  53.445  1.00  0.00     0.142 C 
BRANCH  26  27
HETATM   27  C18 UNL     1      26.918  -0.433  52.545  1.00  0.00     0.105 C 
HETATM   28 BR1  UNL     1      28.631  -0.899  53.366  1.00  0.00    -0.095 Br
ENDBRANCH  26  27
ENDBRANCH  15  26
TORSDOF 4
ENDMDL
MODEL 6
REMARK VINA RESULT:      -7.1      3.584      6.125
REMARK  4 active torsions:
REMARK  status: ('A' for Active; 'I' for Inactive)
REMARK    1  A    between atoms: C7_7  and  N1_8 
REMARK    2  A    between atoms: N1_8  and  C8_9 
REMARK    3  A    between atoms: N4_23  and  C17_24 
REMARK    4  A    between atoms: C17_24  and  C18_25 
ROOT
HETATM    1  C8  UNL     1      23.602   4.776  51.849  1.00  0.00     0.176 C 
HETATM    2  C9  UNL     1      22.194   4.562  51.392  1.00  0.00     0.127 C 
HETATM    3  C10 UNL     1      21.989   3.763  50.189  1.00  0.00     0.053 C 
HETATM    4  C11 UNL     1      22.623   3.038  49.257  1.00  0.00     0.093 C 
HETATM    5  C12 UNL     1      24.080   2.791  49.182  1.00  0.00     0.059 C 
HETATM    6  C13 UNL     1      25.042   3.675  49.320  1.00  0.00     0.036 C 
HETATM    7  S1  UNL     1      24.810   4.769  50.474  1.00  0.00    -0.014 SA
HETATM    8  N2  UNL     1      25.010   6.553  50.369  1.00  0.00    -0.214 NA
HETATM    9  C14 UNL     1      24.459   6.988  51.453  1.00  0.00     0.213 C 
HETATM   10  N3  UNL     1      23.900   6.079  52.355  1.00  0.00    -0.348 N 
HETATM   11  O1  UNL     1      22.073   2.366  48.173  1.00  0.00    -0.340 OA
HETATM   12  C15 UNL     1      20.716   1.974  48.180  1.00  0.00     0.279 C 
HETATM   13  C16 UNL     1      19.983   3.072  48.869  1.00  0.00     0.248 C 
HETATM   14  O2  UNL     1      18.820   3.321  48.396  1.00  0.00    -0.271 OA
HETATM   15  N4  UNL     1      20.558   3.791  49.987  1.00  0.00    -0.316 N 
HETATM   16  H15 UNL     1      23.708   6.337  53.348  1.00  0.00     0.163 HD
ENDROOT
BRANCH   1  17
HETATM   17  N1  UNL     1      24.048   3.810  52.828  1.00  0.00    -0.353 N 
HETATM   18  H10 UNL     1      24.072   4.008  53.866  1.00  0.00     0.163 HD
BRANCH  17  19
HETATM   19  C7  UNL     1      24.545   2.483  52.931  1.00  0.00     0.032 A 
HETATM   20  C2  UNL     1      23.727   1.287  52.978  1.00  0.00    -0.040 A 
HETATM   21  C1  UNL     1      22.252   1.443  52.913  1.00  0.00     0.050 C 
HETATM   22  C3  UNL     1      24.312   0.103  53.074  1.00  0.00    -0.018 A 
HETATM   23  C4  UNL     1      25.763  -0.194  53.147  1.00  0.00     0.031 A 
HETATM   24  C5  UNL     1      26.627   1.018  53.102  1.00  0.00     0.033 A 
HETATM   25  C6  UNL     1      25.850   2.296  52.991  1.00  0.00     0.003 A 
ENDBRANCH  17  19
ENDBRANCH   1  17
BRANCH  15  26
HETATM   26  C17 UNL     1      19.531   4.447  50.746  1.00  0.00     0.142 C 
BRANCH  26  27
HETATM   27  C18 UNL     1      18.742   3.517  51.641  1.00  0.00     0.105 C 
HETATM   28 BR1  UNL     1      16.852   3.980  51.447  1.00  0.00    -0.095 Br
ENDBRANCH  26  27
ENDBRANCH  15  26
TORSDOF 4
ENDMDL
MODEL 7
REMARK VINA RESULT:      -7.1      3.192      6.086
REMARK  4 active torsions:
REMARK  status: ('A' for Active; 'I' for Inactive)
REMARK    1  A    between atoms: C7_7  and  N1_8 
REMARK    2  A    between atoms: N1_8  and  C8_9 
REMARK    3  A    between atoms: N4_23  and  C17_24 
REMARK    4  A    between atoms: C17_24  and  C18_25 
ROOT
HETATM    1  C8  UNL     1      21.831   2.087  50.650  1.00  0.00     0.176 C 
HETATM    2  C9  UNL     1      23.200   2.631  50.391  1.00  0.00     0.127 C 
HETATM    3  C10 UNL     1      23.376   4.076  50.460  1.00  0.00     0.053 C 
HETATM    4  C11 UNL     1      22.742   5.227  50.730  1.00  0.00     0.093 C 
HETATM    5  C12 UNL     1      21.326   5.372  51.133  1.00  0.00     0.059 C 
HETATM    6  C13 UNL     1      20.283   4.786  50.591  1.00  0.00     0.036 C 
HETATM    7  S1  UNL     1      20.497   3.249  50.176  1.00  0.00    -0.014 SA
HETATM    8  N2  UNL     1      20.073   2.448  48.623  1.00  0.00    -0.214 NA
HETATM    9  C14 UNL     1      20.675   1.307  48.691  1.00  0.00     0.213 C 
HETATM   10  N3  UNL     1      21.429   0.993  49.822  1.00  0.00    -0.348 N 
HETATM   11  O1  UNL     1      23.256   6.517  50.693  1.00  0.00    -0.340 OA
HETATM   12  C15 UNL     1      24.644   6.745  50.821  1.00  0.00     0.279 C 
HETATM   13  C16 UNL     1      25.305   5.624  50.097  1.00  0.00     0.248 C 
HETATM   14  O2  UNL     1      26.374   5.945  49.471  1.00  0.00    -0.271 OA
HETATM   15  N4  UNL     1      24.764   4.280  50.113  1.00  0.00    -0.316 N 
HETATM   16  H15 UNL     1      21.690   0.009  50.054  1.00  0.00     0.163 HD
ENDROOT
BRANCH   1  17
HETATM   17  N1  UNL     1      21.608   1.704  52.026  1.00  0.00    -0.353 N 
HETATM   18  H10 UNL     1      21.250   2.374  52.762  1.00  0.00     0.163 HD
BRANCH  17  19
HETATM   19  C7  UNL     1      21.706   0.586  52.897  1.00  0.00     0.032 A 
HETATM   20  C2  UNL     1      20.609  -0.295  53.251  1.00  0.00    -0.040 A 
HETATM   21  C1  UNL     1      19.272  -0.020  52.666  1.00  0.00     0.050 C 
HETATM   22  C3  UNL     1      20.828  -1.307  54.075  1.00  0.00    -0.018 A 
HETATM   23  C4  UNL     1      22.104  -1.692  54.726  1.00  0.00     0.031 A 
HETATM   24  C5  UNL     1      23.248  -0.804  54.380  1.00  0.00     0.033 A 
HETATM   25  C6  UNL     1      22.875   0.303  53.440  1.00  0.00     0.003 A 
ENDBRANCH  17  19
ENDBRANCH   1  17
BRANCH  15  26
HETATM   26  C17 UNL     1      25.776   3.326  49.758  1.00  0.00     0.142 C 
BRANCH  26  27
HETATM   27  C18 UNL     1      26.786   3.067  50.854  1.00  0.00     0.105 C 
HETATM   28 BR1  UNL     1      26.344   1.342  51.663  1.00  0.00    -0.095 Br
ENDBRANCH  26  27
ENDBRANCH  15  26
TORSDOF 4
ENDMDL
MODEL 8
REMARK VINA RESULT:      -7.0      3.693      5.110
REMARK  4 active torsions:
REMARK  status: ('A' for Active; 'I' for Inactive)
REMARK    1  A    between atoms: C7_7  and  N1_8 
REMARK    2  A    between atoms: N1_8  and  C8_9 
REMARK    3  A    between atoms: N4_23  and  C17_24 
REMARK    4  A    between atoms: C17_24  and  C18_25 
ROOT
HETATM    1  C8  UNL     1      24.781   5.563  49.957  1.00  0.00     0.176 C 
HETATM    2  C9  UNL     1      24.569   4.285  50.703  1.00  0.00     0.127 C 
HETATM    3  C10 UNL     1      23.445   3.448  50.301  1.00  0.00     0.053 C 
HETATM    4  C11 UNL     1      22.448   3.337  49.412  1.00  0.00     0.093 C 
HETATM    5  C12 UNL     1      22.143   4.285  48.317  1.00  0.00     0.059 C 
HETATM    6  C13 UNL     1      22.090   5.595  48.394  1.00  0.00     0.036 C 
HETATM    7  S1  UNL     1      23.227   6.277  49.302  1.00  0.00    -0.014 SA
HETATM    8  N2  UNL     1      23.028   7.533  50.573  1.00  0.00    -0.214 NA
HETATM    9  C14 UNL     1      24.172   7.547  51.172  1.00  0.00     0.213 C 
HETATM   10  N3  UNL     1      25.184   6.685  50.746  1.00  0.00    -0.348 N 
HETATM   11  O1  UNL     1      21.493   2.333  49.315  1.00  0.00    -0.340 OA
HETATM   12  C15 UNL     1      21.736   1.051  49.856  1.00  0.00     0.279 C 
HETATM   13  C16 UNL     1      22.497   1.283  51.115  1.00  0.00     0.248 C 
HETATM   14  O2  UNL     1      22.212   0.480  52.070  1.00  0.00    -0.271 OA
HETATM   15  N4  UNL     1      23.479   2.341  51.231  1.00  0.00    -0.316 N 
HETATM   16  H15 UNL     1      26.186   6.848  50.991  1.00  0.00     0.163 HD
ENDROOT
BRANCH   1  17
HETATM   17  N1  UNL     1      25.707   5.445  48.852  1.00  0.00    -0.353 N 
HETATM   18  H10 UNL     1      25.536   4.816  48.020  1.00  0.00     0.163 HD
BRANCH  17  19
HETATM   19  C7  UNL     1      26.958   5.938  48.396  1.00  0.00     0.032 A 
HETATM   20  C2  UNL     1      27.162   7.212  47.732  1.00  0.00    -0.040 A 
HETATM   21  C1  UNL     1      25.980   8.080  47.503  1.00  0.00     0.050 C 
HETATM   22  C3  UNL     1      28.381   7.559  47.353  1.00  0.00    -0.018 A 
HETATM   23  C4  UNL     1      29.641   6.793  47.518  1.00  0.00     0.031 A 
HETATM   24  C5  UNL     1      29.460   5.480  48.197  1.00  0.00     0.033 A 
HETATM   25  C6  UNL     1      28.037   5.200  48.578  1.00  0.00     0.003 A 
ENDBRANCH  17  19
ENDBRANCH   1  17
BRANCH  15  26
HETATM   26  C17 UNL     1      24.372   2.082  52.324  1.00  0.00     0.142 C 
BRANCH  26  27
HETATM   27  C18 UNL     1      25.562   1.223  51.953  1.00  0.00     0.105 C 
HETATM   28 BR1  UNL     1      25.555  -0.331  53.140  1.00  0.00    -0.095 Br
ENDBRANCH  26  27
ENDBRANCH  15  26
TORSDOF 4
ENDMDL
MODEL 9
REMARK VINA RESULT:      -6.9     10.089     11.927
REMARK  4 active torsions:
REMARK  status: ('A' for Active; 'I' for Inactive)
REMARK    1  A    between atoms: C7_7  and  N1_8 
REMARK    2  A    between atoms: N1_8  and  C8_9 
REMARK    3  A    between atoms: N4_23  and  C17_24 
REMARK    4  A    between atoms: C17_24  and  C18_25 
ROOT
HETATM    1  C8  UNL     1      31.162   7.545  46.023  1.00  0.00     0.176 C 
HETATM    2  C9  UNL     1      31.827   6.210  46.136  1.00  0.00     0.127 C 
HETATM    3  C10 UNL     1      33.034   6.124  46.950  1.00  0.00     0.053 C 
HETATM    4  C11 UNL     1      33.845   6.829  47.751  1.00  0.00     0.093 C 
HETATM    5  C12 UNL     1      33.690   8.255  48.117  1.00  0.00     0.059 C 
HETATM    6  C13 UNL     1      33.420   9.256  47.311  1.00  0.00     0.036 C 
HETATM    7  S1  UNL     1      32.334   8.944  46.169  1.00  0.00    -0.014 SA
HETATM    8  N2  UNL     1      32.436   9.308  44.410  1.00  0.00    -0.214 NA
HETATM    9  C14 UNL     1      31.457   8.636  43.901  1.00  0.00     0.213 C 
HETATM   10  N3  UNL     1      30.638   7.872  44.734  1.00  0.00    -0.348 N 
HETATM   11  O1  UNL     1      34.990   6.396  48.408  1.00  0.00    -0.340 OA
HETATM   12  C15 UNL     1      35.186   5.025  48.688  1.00  0.00     0.279 C 
HETATM   13  C16 UNL     1      34.637   4.292  47.514  1.00  0.00     0.248 C 
HETATM   14  O2  UNL     1      35.288   3.240  47.186  1.00  0.00    -0.271 OA
HETATM   15  N4  UNL     1      33.455   4.749  46.811  1.00  0.00    -0.316 N 
HETATM   16  H15 UNL     1      29.691   7.553  44.433  1.00  0.00     0.163 HD
ENDROOT
BRANCH   1  17
HETATM   17  N1  UNL     1      30.110   7.753  46.993  1.00  0.00    -0.353 N 
HETATM   18  H10 UNL     1      30.067   8.599  47.626  1.00  0.00     0.163 HD
BRANCH  17  19
HETATM   19  C7  UNL     1      28.924   7.150  47.491  1.00  0.00     0.032 A 
HETATM   20  C2  UNL     1      27.605   7.754  47.462  1.00  0.00    -0.040 A 
HETATM   21  C1  UNL     1      27.466   9.107  46.869  1.00  0.00     0.050 C 
HETATM   22  C3  UNL     1      26.576   7.087  47.959  1.00  0.00    -0.018 A 
HETATM   23  C4  UNL     1      26.574   5.738  48.576  1.00  0.00     0.031 A 
HETATM   24  C5  UNL     1      27.916   5.096  48.619  1.00  0.00     0.033 A 
HETATM   25  C6  UNL     1      29.000   5.946  48.027  1.00  0.00     0.003 A 
ENDBRANCH  17  19
ENDBRANCH   1  17
BRANCH  15  26
HETATM   26  C17 UNL     1      32.876   3.677  46.052  1.00  0.00     0.142 C 
BRANCH  26  27
HETATM   27  C18 UNL     1      31.780   2.932  46.783  1.00  0.00     0.105 C 
HETATM   28 BR1  UNL     1      32.197   1.024  46.676  1.00  0.00    -0.095 Br
ENDBRANCH  26  27
ENDBRANCH  15  26
TORSDOF 4
ENDMDL
