MODEL 1
REMARK VINA RESULT:      -8.3      0.000      0.000
REMARK  7 active torsions:
REMARK  status: ('A' for Active; 'I' for Inactive)
REMARK    1  A    between atoms: C2_2  and  C3_3 
REMARK    2  A    between atoms: C3_3  and  C4_4 
REMARK    3  A    between atoms: C4_4  and  N1_5 
REMARK       I    between atoms: N1_5  and  C5_6 
REMARK    4  A    between atoms: C5_6  and  C6_8 
REMARK    5  A    between atoms: C9_11  and  S1_12 
REMARK    6  A    between atoms: S1_12  and  O4_15 
REMARK    7  A    between atoms: O4_15  and  C10_16 
ROOT
HETATM    1  C6  UNL     1      20.933   0.361  52.389  1.00  0.00     0.032 A 
HETATM    2  C7  UNL     1      21.342   0.977  51.224  1.00  0.00     0.018 A 
HETATM    3  C8  UNL     1      22.613   1.561  51.223  1.00  0.00     0.027 A 
HETATM    4  C9  UNL     1      23.456   1.541  52.331  1.00  0.00     0.086 A 
HETATM    5  C17 UNL     1      23.022   0.912  53.499  1.00  0.00     0.027 A 
HETATM    6  C18 UNL     1      21.765   0.338  53.491  1.00  0.00     0.018 A 
ENDROOT
BRANCH   4   7
HETATM    7  S1  UNL     1      25.016   2.292  52.234  1.00  0.00     0.303 S 
HETATM    8  O2  UNL     1      25.478   2.581  53.634  1.00  0.00    -0.193 OA
HETATM    9  O3  UNL     1      24.912   3.584  51.456  1.00  0.00    -0.193 OA
BRANCH   7  10
HETATM   10  O4  UNL     1      26.065   1.175  51.450  1.00  0.00    -0.229 OA
BRANCH  10  11
HETATM   11  C10 UNL     1      26.814   0.384  52.320  1.00  0.00     0.089 C 
HETATM   12  C11 UNL     1      27.878   0.981  52.969  1.00  0.00     0.038 C 
HETATM   13  C12 UNL     1      28.939   0.324  53.573  1.00  0.00     0.007 C 
HETATM   14  C13 UNL     1      29.319  -0.999  53.476  1.00  0.00     0.055 C 
HETATM   15  C14 UNL     1      28.447  -2.054  53.224  1.00  0.00     0.172 C 
HETATM   16  O5  UNL     1      28.924  -3.187  53.534  1.00  0.00    -0.289 OA
HETATM   17  C15 UNL     1      27.172  -2.037  52.698  1.00  0.00     0.057 C 
HETATM   18  C16 UNL     1      26.390  -0.926  52.425  1.00  0.00     0.042 C 
ENDBRANCH  10  11
ENDBRANCH   7  10
ENDBRANCH   4   7
BRANCH   1  19
HETATM   19  C5  UNL     1      19.605  -0.245  52.379  1.00  0.00     0.251 C 
HETATM   20  N1  UNL     1      19.074  -1.020  53.440  1.00  0.00    -0.357 N 
HETATM   21  H10 UNL     1      19.677  -1.168  54.289  1.00  0.00     0.162 HD
HETATM   22  O1  UNL     1      18.883  -0.080  51.387  1.00  0.00    -0.268 OA
BRANCH  20  23
HETATM   23  C4  UNL     1      17.735  -1.575  53.318  1.00  0.00     0.123 C 
BRANCH  23  24
HETATM   24  C3  UNL     1      17.772  -2.963  53.866  1.00  0.00     0.019 C 
BRANCH  24  25
HETATM   25  C2  UNL     1      16.745  -3.874  53.233  1.00  0.00    -0.003 C 
HETATM   26  C1  UNL     1      16.394  -5.053  54.091  1.00  0.00     0.005 C 
ENDBRANCH  24  25
ENDBRANCH  23  24
ENDBRANCH  20  23
ENDBRANCH   1  19
TORSDOF 7
ENDMDL
MODEL 2
REMARK VINA RESULT:      -8.1      4.122      7.711
REMARK  7 active torsions:
REMARK  status: ('A' for Active; 'I' for Inactive)
REMARK    1  A    between atoms: C2_2  and  C3_3 
REMARK    2  A    between atoms: C3_3  and  C4_4 
REMARK    3  A    between atoms: C4_4  and  N1_5 
REMARK       I    between atoms: N1_5  and  C5_6 
REMARK    4  A    between atoms: C5_6  and  C6_8 
REMARK    5  A    between atoms: C9_11  and  S1_12 
REMARK    6  A    between atoms: S1_12  and  O4_15 
REMARK    7  A    between atoms: O4_15  and  C10_16 
ROOT
HETATM    1  C6  UNL     1      25.198   1.200  53.514  1.00  0.00     0.032 A 
HETATM    2  C7  UNL     1      24.262   0.314  53.022  1.00  0.00     0.018 A 
HETATM    3  C8  UNL     1      23.104   0.858  52.456  1.00  0.00     0.027 A 
HETATM    4  C9  UNL     1      22.873   2.228  52.375  1.00  0.00     0.086 A 
HETATM    5  C17 UNL     1      23.834   3.107  52.879  1.00  0.00     0.027 A 
HETATM    6  C18 UNL     1      24.974   2.561  53.437  1.00  0.00     0.018 A 
ENDROOT
BRANCH   4   7
HETATM    7  S1  UNL     1      21.407   2.808  51.653  1.00  0.00     0.303 S 
HETATM    8  O2  UNL     1      21.060   4.119  52.301  1.00  0.00    -0.193 OA
HETATM    9  O3  UNL     1      20.294   1.813  51.890  1.00  0.00    -0.193 OA
BRANCH   7  10
HETATM   10  O4  UNL     1      21.717   3.008  49.972  1.00  0.00    -0.229 OA
BRANCH  10  11
HETATM   11  C10 UNL     1      22.863   3.749  49.684  1.00  0.00     0.089 C 
HETATM   12  C11 UNL     1      24.004   3.051  49.338  1.00  0.00     0.038 C 
HETATM   13  C12 UNL     1      25.301   3.541  49.365  1.00  0.00     0.007 C 
HETATM   14  C13 UNL     1      25.789   4.695  49.945  1.00  0.00     0.055 C 
HETATM   15  C14 UNL     1      25.048   5.858  50.131  1.00  0.00     0.172 C 
HETATM   16  O5  UNL     1      25.765   6.885  50.333  1.00  0.00    -0.289 OA
HETATM   17  C15 UNL     1      23.681   6.044  50.126  1.00  0.00     0.057 C 
HETATM   18  C16 UNL     1      22.708   5.118  49.785  1.00  0.00     0.042 C 
ENDBRANCH  10  11
ENDBRANCH   7  10
ENDBRANCH   4   7
BRANCH   1  19
HETATM   19  C5  UNL     1      26.402   0.623  54.103  1.00  0.00     0.251 C 
HETATM   20  N1  UNL     1      27.659   1.276  54.153  1.00  0.00    -0.357 N 
HETATM   21  H10 UNL     1      27.727   2.240  53.737  1.00  0.00     0.162 HD
HETATM   22  O1  UNL     1      26.338  -0.511  54.598  1.00  0.00    -0.268 OA
BRANCH  20  23
HETATM   23  C4  UNL     1      28.791   0.600  54.767  1.00  0.00     0.123 C 
BRANCH  23  24
HETATM   24  C3  UNL     1      29.725   0.202  53.672  1.00  0.00     0.019 C 
BRANCH  24  25
HETATM   25  C2  UNL     1      30.098  -1.262  53.719  1.00  0.00    -0.003 C 
HETATM   26  C1  UNL     1      29.045  -2.157  53.138  1.00  0.00     0.005 C 
ENDBRANCH  24  25
ENDBRANCH  23  24
ENDBRANCH  20  23
ENDBRANCH   1  19
TORSDOF 7
ENDMDL
MODEL 3
REMARK VINA RESULT:      -7.9      2.813      8.846
REMARK  7 active torsions:
REMARK  status: ('A' for Active; 'I' for Inactive)
REMARK    1  A    between atoms: C2_2  and  C3_3 
REMARK    2  A    between atoms: C3_3  and  C4_4 
REMARK    3  A    between atoms: C4_4  and  N1_5 
REMARK       I    between atoms: N1_5  and  C5_6 
REMARK    4  A    between atoms: C5_6  and  C6_8 
REMARK    5  A    between atoms: C9_11  and  S1_12 
REMARK    6  A    between atoms: S1_12  and  O4_15 
REMARK    7  A    between atoms: O4_15  and  C10_16 
ROOT
HETATM    1  C6  UNL     1      24.596   0.594  53.484  1.00  0.00     0.032 A 
HETATM    2  C7  UNL     1      23.554  -0.308  53.400  1.00  0.00     0.018 A 
HETATM    3  C8  UNL     1      22.372   0.137  52.799  1.00  0.00     0.027 A 
HETATM    4  C9  UNL     1      22.216   1.427  52.297  1.00  0.00     0.086 A 
HETATM    5  C17 UNL     1      23.283   2.323  52.393  1.00  0.00     0.027 A 
HETATM    6  C18 UNL     1      24.447   1.875  52.988  1.00  0.00     0.018 A 
ENDROOT
BRANCH   4   7
HETATM    7  S1  UNL     1      20.711   1.886  51.568  1.00  0.00     0.303 S 
HETATM    8  O2  UNL     1      21.007   2.893  50.493  1.00  0.00    -0.193 OA
HETATM    9  O3  UNL     1      19.808   2.504  52.610  1.00  0.00    -0.193 OA
BRANCH   7  10
HETATM   10  O4  UNL     1      20.015   0.457  50.908  1.00  0.00    -0.229 OA
BRANCH  10  11
HETATM   11  C10 UNL     1      18.798   0.093  51.484  1.00  0.00     0.089 C 
HETATM   12  C11 UNL     1      18.837  -0.527  52.719  1.00  0.00     0.038 C 
HETATM   13  C12 UNL     1      17.818  -1.274  53.290  1.00  0.00     0.007 C 
HETATM   14  C13 UNL     1      16.669  -1.774  52.712  1.00  0.00     0.055 C 
HETATM   15  C14 UNL     1      16.015  -1.196  51.628  1.00  0.00     0.172 C 
HETATM   16  O5  UNL     1      14.817  -1.589  51.494  1.00  0.00    -0.289 OA
HETATM   17  C15 UNL     1      16.477  -0.279  50.706  1.00  0.00     0.057 C 
HETATM   18  C16 UNL     1      17.683   0.402  50.730  1.00  0.00     0.042 C 
ENDBRANCH  10  11
ENDBRANCH   7  10
ENDBRANCH   4   7
BRANCH   1  19
HETATM   19  C5  UNL     1      25.825   0.120  54.112  1.00  0.00     0.251 C 
HETATM   20  N1  UNL     1      27.030   0.863  54.170  1.00  0.00    -0.357 N 
HETATM   21  H10 UNL     1      27.038   1.819  53.729  1.00  0.00     0.162 HD
HETATM   22  O1  UNL     1      25.830  -1.002  54.636  1.00  0.00    -0.268 OA
BRANCH  20  23
HETATM   23  C4  UNL     1      28.193   0.287  54.824  1.00  0.00     0.123 C 
BRANCH  23  24
HETATM   24  C3  UNL     1      29.383   0.587  53.972  1.00  0.00     0.019 C 
BRANCH  24  25
HETATM   25  C2  UNL     1      30.090  -0.658  53.488  1.00  0.00    -0.003 C 
HETATM   26  C1  UNL     1      29.169  -1.826  53.306  1.00  0.00     0.005 C 
ENDBRANCH  24  25
ENDBRANCH  23  24
ENDBRANCH  20  23
ENDBRANCH   1  19
TORSDOF 7
ENDMDL
MODEL 4
REMARK VINA RESULT:      -7.8      3.450      7.393
REMARK  7 active torsions:
REMARK  status: ('A' for Active; 'I' for Inactive)
REMARK    1  A    between atoms: C2_2  and  C3_3 
REMARK    2  A    between atoms: C3_3  and  C4_4 
REMARK    3  A    between atoms: C4_4  and  N1_5 
REMARK       I    between atoms: N1_5  and  C5_6 
REMARK    4  A    between atoms: C5_6  and  C6_8 
REMARK    5  A    between atoms: C9_11  and  S1_12 
REMARK    6  A    between atoms: S1_12  and  O4_15 
REMARK    7  A    between atoms: O4_15  and  C10_16 
ROOT
HETATM    1  C6  UNL     1      25.665   2.372  52.484  1.00  0.00     0.032 A 
HETATM    2  C7  UNL     1      25.428   2.242  51.130  1.00  0.00     0.018 A 
HETATM    3  C8  UNL     1      24.127   2.492  50.683  1.00  0.00     0.027 A 
HETATM    4  C9  UNL     1      23.089   2.858  51.537  1.00  0.00     0.086 A 
HETATM    5  C17 UNL     1      23.351   2.983  52.903  1.00  0.00     0.027 A 
HETATM    6  C18 UNL     1      24.639   2.734  53.336  1.00  0.00     0.018 A 
ENDROOT
BRANCH   4   7
HETATM    7  S1  UNL     1      21.508   3.148  50.888  1.00  0.00     0.303 S 
HETATM    8  O2  UNL     1      21.672   3.817  49.553  1.00  0.00    -0.193 OA
HETATM    9  O3  UNL     1      20.733   4.052  51.819  1.00  0.00    -0.193 OA
BRANCH   7  10
HETATM   10  O4  UNL     1      20.741   1.615  50.726  1.00  0.00    -0.229 OA
BRANCH  10  11
HETATM   11  C10 UNL     1      20.883   0.782  51.835  1.00  0.00     0.089 C 
HETATM   12  C11 UNL     1      20.020   0.981  52.896  1.00  0.00     0.038 C 
HETATM   13  C12 UNL     1      20.205   0.531  54.195  1.00  0.00     0.007 C 
HETATM   14  C13 UNL     1      21.340   0.021  54.791  1.00  0.00     0.055 C 
HETATM   15  C14 UNL     1      22.347  -0.661  54.115  1.00  0.00     0.172 C 
HETATM   16  O5  UNL     1      23.092  -1.346  54.879  1.00  0.00    -0.289 OA
HETATM   17  C15 UNL     1      22.639  -0.694  52.767  1.00  0.00     0.057 C 
HETATM   18  C16 UNL     1      21.892  -0.155  51.732  1.00  0.00     0.042 C 
ENDBRANCH  10  11
ENDBRANCH   7  10
ENDBRANCH   4   7
BRANCH   1  19
HETATM   19  C5  UNL     1      27.026   2.109  52.940  1.00  0.00     0.251 C 
HETATM   20  N1  UNL     1      27.349   1.510  54.183  1.00  0.00    -0.357 N 
HETATM   21  H10 UNL     1      26.555   1.237  54.818  1.00  0.00     0.162 HD
HETATM   22  O1  UNL     1      27.971   2.423  52.204  1.00  0.00    -0.268 OA
BRANCH  20  23
HETATM   23  C4  UNL     1      28.744   1.296  54.531  1.00  0.00     0.123 C 
BRANCH  23  24
HETATM   24  C3  UNL     1      28.948  -0.174  54.693  1.00  0.00     0.019 C 
BRANCH  24  25
HETATM   25  C2  UNL     1      29.694  -0.797  53.535  1.00  0.00    -0.003 C 
HETATM   26  C1  UNL     1      29.134  -2.123  53.119  1.00  0.00     0.005 C 
ENDBRANCH  24  25
ENDBRANCH  23  24
ENDBRANCH  20  23
ENDBRANCH   1  19
TORSDOF 7
ENDMDL
MODEL 5
REMARK VINA RESULT:      -7.8      5.682      9.585
REMARK  7 active torsions:
REMARK  status: ('A' for Active; 'I' for Inactive)
REMARK    1  A    between atoms: C2_2  and  C3_3 
REMARK    2  A    between atoms: C3_3  and  C4_4 
REMARK    3  A    between atoms: C4_4  and  N1_5 
REMARK       I    between atoms: N1_5  and  C5_6 
REMARK    4  A    between atoms: C5_6  and  C6_8 
REMARK    5  A    between atoms: C9_11  and  S1_12 
REMARK    6  A    between atoms: S1_12  and  O4_15 
REMARK    7  A    between atoms: O4_15  and  C10_16 
ROOT
HETATM    1  C6  UNL     1      27.506   5.980  48.592  1.00  0.00     0.032 A 
HETATM    2  C7  UNL     1      27.545   4.611  48.765  1.00  0.00     0.018 A 
HETATM    3  C8  UNL     1      26.430   4.011  49.357  1.00  0.00     0.027 A 
HETATM    4  C9  UNL     1      25.311   4.731  49.769  1.00  0.00     0.086 A 
HETATM    5  C17 UNL     1      25.292   6.115  49.584  1.00  0.00     0.027 A 
HETATM    6  C18 UNL     1      26.399   6.700  48.998  1.00  0.00     0.018 A 
ENDROOT
BRANCH   4   7
HETATM    7  S1  UNL     1      23.975   3.897  50.494  1.00  0.00     0.303 S 
HETATM    8  O2  UNL     1      23.641   2.716  49.626  1.00  0.00    -0.193 OA
HETATM    9  O3  UNL     1      22.782   4.821  50.577  1.00  0.00    -0.193 OA
BRANCH   7  10
HETATM   10  O4  UNL     1      24.484   3.395  52.059  1.00  0.00    -0.229 OA
BRANCH  10  11
HETATM   11  C10 UNL     1      24.624   2.015  52.202  1.00  0.00     0.089 C 
HETATM   12  C11 UNL     1      23.542   1.312  52.696  1.00  0.00     0.038 C 
HETATM   13  C12 UNL     1      23.577   0.038  53.242  1.00  0.00     0.007 C 
HETATM   14  C13 UNL     1      24.663  -0.715  53.641  1.00  0.00     0.055 C 
HETATM   15  C14 UNL     1      25.937  -0.614  53.092  1.00  0.00     0.172 C 
HETATM   16  O5  UNL     1      26.672  -1.618  53.335  1.00  0.00    -0.289 OA
HETATM   17  C15 UNL     1      26.496   0.399  52.339  1.00  0.00     0.057 C 
HETATM   18  C16 UNL     1      25.855   1.514  51.824  1.00  0.00     0.042 C 
ENDBRANCH  10  11
ENDBRANCH   7  10
ENDBRANCH   4   7
BRANCH   1  19
HETATM   19  C5  UNL     1      28.675   6.597  47.972  1.00  0.00     0.251 C 
HETATM   20  N1  UNL     1      30.006   6.416  48.423  1.00  0.00    -0.357 N 
HETATM   21  H10 UNL     1      30.161   5.797  49.260  1.00  0.00     0.162 HD
HETATM   22  O1  UNL     1      28.509   7.327  46.986  1.00  0.00    -0.268 OA
BRANCH  20  23
HETATM   23  C4  UNL     1      31.093   7.083  47.725  1.00  0.00     0.123 C 
BRANCH  23  24
HETATM   24  C3  UNL     1      31.903   6.030  47.043  1.00  0.00     0.019 C 
BRANCH  24  25
HETATM   25  C2  UNL     1      31.695   4.653  47.631  1.00  0.00    -0.003 C 
HETATM   26  C1  UNL     1      32.050   3.547  46.684  1.00  0.00     0.005 C 
ENDBRANCH  24  25
ENDBRANCH  23  24
ENDBRANCH  20  23
ENDBRANCH   1  19
TORSDOF 7
ENDMDL
MODEL 6
REMARK VINA RESULT:      -7.8      5.333      9.664
REMARK  7 active torsions:
REMARK  status: ('A' for Active; 'I' for Inactive)
REMARK    1  A    between atoms: C2_2  and  C3_3 
REMARK    2  A    between atoms: C3_3  and  C4_4 
REMARK    3  A    between atoms: C4_4  and  N1_5 
REMARK       I    between atoms: N1_5  and  C5_6 
REMARK    4  A    between atoms: C5_6  and  C6_8 
REMARK    5  A    between atoms: C9_11  and  S1_12 
REMARK    6  A    between atoms: S1_12  and  O4_15 
REMARK    7  A    between atoms: O4_15  and  C10_16 
ROOT
HETATM    1  C6  UNL     1      26.771   4.986  49.064  1.00  0.00     0.032 A 
HETATM    2  C7  UNL     1      26.812   3.664  49.456  1.00  0.00     0.018 A 
HETATM    3  C8  UNL     1      25.625   3.104  49.941  1.00  0.00     0.027 A 
HETATM    4  C9  UNL     1      24.435   3.820  50.038  1.00  0.00     0.086 A 
HETATM    5  C17 UNL     1      24.415   5.157  49.635  1.00  0.00     0.027 A 
HETATM    6  C18 UNL     1      25.593   5.702  49.158  1.00  0.00     0.018 A 
ENDROOT
BRANCH   4   7
HETATM    7  S1  UNL     1      23.014   3.039  50.651  1.00  0.00     0.303 S 
HETATM    8  O2  UNL     1      22.812   1.769  49.872  1.00  0.00    -0.193 OA
HETATM    9  O3  UNL     1      21.816   3.943  50.469  1.00  0.00    -0.193 OA
BRANCH   7  10
HETATM   10  O4  UNL     1      23.298   2.710  52.316  1.00  0.00    -0.229 OA
BRANCH  10  11
HETATM   11  C10 UNL     1      22.710   1.533  52.777  1.00  0.00     0.089 C 
HETATM   12  C11 UNL     1      21.339   1.529  52.947  1.00  0.00     0.038 C 
HETATM   13  C12 UNL     1      20.612   0.627  53.710  1.00  0.00     0.007 C 
HETATM   14  C13 UNL     1      21.057  -0.291  54.639  1.00  0.00     0.055 C 
HETATM   15  C14 UNL     1      22.311  -0.894  54.615  1.00  0.00     0.172 C 
HETATM   16  O5  UNL     1      22.378  -1.946  55.320  1.00  0.00    -0.289 OA
HETATM   17  C15 UNL     1      23.459  -0.517  53.948  1.00  0.00     0.057 C 
HETATM   18  C16 UNL     1      23.592   0.496  53.012  1.00  0.00     0.042 C 
ENDBRANCH  10  11
ENDBRANCH   7  10
ENDBRANCH   4   7
BRANCH   1  19
HETATM   19  C5  UNL     1      28.014   5.561  48.560  1.00  0.00     0.251 C 
HETATM   20  N1  UNL     1      28.274   6.951  48.474  1.00  0.00    -0.357 N 
HETATM   21  H10 UNL     1      27.520   7.612  48.794  1.00  0.00     0.162 HD
HETATM   22  O1  UNL     1      28.911   4.796  48.181  1.00  0.00    -0.268 OA
BRANCH  20  23
HETATM   23  C4  UNL     1      29.553   7.407  47.954  1.00  0.00     0.123 C 
BRANCH  23  24
HETATM   24  C3  UNL     1      30.226   8.186  49.035  1.00  0.00     0.019 C 
BRANCH  24  25
HETATM   25  C2  UNL     1      31.661   7.765  49.259  1.00  0.00    -0.003 C 
HETATM   26  C1  UNL     1      31.802   6.314  49.608  1.00  0.00     0.005 C 
ENDBRANCH  24  25
ENDBRANCH  23  24
ENDBRANCH  20  23
ENDBRANCH   1  19
TORSDOF 7
ENDMDL
MODEL 7
REMARK VINA RESULT:      -7.7      5.796      9.824
REMARK  7 active torsions:
REMARK  status: ('A' for Active; 'I' for Inactive)
REMARK    1  A    between atoms: C2_2  and  C3_3 
REMARK    2  A    between atoms: C3_3  and  C4_4 
REMARK    3  A    between atoms: C4_4  and  N1_5 
REMARK       I    between atoms: N1_5  and  C5_6 
REMARK    4  A    between atoms: C5_6  and  C6_8 
REMARK    5  A    between atoms: C9_11  and  S1_12 
REMARK    6  A    between atoms: S1_12  and  O4_15 
REMARK    7  A    between atoms: O4_15  and  C10_16 
ROOT
HETATM    1  C6  UNL     1      27.373   5.697  48.640  1.00  0.00     0.032 A 
HETATM    2  C7  UNL     1      27.367   4.359  48.978  1.00  0.00     0.018 A 
HETATM    3  C8  UNL     1      26.149   3.812  49.396  1.00  0.00     0.027 A 
HETATM    4  C9  UNL     1      24.975   4.555  49.481  1.00  0.00     0.086 A 
HETATM    5  C17 UNL     1      25.004   5.907  49.135  1.00  0.00     0.027 A 
HETATM    6  C18 UNL     1      26.211   6.439  48.722  1.00  0.00     0.018 A 
ENDROOT
BRANCH   4   7
HETATM    7  S1  UNL     1      23.513   3.788  50.011  1.00  0.00     0.303 S 
HETATM    8  O2  UNL     1      23.350   2.515  49.229  1.00  0.00    -0.193 OA
HETATM    9  O3  UNL     1      22.335   4.700  49.750  1.00  0.00    -0.193 OA
BRANCH   7  10
HETATM   10  O4  UNL     1      23.693   3.468  51.692  1.00  0.00    -0.229 OA
BRANCH  10  11
HETATM   11  C10 UNL     1      23.933   2.129  51.998  1.00  0.00     0.089 C 
HETATM   12  C11 UNL     1      22.847   1.348  52.343  1.00  0.00     0.038 C 
HETATM   13  C12 UNL     1      22.893   0.134  53.013  1.00  0.00     0.007 C 
HETATM   14  C13 UNL     1      23.943  -0.454  53.688  1.00  0.00     0.055 C 
HETATM   15  C14 UNL     1      25.287  -0.251  53.388  1.00  0.00     0.172 C 
HETATM   16  O5  UNL     1      26.051  -1.141  53.869  1.00  0.00    -0.289 OA
HETATM   17  C15 UNL     1      25.886   0.755  52.658  1.00  0.00     0.057 C 
HETATM   18  C16 UNL     1      25.258   1.744  51.918  1.00  0.00     0.042 C 
ENDBRANCH  10  11
ENDBRANCH   7  10
ENDBRANCH   4   7
BRANCH   1  19
HETATM   19  C5  UNL     1      28.649   6.258  48.205  1.00  0.00     0.251 C 
HETATM   20  N1  UNL     1      29.876   6.074  48.888  1.00  0.00    -0.357 N 
HETATM   21  H10 UNL     1      29.866   5.495  49.767  1.00  0.00     0.162 HD
HETATM   22  O1  UNL     1      28.676   6.940  47.172  1.00  0.00    -0.268 OA
BRANCH  20  23
HETATM   23  C4  UNL     1      31.086   6.682  48.358  1.00  0.00     0.123 C 
BRANCH  23  24
HETATM   24  C3  UNL     1      31.473   7.791  49.281  1.00  0.00     0.019 C 
BRANCH  24  25
HETATM   25  C2  UNL     1      31.096   9.156  48.752  1.00  0.00    -0.003 C 
HETATM   26  C1  UNL     1      29.871   9.723  49.404  1.00  0.00     0.005 C 
ENDBRANCH  24  25
ENDBRANCH  23  24
ENDBRANCH  20  23
ENDBRANCH   1  19
TORSDOF 7
ENDMDL
MODEL 8
REMARK VINA RESULT:      -7.6      5.467      9.718
REMARK  7 active torsions:
REMARK  status: ('A' for Active; 'I' for Inactive)
REMARK    1  A    between atoms: C2_2  and  C3_3 
REMARK    2  A    between atoms: C3_3  and  C4_4 
REMARK    3  A    between atoms: C4_4  and  N1_5 
REMARK       I    between atoms: N1_5  and  C5_6 
REMARK    4  A    between atoms: C5_6  and  C6_8 
REMARK    5  A    between atoms: C9_11  and  S1_12 
REMARK    6  A    between atoms: S1_12  and  O4_15 
REMARK    7  A    between atoms: O4_15  and  C10_16 
ROOT
HETATM    1  C6  UNL     1      27.119   5.645  48.654  1.00  0.00     0.032 A 
HETATM    2  C7  UNL     1      27.070   4.347  49.119  1.00  0.00     0.018 A 
HETATM    3  C8  UNL     1      25.819   3.855  49.505  1.00  0.00     0.027 A 
HETATM    4  C9  UNL     1      24.653   4.613  49.438  1.00  0.00     0.086 A 
HETATM    5  C17 UNL     1      24.726   5.924  48.964  1.00  0.00     0.027 A 
HETATM    6  C18 UNL     1      25.966   6.402  48.585  1.00  0.00     0.018 A 
ENDROOT
BRANCH   4   7
HETATM    7  S1  UNL     1      23.147   3.915  49.939  1.00  0.00     0.303 S 
HETATM    8  O2  UNL     1      22.085   4.368  48.978  1.00  0.00    -0.193 OA
HETATM    9  O3  UNL     1      22.806   4.386  51.335  1.00  0.00    -0.193 OA
BRANCH   7  10
HETATM   10  O4  UNL     1      23.343   2.206  49.889  1.00  0.00    -0.229 OA
BRANCH  10  11
HETATM   11  C10 UNL     1      23.191   1.574  51.123  1.00  0.00     0.089 C 
HETATM   12  C11 UNL     1      24.293   1.523  51.954  1.00  0.00     0.038 C 
HETATM   13  C12 UNL     1      24.467   0.662  53.027  1.00  0.00     0.007 C 
HETATM   14  C13 UNL     1      23.749  -0.464  53.372  1.00  0.00     0.055 C 
HETATM   15  C14 UNL     1      22.405  -0.665  53.071  1.00  0.00     0.172 C 
HETATM   16  O5  UNL     1      21.860  -1.566  53.777  1.00  0.00    -0.289 OA
HETATM   17  C15 UNL     1      21.606  -0.037  52.138  1.00  0.00     0.057 C 
HETATM   18  C16 UNL     1      21.929   1.065  51.362  1.00  0.00     0.042 C 
ENDBRANCH  10  11
ENDBRANCH   7  10
ENDBRANCH   4   7
BRANCH   1  19
HETATM   19  C5  UNL     1      28.429   6.149  48.253  1.00  0.00     0.251 C 
HETATM   20  N1  UNL     1      29.649   5.787  48.877  1.00  0.00    -0.357 N 
HETATM   21  H10 UNL     1      29.606   5.111  49.683  1.00  0.00     0.162 HD
HETATM   22  O1  UNL     1      28.496   6.945  47.307  1.00  0.00    -0.268 OA
BRANCH  20  23
HETATM   23  C4  UNL     1      30.896   6.355  48.390  1.00  0.00     0.123 C 
BRANCH  23  24
HETATM   24  C3  UNL     1      31.499   5.370  47.444  1.00  0.00     0.019 C 
BRANCH  24  25
HETATM   25  C2  UNL     1      32.749   4.718  47.989  1.00  0.00    -0.003 C 
HETATM   26  C1  UNL     1      32.831   3.253  47.684  1.00  0.00     0.005 C 
ENDBRANCH  24  25
ENDBRANCH  23  24
ENDBRANCH  20  23
ENDBRANCH   1  19
TORSDOF 7
ENDMDL
MODEL 9
REMARK VINA RESULT:      -7.6      3.947      7.991
REMARK  7 active torsions:
REMARK  status: ('A' for Active; 'I' for Inactive)
REMARK    1  A    between atoms: C2_2  and  C3_3 
REMARK    2  A    between atoms: C3_3  and  C4_4 
REMARK    3  A    between atoms: C4_4  and  N1_5 
REMARK       I    between atoms: N1_5  and  C5_6 
REMARK    4  A    between atoms: C5_6  and  C6_8 
REMARK    5  A    between atoms: C9_11  and  S1_12 
REMARK    6  A    between atoms: S1_12  and  O4_15 
REMARK    7  A    between atoms: O4_15  and  C10_16 
ROOT
HETATM    1  C6  UNL     1      24.827   1.588  53.179  1.00  0.00     0.032 A 
HETATM    2  C7  UNL     1      24.183   2.793  52.985  1.00  0.00     0.018 A 
HETATM    3  C8  UNL     1      22.820   2.746  52.675  1.00  0.00     0.027 A 
HETATM    4  C9  UNL     1      22.111   1.553  52.558  1.00  0.00     0.086 A 
HETATM    5  C17 UNL     1      22.783   0.345  52.759  1.00  0.00     0.027 A 
HETATM    6  C18 UNL     1      24.129   0.402  53.064  1.00  0.00     0.018 A 
ENDROOT
BRANCH   4   7
HETATM    7  S1  UNL     1      20.422   1.595  52.171  1.00  0.00     0.303 S 
HETATM    8  O2  UNL     1      19.859   2.885  52.698  1.00  0.00    -0.193 OA
HETATM    9  O3  UNL     1      19.719   0.428  52.826  1.00  0.00    -0.193 OA
BRANCH   7  10
HETATM   10  O4  UNL     1      20.296   1.516  50.457  1.00  0.00    -0.229 OA
BRANCH  10  11
HETATM   11  C10 UNL     1      21.082   2.448  49.780  1.00  0.00     0.089 C 
HETATM   12  C11 UNL     1      22.235   1.989  49.172  1.00  0.00     0.038 C 
HETATM   13  C12 UNL     1      23.312   2.765  48.772  1.00  0.00     0.007 C 
HETATM   14  C13 UNL     1      23.609   4.077  49.080  1.00  0.00     0.055 C 
HETATM   15  C14 UNL     1      22.660   5.051  49.377  1.00  0.00     0.172 C 
HETATM   16  O5  UNL     1      23.102   6.234  49.269  1.00  0.00    -0.289 OA
HETATM   17  C15 UNL     1      21.343   4.911  49.762  1.00  0.00     0.057 C 
HETATM   18  C16 UNL     1      20.600   3.742  49.805  1.00  0.00     0.042 C 
ENDBRANCH  10  11
ENDBRANCH   7  10
ENDBRANCH   4   7
BRANCH   1  19
HETATM   19  C5  UNL     1      26.249   1.649  53.502  1.00  0.00     0.251 C 
HETATM   20  N1  UNL     1      27.243   0.850  52.885  1.00  0.00    -0.357 N 
HETATM   21  H10 UNL     1      26.934   0.167  52.146  1.00  0.00     0.162 HD
HETATM   22  O1  UNL     1      26.629   2.448  54.369  1.00  0.00    -0.268 OA
BRANCH  20  23
HETATM   23  C4  UNL     1      28.632   0.998  53.289  1.00  0.00     0.123 C 
BRANCH  23  24
HETATM   24  C3  UNL     1      28.934  -0.091  54.266  1.00  0.00     0.019 C 
BRANCH  24  25
HETATM   25  C2  UNL     1      29.859  -1.146  53.705  1.00  0.00    -0.003 C 
HETATM   26  C1  UNL     1      29.135  -2.362  53.212  1.00  0.00     0.005 C 
ENDBRANCH  24  25
ENDBRANCH  23  24
ENDBRANCH  20  23
ENDBRANCH   1  19
TORSDOF 7
ENDMDL
