MODEL 1
REMARK VINA RESULT:      -7.4      0.000      0.000
REMARK  6 active torsions:
REMARK  status: ('A' for Active; 'I' for Inactive)
REMARK    1  A    between atoms: C5_7  and  O1_8 
REMARK    2  A    between atoms: O1_8  and  C6_9 
REMARK    3  A    between atoms: C6_9  and  S1_10 
REMARK    4  A    between atoms: S1_10  and  C7_11 
REMARK    5  A    between atoms: C7_11  and  C8_12 
REMARK    6  A    between atoms: C14_18  and  O2_19 
ROOT
HETATM    1  C1  UNL     1      29.472  -2.184  53.442  1.00  0.00     0.048 C 
HETATM    2  C2  UNL     1      28.833  -0.849  53.549  1.00  0.00    -0.058 C 
HETATM    3  C3  UNL     1      29.592   0.180  53.958  1.00  0.00     0.027 C 
HETATM    4  C4  UNL     1      29.348   1.609  54.187  1.00  0.00     0.141 C 
HETATM    5  N1  UNL     1      28.301   2.363  54.194  1.00  0.00    -0.160 NA
HETATM    6  N2  UNL     1      26.913   2.158  53.983  1.00  0.00    -0.122 NA
HETATM    7  C5  UNL     1      26.154   1.188  53.592  1.00  0.00     0.220 C 
HETATM    8  C14 UNL     1      26.370  -0.193  53.169  1.00  0.00     0.121 C 
HETATM    9  C15 UNL     1      27.425  -0.998  53.151  1.00  0.00     0.048 C 
ENDROOT
BRANCH   7  10
HETATM   10  O1  UNL     1      24.860   1.668  53.611  1.00  0.00    -0.321 OA
BRANCH  10  11
HETATM   11  C6  UNL     1      24.575   2.940  53.058  1.00  0.00     0.251 C 
BRANCH  11  12
HETATM   12  S1  UNL     1      24.475   2.713  51.252  1.00  0.00    -0.138 SA
BRANCH  12  13
HETATM   13  C7  UNL     1      26.115   2.836  50.484  1.00  0.00     0.114 C 
BRANCH  13  14
HETATM   14  C8  UNL     1      26.250   4.184  49.876  1.00  0.00    -0.049 A 
HETATM   15  C9  UNL     1      27.303   4.420  49.005  1.00  0.00     0.008 A 
HETATM   16  C10 UNL     1      27.568   5.599  48.364  1.00  0.00     0.001 A 
HETATM   17  C11 UNL     1      26.690   6.637  48.625  1.00  0.00     0.000 A 
HETATM   18  C12 UNL     1      25.621   6.478  49.478  1.00  0.00     0.001 A 
HETATM   19  C13 UNL     1      25.405   5.247  50.101  1.00  0.00     0.008 A 
ENDBRANCH  13  14
ENDBRANCH  12  13
ENDBRANCH  11  12
ENDBRANCH  10  11
ENDBRANCH   7  10
BRANCH   8  20
HETATM   20  O2  UNL     1      25.180  -0.719  52.696  1.00  0.00    -0.356 OA
HETATM   21  H15 UNL     1      24.330  -0.574  53.260  1.00  0.00     0.218 HD
ENDBRANCH   8  20
TORSDOF 6
ENDMDL
MODEL 2
REMARK VINA RESULT:      -6.7      2.456      3.301
REMARK  6 active torsions:
REMARK  status: ('A' for Active; 'I' for Inactive)
REMARK    1  A    between atoms: C5_7  and  O1_8 
REMARK    2  A    between atoms: O1_8  and  C6_9 
REMARK    3  A    between atoms: C6_9  and  S1_10 
REMARK    4  A    between atoms: S1_10  and  C7_11 
REMARK    5  A    between atoms: C7_11  and  C8_12 
REMARK    6  A    between atoms: C14_18  and  O2_19 
ROOT
HETATM    1  C1  UNL     1      27.240  -1.564  52.758  1.00  0.00     0.048 C 
HETATM    2  C2  UNL     1      26.221  -0.486  52.767  1.00  0.00    -0.058 C 
HETATM    3  C3  UNL     1      24.989  -0.791  53.204  1.00  0.00     0.027 C 
HETATM    4  C4  UNL     1      23.741  -0.036  53.365  1.00  0.00     0.141 C 
HETATM    5  N1  UNL     1      23.345   1.147  53.037  1.00  0.00    -0.160 NA
HETATM    6  N2  UNL     1      23.933   2.256  52.377  1.00  0.00    -0.122 NA
HETATM    7  C5  UNL     1      25.107   2.581  51.946  1.00  0.00     0.220 C 
HETATM    8  C14 UNL     1      26.421   1.944  51.935  1.00  0.00     0.121 C 
HETATM    9  C15 UNL     1      26.862   0.735  52.258  1.00  0.00     0.048 C 
ENDROOT
BRANCH   7  10
HETATM   10  O1  UNL     1      24.988   3.836  51.384  1.00  0.00    -0.321 OA
BRANCH  10  11
HETATM   11  C6  UNL     1      23.967   4.711  51.830  1.00  0.00     0.251 C 
BRANCH  11  12
HETATM   12  S1  UNL     1      23.893   6.081  50.631  1.00  0.00    -0.138 SA
BRANCH  12  13
HETATM   13  C7  UNL     1      24.268   5.505  48.952  1.00  0.00     0.114 C 
BRANCH  13  14
HETATM   14  C8  UNL     1      25.669   5.875  48.629  1.00  0.00    -0.049 A 
HETATM   15  C9  UNL     1      25.921   7.127  48.087  1.00  0.00     0.008 A 
HETATM   16  C10 UNL     1      27.147   7.620  47.735  1.00  0.00     0.001 A 
HETATM   17  C11 UNL     1      28.221   6.772  47.949  1.00  0.00     0.000 A 
HETATM   18  C12 UNL     1      28.049   5.514  48.483  1.00  0.00     0.001 A 
HETATM   19  C13 UNL     1      26.769   5.071  48.822  1.00  0.00     0.008 A 
ENDBRANCH  13  14
ENDBRANCH  12  13
ENDBRANCH  11  12
ENDBRANCH  10  11
ENDBRANCH   7  10
BRANCH   8  20
HETATM   20  O2  UNL     1      27.365   2.848  51.479  1.00  0.00    -0.356 OA
HETATM   21  H15 UNL     1      27.113   3.447  50.679  1.00  0.00     0.218 HD
ENDBRANCH   8  20
TORSDOF 6
ENDMDL
MODEL 3
REMARK VINA RESULT:      -6.6      2.787      7.582
REMARK  6 active torsions:
REMARK  status: ('A' for Active; 'I' for Inactive)
REMARK    1  A    between atoms: C5_7  and  O1_8 
REMARK    2  A    between atoms: O1_8  and  C6_9 
REMARK    3  A    between atoms: C6_9  and  S1_10 
REMARK    4  A    between atoms: S1_10  and  C7_11 
REMARK    5  A    between atoms: C7_11  and  C8_12 
REMARK    6  A    between atoms: C14_18  and  O2_19 
ROOT
HETATM    1  C1  UNL     1      25.977   8.216  47.137  1.00  0.00     0.048 C 
HETATM    2  C2  UNL     1      25.465   7.021  47.851  1.00  0.00    -0.058 C 
HETATM    3  C3  UNL     1      24.136   6.848  47.912  1.00  0.00     0.027 C 
HETATM    4  C4  UNL     1      23.260   5.830  48.505  1.00  0.00     0.141 C 
HETATM    5  N1  UNL     1      23.440   4.811  49.274  1.00  0.00    -0.160 NA
HETATM    6  N2  UNL     1      24.564   4.207  49.896  1.00  0.00    -0.122 NA
HETATM    7  C5  UNL     1      25.848   4.348  49.859  1.00  0.00     0.220 C 
HETATM    8  C14 UNL     1      26.777   5.216  49.141  1.00  0.00     0.121 C 
HETATM    9  C15 UNL     1      26.628   6.271  48.349  1.00  0.00     0.048 C 
ENDROOT
BRANCH   7  10
HETATM   10  O1  UNL     1      26.371   3.417  50.734  1.00  0.00    -0.321 OA
BRANCH  10  11
HETATM   11  C6  UNL     1      25.562   2.348  51.188  1.00  0.00     0.251 C 
BRANCH  11  12
HETATM   12  S1  UNL     1      25.927   2.133  52.961  1.00  0.00    -0.138 SA
BRANCH  12  13
HETATM   13  C7  UNL     1      27.717   2.086  53.260  1.00  0.00     0.114 C 
BRANCH  13  14
HETATM   14  C8  UNL     1      28.159   0.668  53.248  1.00  0.00    -0.049 A 
HETATM   15  C9  UNL     1      29.454   0.370  53.643  1.00  0.00     0.008 A 
HETATM   16  C10 UNL     1      30.014  -0.877  53.689  1.00  0.00     0.001 A 
HETATM   17  C11 UNL     1      29.193  -1.922  53.300  1.00  0.00     0.000 A 
HETATM   18  C12 UNL     1      27.894  -1.703  52.895  1.00  0.00     0.001 A 
HETATM   19  C13 UNL     1      27.382  -0.404  52.872  1.00  0.00     0.008 A 
ENDBRANCH  13  14
ENDBRANCH  12  13
ENDBRANCH  11  12
ENDBRANCH  10  11
ENDBRANCH   7  10
BRANCH   8  20
HETATM   20  O2  UNL     1      28.074   4.797  49.379  1.00  0.00    -0.356 OA
HETATM   21  H15 UNL     1      28.214   4.000  50.018  1.00  0.00     0.218 HD
ENDBRANCH   8  20
TORSDOF 6
ENDMDL
MODEL 4
REMARK VINA RESULT:      -6.6      2.747      6.775
REMARK  6 active torsions:
REMARK  status: ('A' for Active; 'I' for Inactive)
REMARK    1  A    between atoms: C5_7  and  O1_8 
REMARK    2  A    between atoms: O1_8  and  C6_9 
REMARK    3  A    between atoms: C6_9  and  S1_10 
REMARK    4  A    between atoms: S1_10  and  C7_11 
REMARK    5  A    between atoms: C7_11  and  C8_12 
REMARK    6  A    between atoms: C14_18  and  O2_19 
ROOT
HETATM    1  C1  UNL     1      29.055   6.346  48.171  1.00  0.00     0.048 C 
HETATM    2  C2  UNL     1      27.609   6.065  48.354  1.00  0.00    -0.058 C 
HETATM    3  C3  UNL     1      26.736   7.029  48.022  1.00  0.00     0.027 C 
HETATM    4  C4  UNL     1      25.273   7.143  48.052  1.00  0.00     0.141 C 
HETATM    5  N1  UNL     1      24.313   6.414  48.512  1.00  0.00    -0.160 NA
HETATM    6  N2  UNL     1      24.232   5.174  49.196  1.00  0.00    -0.122 NA
HETATM    7  C5  UNL     1      25.046   4.228  49.530  1.00  0.00     0.220 C 
HETATM    8  C14 UNL     1      26.475   3.979  49.355  1.00  0.00     0.121 C 
HETATM    9  C15 UNL     1      27.487   4.702  48.891  1.00  0.00     0.048 C 
ENDROOT
BRANCH   7  10
HETATM   10  O1  UNL     1      24.298   3.282  50.200  1.00  0.00    -0.321 OA
BRANCH  10  11
HETATM   11  C6  UNL     1      23.640   3.632  51.404  1.00  0.00     0.251 C 
BRANCH  11  12
HETATM   12  S1  UNL     1      24.501   2.747  52.745  1.00  0.00    -0.138 SA
BRANCH  12  13
HETATM   13  C7  UNL     1      24.735   0.996  52.332  1.00  0.00     0.114 C 
BRANCH  13  14
HETATM   14  C8  UNL     1      26.044   0.555  52.878  1.00  0.00    -0.049 A 
HETATM   15  C9  UNL     1      26.551  -0.674  52.484  1.00  0.00     0.008 A 
HETATM   16  C10 UNL     1      27.735  -1.224  52.892  1.00  0.00     0.001 A 
HETATM   17  C11 UNL     1      28.478  -0.465  53.780  1.00  0.00     0.000 A 
HETATM   18  C12 UNL     1      28.039   0.765  54.217  1.00  0.00     0.001 A 
HETATM   19  C13 UNL     1      26.819   1.271  53.762  1.00  0.00     0.008 A 
ENDBRANCH  13  14
ENDBRANCH  12  13
ENDBRANCH  11  12
ENDBRANCH  10  11
ENDBRANCH   7  10
BRANCH   8  20
HETATM   20  O2  UNL     1      26.773   2.697  49.783  1.00  0.00    -0.356 OA
HETATM   21  H15 UNL     1      25.987   2.060  49.982  1.00  0.00     0.218 HD
ENDBRANCH   8  20
TORSDOF 6
ENDMDL
MODEL 5
REMARK VINA RESULT:      -6.4      3.349      7.473
REMARK  6 active torsions:
REMARK  status: ('A' for Active; 'I' for Inactive)
REMARK    1  A    between atoms: C5_7  and  O1_8 
REMARK    2  A    between atoms: O1_8  and  C6_9 
REMARK    3  A    between atoms: C6_9  and  S1_10 
REMARK    4  A    between atoms: S1_10  and  C7_11 
REMARK    5  A    between atoms: C7_11  and  C8_12 
REMARK    6  A    between atoms: C14_18  and  O2_19 
ROOT
HETATM    1  C1  UNL     1      25.057   8.255  47.674  1.00  0.00     0.048 C 
HETATM    2  C2  UNL     1      25.855   7.107  48.169  1.00  0.00    -0.058 C 
HETATM    3  C3  UNL     1      27.154   7.053  47.833  1.00  0.00     0.027 C 
HETATM    4  C4  UNL     1      28.248   6.116  48.111  1.00  0.00     0.141 C 
HETATM    5  N1  UNL     1      28.333   4.957  48.672  1.00  0.00    -0.160 NA
HETATM    6  N2  UNL     1      27.412   4.063  49.275  1.00  0.00    -0.122 NA
HETATM    7  C5  UNL     1      26.165   4.082  49.612  1.00  0.00     0.220 C 
HETATM    8  C14 UNL     1      25.083   5.060  49.531  1.00  0.00     0.121 C 
HETATM    9  C15 UNL     1      24.959   6.253  48.963  1.00  0.00     0.048 C 
ENDROOT
BRANCH   7  10
HETATM   10  O1  UNL     1      25.888   2.850  50.168  1.00  0.00    -0.321 OA
BRANCH  10  11
HETATM   11  C6  UNL     1      26.617   2.410  51.300  1.00  0.00     0.251 C 
BRANCH  11  12
HETATM   12  S1  UNL     1      25.390   1.893  52.544  1.00  0.00    -0.138 SA
BRANCH  12  13
HETATM   13  C7  UNL     1      23.843   1.362  51.757  1.00  0.00     0.114 C 
BRANCH  13  14
HETATM   14  C8  UNL     1      22.991   0.712  52.786  1.00  0.00    -0.049 A 
HETATM   15  C9  UNL     1      23.536  -0.300  53.562  1.00  0.00     0.008 A 
HETATM   16  C10 UNL     1      22.890  -0.997  54.546  1.00  0.00     0.001 A 
HETATM   17  C11 UNL     1      21.571  -0.640  54.770  1.00  0.00     0.000 A 
HETATM   18  C12 UNL     1      20.961   0.355  54.039  1.00  0.00     0.001 A 
HETATM   19  C13 UNL     1      21.677   1.029  53.047  1.00  0.00     0.008 A 
ENDBRANCH  13  14
ENDBRANCH  12  13
ENDBRANCH  11  12
ENDBRANCH  10  11
ENDBRANCH   7  10
BRANCH   8  20
HETATM   20  O2  UNL     1      23.978   4.579  50.212  1.00  0.00    -0.356 OA
HETATM   21  H15 UNL     1      24.110   3.768  50.835  1.00  0.00     0.218 HD
ENDBRANCH   8  20
TORSDOF 6
ENDMDL
MODEL 6
REMARK VINA RESULT:      -6.4      3.258      6.964
REMARK  6 active torsions:
REMARK  status: ('A' for Active; 'I' for Inactive)
REMARK    1  A    between atoms: C5_7  and  O1_8 
REMARK    2  A    between atoms: O1_8  and  C6_9 
REMARK    3  A    between atoms: C6_9  and  S1_10 
REMARK    4  A    between atoms: S1_10  and  C7_11 
REMARK    5  A    between atoms: C7_11  and  C8_12 
REMARK    6  A    between atoms: C14_18  and  O2_19 
ROOT
HETATM    1  C1  UNL     1      29.632   6.495  47.610  1.00  0.00     0.048 C 
HETATM    2  C2  UNL     1      28.181   6.443  47.915  1.00  0.00    -0.058 C 
HETATM    3  C3  UNL     1      27.434   7.512  47.598  1.00  0.00     0.027 C 
HETATM    4  C4  UNL     1      26.011   7.846  47.731  1.00  0.00     0.141 C 
HETATM    5  N1  UNL     1      24.996   7.290  48.302  1.00  0.00    -0.160 NA
HETATM    6  N2  UNL     1      24.790   6.107  49.057  1.00  0.00    -0.122 NA
HETATM    7  C5  UNL     1      25.482   5.064  49.379  1.00  0.00     0.220 C 
HETATM    8  C14 UNL     1      26.840   4.596  49.111  1.00  0.00     0.121 C 
HETATM    9  C15 UNL     1      27.905   5.138  48.534  1.00  0.00     0.048 C 
ENDROOT
BRANCH   7  10
HETATM   10  O1  UNL     1      24.662   4.271  50.155  1.00  0.00    -0.321 OA
BRANCH  10  11
HETATM   11  C6  UNL     1      23.393   3.880  49.662  1.00  0.00     0.251 C 
BRANCH  11  12
HETATM   12  S1  UNL     1      23.049   2.230  50.355  1.00  0.00    -0.138 SA
BRANCH  12  13
HETATM   13  C7  UNL     1      23.275   2.216  52.156  1.00  0.00     0.114 C 
BRANCH  13  14
HETATM   14  C8  UNL     1      24.299   1.194  52.494  1.00  0.00    -0.049 A 
HETATM   15  C9  UNL     1      25.515   1.224  51.829  1.00  0.00     0.008 A 
HETATM   16  C10 UNL     1      26.558   0.360  52.021  1.00  0.00     0.001 A 
HETATM   17  C11 UNL     1      26.357  -0.626  52.972  1.00  0.00     0.000 A 
HETATM   18  C12 UNL     1      25.174  -0.719  53.673  1.00  0.00     0.001 A 
HETATM   19  C13 UNL     1      24.148   0.196  53.429  1.00  0.00     0.008 A 
ENDBRANCH  13  14
ENDBRANCH  12  13
ENDBRANCH  11  12
ENDBRANCH  10  11
ENDBRANCH   7  10
BRANCH   8  20
HETATM   20  O2  UNL     1      26.981   3.304  49.586  1.00  0.00    -0.356 OA
HETATM   21  H15 UNL     1      27.816   2.773  49.298  1.00  0.00     0.218 HD
ENDBRANCH   8  20
TORSDOF 6
ENDMDL
MODEL 7
REMARK VINA RESULT:      -6.4      3.192      5.084
REMARK  6 active torsions:
REMARK  status: ('A' for Active; 'I' for Inactive)
REMARK    1  A    between atoms: C5_7  and  O1_8 
REMARK    2  A    between atoms: O1_8  and  C6_9 
REMARK    3  A    between atoms: C6_9  and  S1_10 
REMARK    4  A    between atoms: S1_10  and  C7_11 
REMARK    5  A    between atoms: C7_11  and  C8_12 
REMARK    6  A    between atoms: C14_18  and  O2_19 
ROOT
HETATM    1  C1  UNL     1      28.970  -0.362  53.397  1.00  0.00     0.048 C 
HETATM    2  C2  UNL     1      27.579   0.128  53.235  1.00  0.00    -0.058 C 
HETATM    3  C3  UNL     1      26.593  -0.587  53.799  1.00  0.00     0.027 C 
HETATM    4  C4  UNL     1      25.134  -0.446  53.868  1.00  0.00     0.141 C 
HETATM    5  N1  UNL     1      24.269   0.338  53.319  1.00  0.00    -0.160 NA
HETATM    6  N2  UNL     1      24.331   1.419  52.403  1.00  0.00    -0.122 NA
HETATM    7  C5  UNL     1      25.256   2.126  51.843  1.00  0.00     0.220 C 
HETATM    8  C14 UNL     1      26.716   2.150  51.891  1.00  0.00     0.121 C 
HETATM    9  C15 UNL     1      27.633   1.363  52.439  1.00  0.00     0.048 C 
ENDROOT
BRANCH   7  10
HETATM   10  O1  UNL     1      24.617   3.043  51.034  1.00  0.00    -0.321 OA
BRANCH  10  11
HETATM   11  C6  UNL     1      23.857   4.086  51.618  1.00  0.00     0.251 C 
BRANCH  11  12
HETATM   12  S1  UNL     1      22.670   4.640  50.351  1.00  0.00    -0.138 SA
BRANCH  12  13
HETATM   13  C7  UNL     1      20.973   4.179  50.796  1.00  0.00     0.114 C 
BRANCH  13  14
HETATM   14  C8  UNL     1      20.963   2.748  51.196  1.00  0.00    -0.049 A 
HETATM   15  C9  UNL     1      20.650   2.425  52.508  1.00  0.00     0.008 A 
HETATM   16  C10 UNL     1      20.598   1.164  53.035  1.00  0.00     0.001 A 
HETATM   17  C11 UNL     1      20.888   0.132  52.158  1.00  0.00     0.000 A 
HETATM   18  C12 UNL     1      21.207   0.376  50.840  1.00  0.00     0.001 A 
HETATM   19  C13 UNL     1      21.243   1.688  50.364  1.00  0.00     0.008 A 
ENDBRANCH  13  14
ENDBRANCH  12  13
ENDBRANCH  11  12
ENDBRANCH  10  11
ENDBRANCH   7  10
BRANCH   8  20
HETATM   20  O2  UNL     1      27.180   3.254  51.197  1.00  0.00    -0.356 OA
HETATM   21  H15 UNL     1      27.628   3.096  50.283  1.00  0.00     0.218 HD
ENDBRANCH   8  20
TORSDOF 6
ENDMDL
MODEL 8
REMARK VINA RESULT:      -6.3      3.231      4.542
REMARK  6 active torsions:
REMARK  status: ('A' for Active; 'I' for Inactive)
REMARK    1  A    between atoms: C5_7  and  O1_8 
REMARK    2  A    between atoms: O1_8  and  C6_9 
REMARK    3  A    between atoms: C6_9  and  S1_10 
REMARK    4  A    between atoms: S1_10  and  C7_11 
REMARK    5  A    between atoms: C7_11  and  C8_12 
REMARK    6  A    between atoms: C14_18  and  O2_19 
ROOT
HETATM    1  C1  UNL     1      25.571  -0.352  53.204  1.00  0.00     0.048 C 
HETATM    2  C2  UNL     1      24.268   0.350  53.087  1.00  0.00    -0.058 C 
HETATM    3  C3  UNL     1      23.151  -0.394  53.107  1.00  0.00     0.027 C 
HETATM    4  C4  UNL     1      21.717  -0.095  53.020  1.00  0.00     0.141 C 
HETATM    5  N1  UNL     1      21.022   0.965  52.778  1.00  0.00    -0.160 NA
HETATM    6  N2  UNL     1      21.324   2.320  52.486  1.00  0.00    -0.122 NA
HETATM    7  C5  UNL     1      22.380   3.064  52.459  1.00  0.00     0.220 C 
HETATM    8  C14 UNL     1      23.802   2.858  52.724  1.00  0.00     0.121 C 
HETATM    9  C15 UNL     1      24.548   1.788  52.972  1.00  0.00     0.048 C 
ENDROOT
BRANCH   7  10
HETATM   10  O1  UNL     1      21.965   4.325  52.084  1.00  0.00    -0.321 OA
BRANCH  10  11
HETATM   11  C6  UNL     1      21.031   4.471  51.029  1.00  0.00     0.251 C 
BRANCH  11  12
HETATM   12  S1  UNL     1      21.832   3.821  49.527  1.00  0.00    -0.138 SA
BRANCH  12  13
HETATM   13  C7  UNL     1      22.761   5.119  48.664  1.00  0.00     0.114 C 
BRANCH  13  14
HETATM   14  C8  UNL     1      24.211   4.891  48.891  1.00  0.00    -0.049 A 
HETATM   15  C9  UNL     1      24.635   3.630  49.282  1.00  0.00     0.008 A 
HETATM   16  C10 UNL     1      25.927   3.257  49.531  1.00  0.00     0.001 A 
HETATM   17  C11 UNL     1      26.882   4.247  49.370  1.00  0.00     0.000 A 
HETATM   18  C12 UNL     1      26.536   5.523  48.984  1.00  0.00     0.001 A 
HETATM   19  C13 UNL     1      25.198   5.840  48.745  1.00  0.00     0.008 A 
ENDBRANCH  13  14
ENDBRANCH  12  13
ENDBRANCH  11  12
ENDBRANCH  10  11
ENDBRANCH   7  10
BRANCH   8  20
HETATM   20  O2  UNL     1      24.456   4.077  52.695  1.00  0.00    -0.356 OA
HETATM   21  H15 UNL     1      25.064   4.280  51.889  1.00  0.00     0.218 HD
ENDBRANCH   8  20
TORSDOF 6
ENDMDL
MODEL 9
REMARK VINA RESULT:      -6.3      3.705      7.058
REMARK  6 active torsions:
REMARK  status: ('A' for Active; 'I' for Inactive)
REMARK    1  A    between atoms: C5_7  and  O1_8 
REMARK    2  A    between atoms: O1_8  and  C6_9 
REMARK    3  A    between atoms: C6_9  and  S1_10 
REMARK    4  A    between atoms: S1_10  and  C7_11 
REMARK    5  A    between atoms: C7_11  and  C8_12 
REMARK    6  A    between atoms: C14_18  and  O2_19 
ROOT
HETATM    1  C1  UNL     1      29.390   6.027  48.079  1.00  0.00     0.048 C 
HETATM    2  C2  UNL     1      27.916   5.996  48.240  1.00  0.00    -0.058 C 
HETATM    3  C3  UNL     1      27.220   7.082  47.866  1.00  0.00     0.027 C 
HETATM    4  C4  UNL     1      25.797   7.439  47.864  1.00  0.00     0.141 C 
HETATM    5  N1  UNL     1      24.722   6.895  48.325  1.00  0.00    -0.160 NA
HETATM    6  N2  UNL     1      24.425   5.706  49.040  1.00  0.00    -0.122 NA
HETATM    7  C5  UNL     1      25.064   4.648  49.414  1.00  0.00     0.220 C 
HETATM    8  C14 UNL     1      26.434   4.159  49.274  1.00  0.00     0.121 C 
HETATM    9  C15 UNL     1      27.559   4.689  48.811  1.00  0.00     0.048 C 
ENDROOT
BRANCH   7  10
HETATM   10  O1  UNL     1      24.159   3.860  50.095  1.00  0.00    -0.321 OA
BRANCH  10  11
HETATM   11  C6  UNL     1      22.852   4.345  50.341  1.00  0.00     0.251 C 
BRANCH  11  12
HETATM   12  S1  UNL     1      22.477   3.973  52.086  1.00  0.00    -0.138 SA
BRANCH  12  13
HETATM   13  C7  UNL     1      21.473   2.469  52.235  1.00  0.00     0.114 C 
BRANCH  13  14
HETATM   14  C8  UNL     1      22.323   1.390  52.800  1.00  0.00    -0.049 A 
HETATM   15  C9  UNL     1      23.698   1.474  52.646  1.00  0.00     0.008 A 
HETATM   16  C10 UNL     1      24.616   0.569  53.103  1.00  0.00     0.001 A 
HETATM   17  C11 UNL     1      24.100  -0.523  53.781  1.00  0.00     0.000 A 
HETATM   18  C12 UNL     1      22.744  -0.675  53.973  1.00  0.00     0.001 A 
HETATM   19  C13 UNL     1      21.859   0.286  53.480  1.00  0.00     0.008 A 
ENDBRANCH  13  14
ENDBRANCH  12  13
ENDBRANCH  11  12
ENDBRANCH  10  11
ENDBRANCH   7  10
BRANCH   8  20
HETATM   20  O2  UNL     1      26.507   2.858  49.742  1.00  0.00    -0.356 OA
HETATM   21  H15 UNL     1      26.353   2.094  49.068  1.00  0.00     0.218 HD
ENDBRANCH   8  20
TORSDOF 6
ENDMDL
