MODEL 1
REMARK VINA RESULT:      -8.4      0.000      0.000
REMARK  2 active torsions:
REMARK  status: ('A' for Active; 'I' for Inactive)
REMARK    1  A    between atoms: C1_2  and  C2_3 
REMARK       I    between atoms: C1_2  and  N1_6 
REMARK    2  A    between atoms: N1_6  and  C4_7 
ROOT
HETATM    1  C4  UNL     1      24.802   0.200  53.683  1.00  0.00     0.038 C 
HETATM    2  C5  UNL     1      24.071  -0.666  54.401  1.00  0.00     0.031 C 
HETATM    3  C6  UNL     1      22.701  -1.166  54.166  1.00  0.00     0.027 C 
HETATM    4  C7  UNL     1      21.691  -0.810  53.399  1.00  0.00     0.142 C 
HETATM    5  O2  UNL     1      21.412   0.181  52.457  1.00  0.00    -0.318 OA
HETATM    6  C8  UNL     1      22.179   1.149  51.828  1.00  0.00     0.136 C 
HETATM    7  C9  UNL     1      21.396   2.034  51.178  1.00  0.00     0.057 C 
HETATM    8  C10 UNL     1      19.952   1.817  51.258  1.00  0.00     0.089 C 
HETATM    9  C11 UNL     1      19.189   2.911  51.901  1.00  0.00     0.003 C 
HETATM   10  C12 UNL     1      18.212   3.730  51.472  1.00  0.00     0.131 C 
HETATM   11  O3  UNL     1      18.256   3.118  50.238  1.00  0.00    -0.363 OA
HETATM   12  C13 UNL     1      17.547   3.607  49.087  1.00  0.00     0.176 C 
HETATM   13  C14 UNL     1      18.315   3.076  47.844  1.00  0.00     0.053 C 
HETATM   14  C15 UNL     1      19.706   3.589  47.881  1.00  0.00     0.175 C 
HETATM   15  O4  UNL     1      20.571   3.169  46.897  1.00  0.00    -0.360 OA
HETATM   16  P1  UNL     1      22.230   3.334  47.415  1.00  0.00     0.065 P 
HETATM   17  C16 UNL     1      22.263   3.643  49.237  1.00  0.00     0.083 A 
HETATM   18  C17 UNL     1      22.566   4.432  50.322  1.00  0.00     0.130 A 
HETATM   19  N2  UNL     1      21.950   3.127  50.445  1.00  0.00    -0.317 N 
HETATM   20  C18 UNL     1      23.615   1.358  51.754  1.00  0.00     0.154 C 
HETATM   21  F1  UNL     1      23.932   2.112  50.682  1.00  0.00    -0.203 F 
HETATM   22  C19 UNL     1      24.663   0.990  52.478  1.00  0.00     0.074 C 
HETATM   23  H17 UNL     1      23.051   2.220  47.058  1.00  0.00     0.094 HD
ENDROOT
BRANCH   1  24
HETATM   24  N1  UNL     1      26.089   0.390  54.296  1.00  0.00    -0.324 N 
HETATM   25  C1  UNL     1      27.285  -0.194  53.783  1.00  0.00     0.246 C 
HETATM   26  O1  UNL     1      27.348  -0.916  52.772  1.00  0.00    -0.268 OA
HETATM   27  H3  UNL     1      26.091   0.999  55.162  1.00  0.00     0.169 HD
BRANCH  25  28
HETATM   28  C2  UNL     1      28.553   0.046  54.462  1.00  0.00     0.086 C 
HETATM   29  C3  UNL     1      29.161   1.214  54.334  1.00  0.00     0.090 C 
HETATM   30 CL1  UNL     1      28.480   2.499  53.359  1.00  0.00    -0.097 Cl
ENDBRANCH  25  28
ENDBRANCH   1  24
TORSDOF 2
ENDMDL
MODEL 2
REMARK VINA RESULT:      -8.2      7.707      9.975
REMARK  2 active torsions:
REMARK  status: ('A' for Active; 'I' for Inactive)
REMARK    1  A    between atoms: C1_2  and  C2_3 
REMARK       I    between atoms: C1_2  and  N1_6 
REMARK    2  A    between atoms: N1_6  and  C4_7 
ROOT
HETATM    1  C4  UNL     1      25.844   4.331  49.325  1.00  0.00     0.038 C 
HETATM    2  C5  UNL     1      24.799   5.172  49.295  1.00  0.00     0.031 C 
HETATM    3  C6  UNL     1      24.690   6.523  48.709  1.00  0.00     0.027 C 
HETATM    4  C7  UNL     1      25.542   7.424  48.266  1.00  0.00     0.142 C 
HETATM    5  O2  UNL     1      26.925   7.556  48.130  1.00  0.00    -0.318 OA
HETATM    6  C8  UNL     1      27.992   6.686  48.293  1.00  0.00     0.136 C 
HETATM    7  C9  UNL     1      29.162   7.356  48.285  1.00  0.00     0.057 C 
HETATM    8  C10 UNL     1      29.089   8.807  48.115  1.00  0.00     0.089 C 
HETATM    9  C11 UNL     1      29.624   9.598  49.248  1.00  0.00     0.003 C 
HETATM   10  C12 UNL     1      30.627  10.487  49.358  1.00  0.00     0.131 C 
HETATM   11  O3  UNL     1      30.904  10.324  48.017  1.00  0.00    -0.363 OA
HETATM   12  C13 UNL     1      32.065  10.878  47.377  1.00  0.00     0.176 C 
HETATM   13  C14 UNL     1      32.339   9.993  46.128  1.00  0.00     0.053 C 
HETATM   14  C15 UNL     1      32.577   8.597  46.570  1.00  0.00     0.175 C 
HETATM   15  O4  UNL     1      32.768   7.640  45.599  1.00  0.00    -0.360 OA
HETATM   16  P1  UNL     1      32.411   6.048  46.217  1.00  0.00     0.065 P 
HETATM   17  C16 UNL     1      31.528   6.212  47.832  1.00  0.00     0.083 A 
HETATM   18  C17 UNL     1      31.446   6.007  49.189  1.00  0.00     0.130 A 
HETATM   19  N2  UNL     1      30.412   6.682  48.431  1.00  0.00    -0.317 N 
HETATM   20  C18 UNL     1      28.056   5.245  48.462  1.00  0.00     0.154 C 
HETATM   21  F1  UNL     1      29.273   4.779  48.117  1.00  0.00    -0.203 F 
HETATM   22  C19 UNL     1      27.218   4.301  48.868  1.00  0.00     0.074 C 
HETATM   23  H17 UNL     1      31.677   5.233  45.299  1.00  0.00     0.094 HD
ENDROOT
BRANCH   1  24
HETATM   24  N1  UNL     1      25.486   3.116  50.007  1.00  0.00    -0.324 N 
HETATM   25  C1  UNL     1      26.308   2.520  51.009  1.00  0.00     0.246 C 
HETATM   26  O1  UNL     1      27.400   2.971  51.396  1.00  0.00    -0.268 OA
HETATM   27  H3  UNL     1      24.562   2.690  49.714  1.00  0.00     0.169 HD
BRANCH  25  28
HETATM   28  C2  UNL     1      25.874   1.286  51.655  1.00  0.00     0.086 C 
HETATM   29  C3  UNL     1      25.048   1.335  52.686  1.00  0.00     0.090 C 
HETATM   30 CL1  UNL     1      24.451   2.859  53.310  1.00  0.00    -0.097 Cl
ENDBRANCH  25  28
ENDBRANCH   1  24
TORSDOF 2
ENDMDL
MODEL 3
REMARK VINA RESULT:      -7.9      8.417     11.006
REMARK  2 active torsions:
REMARK  status: ('A' for Active; 'I' for Inactive)
REMARK    1  A    between atoms: C1_2  and  C2_3 
REMARK       I    between atoms: C1_2  and  N1_6 
REMARK    2  A    between atoms: N1_6  and  C4_7 
ROOT
HETATM    1  C4  UNL     1      26.362   5.640  49.231  1.00  0.00     0.038 C 
HETATM    2  C5  UNL     1      25.548   6.638  48.854  1.00  0.00     0.031 C 
HETATM    3  C6  UNL     1      25.722   7.644  47.787  1.00  0.00     0.027 C 
HETATM    4  C7  UNL     1      26.728   8.065  47.049  1.00  0.00     0.142 C 
HETATM    5  O2  UNL     1      28.088   7.785  46.906  1.00  0.00    -0.318 OA
HETATM    6  C8  UNL     1      28.925   6.807  47.419  1.00  0.00     0.136 C 
HETATM    7  C9  UNL     1      30.218   7.109  47.180  1.00  0.00     0.057 C 
HETATM    8  C10 UNL     1      30.481   8.354  46.459  1.00  0.00     0.089 C 
HETATM    9  C11 UNL     1      31.274   9.356  47.209  1.00  0.00     0.003 C 
HETATM   10  C12 UNL     1      32.465   9.940  46.990  1.00  0.00     0.131 C 
HETATM   11  O3  UNL     1      32.593   9.215  45.824  1.00  0.00    -0.363 OA
HETATM   12  C13 UNL     1      33.802   9.174  45.047  1.00  0.00     0.176 C 
HETATM   13  C14 UNL     1      33.761   7.842  44.246  1.00  0.00     0.053 C 
HETATM   14  C15 UNL     1      33.691   6.708  45.200  1.00  0.00     0.175 C 
HETATM   15  O4  UNL     1      33.574   5.439  44.681  1.00  0.00    -0.360 OA
HETATM   16  P1  UNL     1      32.895   4.345  45.859  1.00  0.00     0.065 P 
HETATM   17  C16 UNL     1      32.201   5.328  47.262  1.00  0.00     0.083 A 
HETATM   18  C17 UNL     1      32.175   5.683  48.591  1.00  0.00     0.130 A 
HETATM   19  N2  UNL     1      31.278   6.252  47.606  1.00  0.00    -0.317 N 
HETATM   20  C18 UNL     1      28.656   5.572  48.135  1.00  0.00     0.154 C 
HETATM   21  F1  UNL     1      29.697   4.722  48.027  1.00  0.00    -0.203 F 
HETATM   22  C19 UNL     1      27.650   5.097  48.855  1.00  0.00     0.074 C 
HETATM   23  H17 UNL     1      31.920   3.453  45.312  1.00  0.00     0.094 HD
ENDROOT
BRANCH   1  24
HETATM   24  N1  UNL     1      25.776   4.908  50.323  1.00  0.00    -0.324 N 
HETATM   25  C1  UNL     1      24.943   3.765  50.130  1.00  0.00     0.246 C 
HETATM   26  O1  UNL     1      24.637   3.285  49.025  1.00  0.00    -0.268 OA
HETATM   27  H3  UNL     1      26.006   5.276  51.288  1.00  0.00     0.169 HD
BRANCH  25  28
HETATM   28  C2  UNL     1      24.387   3.077  51.289  1.00  0.00     0.086 C 
HETATM   29  C3  UNL     1      25.086   2.133  51.896  1.00  0.00     0.090 C 
HETATM   30 CL1  UNL     1      26.683   1.676  51.342  1.00  0.00    -0.097 Cl
ENDBRANCH  25  28
ENDBRANCH   1  24
TORSDOF 2
ENDMDL
MODEL 4
REMARK VINA RESULT:      -7.8      5.447      7.709
REMARK  2 active torsions:
REMARK  status: ('A' for Active; 'I' for Inactive)
REMARK    1  A    between atoms: C1_2  and  C2_3 
REMARK       I    between atoms: C1_2  and  N1_6 
REMARK    2  A    between atoms: N1_6  and  C4_7 
ROOT
HETATM    1  C4  UNL     1      27.150   7.880  48.010  1.00  0.00     0.038 C 
HETATM    2  C5  UNL     1      28.321   7.230  48.089  1.00  0.00     0.031 C 
HETATM    3  C6  UNL     1      28.590   5.788  48.262  1.00  0.00     0.027 C 
HETATM    4  C7  UNL     1      27.881   4.738  48.618  1.00  0.00     0.142 C 
HETATM    5  O2  UNL     1      26.566   4.463  48.997  1.00  0.00    -0.318 OA
HETATM    6  C8  UNL     1      25.398   5.209  49.018  1.00  0.00     0.136 C 
HETATM    7  C9  UNL     1      24.432   4.568  49.707  1.00  0.00     0.057 C 
HETATM    8  C10 UNL     1      24.783   3.267  50.278  1.00  0.00     0.089 C 
HETATM    9  C11 UNL     1      24.700   3.189  51.754  1.00  0.00     0.003 C 
HETATM   10  C12 UNL     1      23.967   2.440  52.598  1.00  0.00     0.131 C 
HETATM   11  O3  UNL     1      23.370   1.827  51.517  1.00  0.00    -0.363 OA
HETATM   12  C13 UNL     1      22.246   0.939  51.633  1.00  0.00     0.176 C 
HETATM   13  C14 UNL     1      21.514   0.980  50.262  1.00  0.00     0.053 C 
HETATM   14  C15 UNL     1      21.079   2.372  49.990  1.00  0.00     0.175 C 
HETATM   15  O4  UNL     1      20.471   2.630  48.783  1.00  0.00    -0.360 OA
HETATM   16  P1  UNL     1      20.598   4.321  48.371  1.00  0.00     0.065 P 
HETATM   17  C16 UNL     1      21.833   5.122  49.489  1.00  0.00     0.083 A 
HETATM   18  C17 UNL     1      22.168   6.039  50.458  1.00  0.00     0.130 A 
HETATM   19  N2  UNL     1      23.129   5.130  49.868  1.00  0.00    -0.317 N 
HETATM   20  C18 UNL     1      25.058   6.501  48.449  1.00  0.00     0.154 C 
HETATM   21  F1  UNL     1      23.722   6.623  48.308  1.00  0.00    -0.203 F 
HETATM   22  C19 UNL     1      25.737   7.566  48.046  1.00  0.00     0.074 C 
HETATM   23  H17 UNL     1      20.911   4.550  46.995  1.00  0.00     0.094 HD
ENDROOT
BRANCH   1  24
HETATM   24  N1  UNL     1      27.375   9.291  47.841  1.00  0.00    -0.324 N 
HETATM   25  C1  UNL     1      27.391  10.209  48.932  1.00  0.00     0.246 C 
HETATM   26  O1  UNL     1      27.215   9.902  50.124  1.00  0.00    -0.268 OA
HETATM   27  H3  UNL     1      27.532   9.606  46.843  1.00  0.00     0.169 HD
BRANCH  25  28
HETATM   28  C2  UNL     1      27.626  11.626  48.678  1.00  0.00     0.086 C 
HETATM   29  C3  UNL     1      28.858  12.105  48.699  1.00  0.00     0.090 C 
HETATM   30 CL1  UNL     1      30.236  11.076  49.030  1.00  0.00    -0.097 Cl
ENDBRANCH  25  28
ENDBRANCH   1  24
TORSDOF 2
ENDMDL
MODEL 5
REMARK VINA RESULT:      -7.5      3.279      4.128
REMARK  2 active torsions:
REMARK  status: ('A' for Active; 'I' for Inactive)
REMARK    1  A    between atoms: C1_2  and  C2_3 
REMARK       I    between atoms: C1_2  and  N1_6 
REMARK    2  A    between atoms: N1_6  and  C4_7 
ROOT
HETATM    1  C4  UNL     1      24.580   1.723  52.247  1.00  0.00     0.038 C 
HETATM    2  C5  UNL     1      23.455   0.996  52.167  1.00  0.00     0.031 C 
HETATM    3  C6  UNL     1      22.291   1.153  51.271  1.00  0.00     0.027 C 
HETATM    4  C7  UNL     1      21.844   2.100  50.473  1.00  0.00     0.142 C 
HETATM    5  O2  UNL     1      22.224   3.386  50.085  1.00  0.00    -0.318 OA
HETATM    6  C8  UNL     1      23.356   4.156  50.297  1.00  0.00     0.136 C 
HETATM    7  C9  UNL     1      23.144   5.434  49.923  1.00  0.00     0.057 C 
HETATM    8  C10 UNL     1      21.819   5.753  49.390  1.00  0.00     0.089 C 
HETATM    9  C11 UNL     1      21.054   6.752  50.171  1.00  0.00     0.003 C 
HETATM   10  C12 UNL     1      20.560   7.968  49.879  1.00  0.00     0.131 C 
HETATM   11  O3  UNL     1      21.068   7.855  48.602  1.00  0.00    -0.363 OA
HETATM   12  C13 UNL     1      21.083   8.939  47.658  1.00  0.00     0.176 C 
HETATM   13  C14 UNL     1      22.236   8.632  46.660  1.00  0.00     0.053 C 
HETATM   14  C15 UNL     1      23.513   8.548  47.410  1.00  0.00     0.175 C 
HETATM   15  O4  UNL     1      24.647   8.210  46.708  1.00  0.00    -0.360 OA
HETATM   16  P1  UNL     1      25.867   7.559  47.774  1.00  0.00     0.065 P 
HETATM   17  C16 UNL     1      25.095   7.178  49.409  1.00  0.00     0.083 A 
HETATM   18  C17 UNL     1      24.989   7.367  50.768  1.00  0.00     0.130 A 
HETATM   19  N2  UNL     1      24.164   6.427  50.037  1.00  0.00    -0.317 N 
HETATM   20  C18 UNL     1      24.669   3.832  50.827  1.00  0.00     0.154 C 
HETATM   21  F1  UNL     1      25.583   4.738  50.424  1.00  0.00    -0.203 F 
HETATM   22  C19 UNL     1      25.168   2.876  51.598  1.00  0.00     0.074 C 
HETATM   23  H17 UNL     1      26.544   6.421  47.236  1.00  0.00     0.094 HD
ENDROOT
BRANCH   1  24
HETATM   24  N1  UNL     1      25.439   1.198  53.275  1.00  0.00    -0.324 N 
HETATM   25  C1  UNL     1      26.518   0.305  53.001  1.00  0.00     0.246 C 
HETATM   26  O1  UNL     1      26.829  -0.109  51.871  1.00  0.00    -0.268 OA
HETATM   27  H3  UNL     1      25.216   1.520  54.258  1.00  0.00     0.169 HD
BRANCH  25  28
HETATM   28  C2  UNL     1      27.344  -0.184  54.098  1.00  0.00     0.086 C 
HETATM   29  C3  UNL     1      28.372   0.532  54.522  1.00  0.00     0.090 C 
HETATM   30 CL1  UNL     1      28.779   2.071  53.793  1.00  0.00    -0.097 Cl
ENDBRANCH  25  28
ENDBRANCH   1  24
TORSDOF 2
ENDMDL
MODEL 6
REMARK VINA RESULT:      -7.3      6.949      8.738
REMARK  2 active torsions:
REMARK  status: ('A' for Active; 'I' for Inactive)
REMARK    1  A    between atoms: C1_2  and  C2_3 
REMARK       I    between atoms: C1_2  and  N1_6 
REMARK    2  A    between atoms: N1_6  and  C4_7 
ROOT
HETATM    1  C4  UNL     1      29.648   8.318  47.716  1.00  0.00     0.038 C 
HETATM    2  C5  UNL     1      30.672   7.457  47.817  1.00  0.00     0.031 C 
HETATM    3  C6  UNL     1      30.663   5.980  47.860  1.00  0.00     0.027 C 
HETATM    4  C7  UNL     1      29.747   5.054  48.049  1.00  0.00     0.142 C 
HETATM    5  O2  UNL     1      28.374   4.996  48.296  1.00  0.00    -0.318 OA
HETATM    6  C8  UNL     1      27.362   5.942  48.305  1.00  0.00     0.136 C 
HETATM    7  C9  UNL     1      26.236   5.435  48.847  1.00  0.00     0.057 C 
HETATM    8  C10 UNL     1      26.294   4.047  49.305  1.00  0.00     0.089 C 
HETATM    9  C11 UNL     1      26.060   3.856  50.755  1.00  0.00     0.003 C 
HETATM   10  C12 UNL     1      25.129   3.185  51.457  1.00  0.00     0.131 C 
HETATM   11  O3  UNL     1      24.537   2.792  50.276  1.00  0.00    -0.363 OA
HETATM   12  C13 UNL     1      23.266   2.122  50.213  1.00  0.00     0.176 C 
HETATM   13  C14 UNL     1      22.686   2.420  48.802  1.00  0.00     0.053 C 
HETATM   14  C15 UNL     1      22.534   3.886  48.643  1.00  0.00     0.175 C 
HETATM   15  O4  UNL     1      22.098   4.358  47.425  1.00  0.00    -0.360 OA
HETATM   16  P1  UNL     1      22.563   6.025  47.202  1.00  0.00     0.065 P 
HETATM   17  C16 UNL     1      23.809   6.480  48.489  1.00  0.00     0.083 A 
HETATM   18  C17 UNL     1      24.209   7.230  49.570  1.00  0.00     0.130 A 
HETATM   19  N2  UNL     1      25.045   6.213  48.965  1.00  0.00    -0.317 N 
HETATM   20  C18 UNL     1      27.312   7.321  47.848  1.00  0.00     0.154 C 
HETATM   21  F1  UNL     1      26.039   7.701  47.618  1.00  0.00    -0.203 F 
HETATM   22  C19 UNL     1      28.205   8.271  47.611  1.00  0.00     0.074 C 
HETATM   23  H17 UNL     1      23.041   6.312  45.886  1.00  0.00     0.094 HD
ENDROOT
BRANCH   1  24
HETATM   24  N1  UNL     1      30.136   9.672  47.712  1.00  0.00    -0.324 N 
HETATM   25  C1  UNL     1      30.562  10.345  48.895  1.00  0.00     0.246 C 
HETATM   26  O1  UNL     1      30.560   9.851  50.036  1.00  0.00    -0.268 OA
HETATM   27  H3  UNL     1      30.160  10.139  46.763  1.00  0.00     0.169 HD
BRANCH  25  28
HETATM   28  C2  UNL     1      31.045  11.718  48.807  1.00  0.00     0.086 C 
HETATM   29  C3  UNL     1      30.187  12.724  48.851  1.00  0.00     0.090 C 
HETATM   30 CL1  UNL     1      28.464  12.454  49.010  1.00  0.00    -0.097 Cl
ENDBRANCH  25  28
ENDBRANCH   1  24
TORSDOF 2
ENDMDL
MODEL 7
REMARK VINA RESULT:      -7.3      3.821      5.356
REMARK  2 active torsions:
REMARK  status: ('A' for Active; 'I' for Inactive)
REMARK    1  A    between atoms: C1_2  and  C2_3 
REMARK       I    between atoms: C1_2  and  N1_6 
REMARK    2  A    between atoms: N1_6  and  C4_7 
ROOT
HETATM    1  C4  UNL     1      22.824   1.353  51.709  1.00  0.00     0.038 C 
HETATM    2  C5  UNL     1      21.903   0.692  50.992  1.00  0.00     0.031 C 
HETATM    3  C6  UNL     1      21.490   0.877  49.586  1.00  0.00     0.027 C 
HETATM    4  C7  UNL     1      21.661   1.811  48.674  1.00  0.00     0.142 C 
HETATM    5  O2  UNL     1      22.293   3.052  48.575  1.00  0.00    -0.318 OA
HETATM    6  C8  UNL     1      23.147   3.761  49.404  1.00  0.00     0.136 C 
HETATM    7  C9  UNL     1      23.289   5.031  48.973  1.00  0.00     0.057 C 
HETATM    8  C10 UNL     1      22.547   5.404  47.768  1.00  0.00     0.089 C 
HETATM    9  C11 UNL     1      21.550   6.483  47.956  1.00  0.00     0.003 C 
HETATM   10  C12 UNL     1      21.411   7.712  47.427  1.00  0.00     0.131 C 
HETATM   11  O3  UNL     1      22.554   7.509  46.684  1.00  0.00    -0.363 OA
HETATM   12  C13 UNL     1      23.196   8.545  45.922  1.00  0.00     0.176 C 
HETATM   13  C14 UNL     1      24.686   8.123  45.781  1.00  0.00     0.053 C 
HETATM   14  C15 UNL     1      25.282   7.997  47.134  1.00  0.00     0.175 C 
HETATM   15  O4  UNL     1      26.583   7.559  47.224  1.00  0.00    -0.360 OA
HETATM   16  P1  UNL     1      26.905   6.886  48.801  1.00  0.00     0.065 P 
HETATM   17  C16 UNL     1      25.302   6.628  49.684  1.00  0.00     0.083 A 
HETATM   18  C17 UNL     1      24.443   6.886  50.727  1.00  0.00     0.130 A 
HETATM   19  N2  UNL     1      24.126   5.965  49.655  1.00  0.00    -0.317 N 
HETATM   20  C18 UNL     1      23.881   3.384  50.600  1.00  0.00     0.154 C 
HETATM   21  F1  UNL     1      24.924   4.214  50.801  1.00  0.00    -0.203 F 
HETATM   22  C19 UNL     1      23.766   2.436  51.520  1.00  0.00     0.074 C 
HETATM   23  H17 UNL     1      27.680   5.685  48.760  1.00  0.00     0.094 HD
ENDROOT
BRANCH   1  24
HETATM   24  N1  UNL     1      22.886   0.825  53.046  1.00  0.00    -0.324 N 
HETATM   25  C1  UNL     1      23.827  -0.172  53.443  1.00  0.00     0.246 C 
HETATM   26  O1  UNL     1      24.678  -0.684  52.696  1.00  0.00    -0.268 OA
HETATM   27  H3  UNL     1      22.181   1.229  53.724  1.00  0.00     0.169 HD
BRANCH  25  28
HETATM   28  C2  UNL     1      23.825  -0.657  54.818  1.00  0.00     0.086 C 
HETATM   29  C3  UNL     1      22.827  -1.407  55.253  1.00  0.00     0.090 C 
HETATM   30 CL1  UNL     1      21.485  -1.840  54.215  1.00  0.00    -0.097 Cl
ENDBRANCH  25  28
ENDBRANCH   1  24
TORSDOF 2
ENDMDL
MODEL 8
REMARK VINA RESULT:      -7.1      5.664      7.646
REMARK  2 active torsions:
REMARK  status: ('A' for Active; 'I' for Inactive)
REMARK    1  A    between atoms: C1_2  and  C2_3 
REMARK       I    between atoms: C1_2  and  N1_6 
REMARK    2  A    between atoms: N1_6  and  C4_7 
ROOT
HETATM    1  C4  UNL     1      28.222   7.349  47.436  1.00  0.00     0.038 C 
HETATM    2  C5  UNL     1      27.833   8.227  46.499  1.00  0.00     0.031 C 
HETATM    3  C6  UNL     1      26.489   8.772  46.215  1.00  0.00     0.027 C 
HETATM    4  C7  UNL     1      25.258   8.457  46.559  1.00  0.00     0.142 C 
HETATM    5  O2  UNL     1      24.621   7.488  47.336  1.00  0.00    -0.318 OA
HETATM    6  C8  UNL     1      25.072   6.507  48.205  1.00  0.00     0.136 C 
HETATM    7  C9  UNL     1      24.077   5.655  48.524  1.00  0.00     0.057 C 
HETATM    8  C10 UNL     1      22.769   5.914  47.921  1.00  0.00     0.089 C 
HETATM    9  C11 UNL     1      22.259   4.834  47.045  1.00  0.00     0.003 C 
HETATM   10  C12 UNL     1      21.167   4.051  47.088  1.00  0.00     0.131 C 
HETATM   11  O3  UNL     1      20.776   4.679  48.252  1.00  0.00    -0.363 OA
HETATM   12  C13 UNL     1      19.680   4.229  49.064  1.00  0.00     0.176 C 
HETATM   13  C14 UNL     1      19.956   4.754  50.501  1.00  0.00     0.053 C 
HETATM   14  C15 UNL     1      21.247   4.199  50.977  1.00  0.00     0.175 C 
HETATM   15  O4  UNL     1      21.705   4.606  52.209  1.00  0.00    -0.360 OA
HETATM   16  P1  UNL     1      23.431   4.384  52.334  1.00  0.00     0.065 P 
HETATM   17  C16 UNL     1      24.119   4.048  50.652  1.00  0.00     0.083 A 
HETATM   18  C17 UNL     1      24.772   3.235  49.755  1.00  0.00     0.130 A 
HETATM   19  N2  UNL     1      24.287   4.556  49.412  1.00  0.00    -0.317 N 
HETATM   20  C18 UNL     1      26.373   6.256  48.800  1.00  0.00     0.154 C 
HETATM   21  F1  UNL     1      26.251   5.508  49.915  1.00  0.00    -0.203 F 
HETATM   22  C19 UNL     1      27.625   6.581  48.509  1.00  0.00     0.074 C 
HETATM   23  H17 UNL     1      24.102   5.478  52.965  1.00  0.00     0.094 HD
ENDROOT
BRANCH   1  24
HETATM   24  N1  UNL     1      29.637   7.112  47.338  1.00  0.00    -0.324 N 
HETATM   25  C1  UNL     1      30.603   7.884  48.050  1.00  0.00     0.246 C 
HETATM   26  O1  UNL     1      30.337   8.826  48.817  1.00  0.00    -0.268 OA
HETATM   27  H3  UNL     1      29.918   6.319  46.697  1.00  0.00     0.169 HD
BRANCH  25  28
HETATM   28  C2  UNL     1      32.021   7.581  47.897  1.00  0.00     0.086 C 
HETATM   29  C3  UNL     1      32.608   6.730  48.722  1.00  0.00     0.090 C 
HETATM   30 CL1  UNL     1      31.722   5.945  50.012  1.00  0.00    -0.097 Cl
ENDBRANCH  25  28
ENDBRANCH   1  24
TORSDOF 2
ENDMDL
MODEL 9
REMARK VINA RESULT:      -7.0     23.972     26.467
REMARK  2 active torsions:
REMARK  status: ('A' for Active; 'I' for Inactive)
REMARK    1  A    between atoms: C1_2  and  C2_3 
REMARK       I    between atoms: C1_2  and  N1_6 
REMARK    2  A    between atoms: N1_6  and  C4_7 
ROOT
HETATM    1  C4  UNL     1      40.764   5.006  70.871  1.00  0.00     0.038 C 
HETATM    2  C5  UNL     1      39.447   5.173  71.068  1.00  0.00     0.031 C 
HETATM    3  C6  UNL     1      38.370   4.165  71.148  1.00  0.00     0.027 C 
HETATM    4  C7  UNL     1      38.255   2.889  70.842  1.00  0.00     0.142 C 
HETATM    5  O2  UNL     1      39.059   1.881  70.307  1.00  0.00    -0.318 OA
HETATM    6  C8  UNL     1      40.407   1.792  69.999  1.00  0.00     0.136 C 
HETATM    7  C9  UNL     1      40.660   0.687  69.269  1.00  0.00     0.057 C 
HETATM    8  C10 UNL     1      39.516  -0.169  68.952  1.00  0.00     0.089 C 
HETATM    9  C11 UNL     1      39.227  -0.318  67.507  1.00  0.00     0.003 C 
HETATM   10  C12 UNL     1      39.201  -1.376  66.677  1.00  0.00     0.131 C 
HETATM   11  O3  UNL     1      39.549  -2.197  67.730  1.00  0.00    -0.363 OA
HETATM   12  C13 UNL     1      39.905  -3.580  67.570  1.00  0.00     0.176 C 
HETATM   13  C14 UNL     1      40.796  -3.944  68.791  1.00  0.00     0.053 C 
HETATM   14  C15 UNL     1      41.995  -3.073  68.791  1.00  0.00     0.175 C 
HETATM   15  O4  UNL     1      42.877  -3.194  69.840  1.00  0.00    -0.360 OA
HETATM   16  P1  UNL     1      43.834  -1.745  70.018  1.00  0.00     0.065 P 
HETATM   17  C16 UNL     1      43.081  -0.398  69.001  1.00  0.00     0.083 A 
HETATM   18  C17 UNL     1      43.139   0.515  67.974  1.00  0.00     0.130 A 
HETATM   19  N2  UNL     1      41.980   0.366  68.829  1.00  0.00    -0.317 N 
HETATM   20  C18 UNL     1      41.537   2.647  70.317  1.00  0.00     0.154 C 
HETATM   21  F1  UNL     1      42.694   1.960  70.231  1.00  0.00    -0.203 F 
HETATM   22  C19 UNL     1      41.695   3.917  70.663  1.00  0.00     0.074 C 
HETATM   23  H17 UNL     1      44.005  -1.340  71.379  1.00  0.00     0.094 HD
ENDROOT
BRANCH   1  24
HETATM   24  N1  UNL     1      41.430   6.281  70.869  1.00  0.00    -0.324 N 
HETATM   25  C1  UNL     1      42.103   6.802  69.723  1.00  0.00     0.246 C 
HETATM   26  O1  UNL     1      42.186   6.226  68.624  1.00  0.00    -0.268 OA
HETATM   27  H3  UNL     1      41.389   6.814  71.782  1.00  0.00     0.169 HD
BRANCH  25  28
HETATM   28  C2  UNL     1      42.755   8.103  69.801  1.00  0.00     0.086 C 
HETATM   29  C3  UNL     1      44.014   8.189  70.198  1.00  0.00     0.090 C 
HETATM   30 CL1  UNL     1      44.933   6.767  70.643  1.00  0.00    -0.097 Cl
ENDBRANCH  25  28
ENDBRANCH   1  24
TORSDOF 2
ENDMDL
