MODEL 1
REMARK VINA RESULT:      -7.0      0.000      0.000
REMARK  2 active torsions:
REMARK  status: ('A' for Active; 'I' for Inactive)
REMARK    1  A    between atoms: C6_7  and  O2_8 
REMARK    2  A    between atoms: C18_25  and  O4_26 
ROOT
HETATM    1  C1  UNL     1      19.945   3.921  46.122  1.00  0.00     0.000 C 
HETATM    2  O1  UNL     1      21.043   3.258  46.851  1.00  0.00     0.000 OA
HETATM    3  C2  UNL     1      22.097   4.036  46.869  1.00  0.00     0.024 A 
HETATM    4  C3  UNL     1      21.224   3.813  48.075  1.00  0.00     0.080 A 
HETATM    5  C4  UNL     1      21.699   3.161  49.461  1.00  0.00     0.019 C 
HETATM    6  C5  UNL     1      23.139   3.043  49.478  1.00  0.00     0.041 C 
HETATM    7  C6  UNL     1      24.046   4.368  49.253  1.00  0.00     0.104 A 
HETATM    8  C8  UNL     1      23.615   5.901  48.979  1.00  0.00     0.137 A 
HETATM    9  P1  UNL     1      23.348   5.593  48.612  1.00  0.00    -0.078 P 
HETATM   10  C9  UNL     1      22.657   4.751  47.657  1.00  0.00    -0.058 A 
HETATM   11  C10 UNL     1      24.575   7.175  50.349  1.00  0.00     0.196 C 
HETATM   12  O3  UNL     1      23.340   7.303  50.960  1.00  0.00    -0.374 OA
HETATM   13  C11 UNL     1      22.915   6.005  51.410  1.00  0.00     0.100 A 
HETATM   14  C12 UNL     1      23.876   5.103  52.121  1.00  0.00     0.174 A 
HETATM   15  C13 UNL     1      23.325   3.827  52.413  1.00  0.00     0.060 A 
HETATM   16  N1  UNL     1      23.846   2.710  52.868  1.00  0.00    -0.222 NA
HETATM   17  C14 UNL     1      23.168   1.482  52.794  1.00  0.00     0.225 A 
HETATM   18 CL1  UNL     1      24.492   0.331  53.204  1.00  0.00    -0.041 Cl
HETATM   19  N2  UNL     1      21.876   1.615  52.188  1.00  0.00    -0.200 NA
HETATM   20  C15 UNL     1      21.733   2.962  51.845  1.00  0.00     0.143 A 
HETATM   21  C16 UNL     1      22.205   4.247  51.820  1.00  0.00     0.038 A 
HETATM   22  C17 UNL     1      21.108   4.731  51.211  1.00  0.00     0.052 A 
HETATM   23  C18 UNL     1      21.566   5.882  50.960  1.00  0.00     0.076 A 
HETATM   24  N3  UNL     1      20.896   2.717  50.656  1.00  0.00    -0.343 N 
HETATM   25  H17 UNL     1      19.944   2.309  50.630  1.00  0.00     0.167 HD
ENDROOT
BRANCH   7  26
HETATM   26  O2  UNL     1      24.813   3.229  49.449  1.00  0.00    -0.376 OA
HETATM   27  C7  UNL     1      26.210   3.512  49.651  1.00  0.00     0.203 C 
ENDBRANCH   7  26
BRANCH  23  28
HETATM   28  O4  UNL     1      20.986   6.934  50.370  1.00  0.00    -0.357 OA
HETATM   29  C19 UNL     1      19.892   6.937  49.523  1.00  0.00     0.209 C 
ENDBRANCH  23  28
TORSDOF 2
ENDMDL
MODEL 2
REMARK VINA RESULT:      -6.7      3.226      5.114
REMARK  2 active torsions:
REMARK  status: ('A' for Active; 'I' for Inactive)
REMARK    1  A    between atoms: C6_7  and  O2_8 
REMARK    2  A    between atoms: C18_25  and  O4_26 
ROOT
HETATM    1  C1  UNL     1      17.325   0.903  51.450  1.00  0.00     0.000 C 
HETATM    2  O1  UNL     1      17.736   2.136  50.753  1.00  0.00     0.000 OA
HETATM    3  C2  UNL     1      18.369   2.926  51.585  1.00  0.00     0.024 A 
HETATM    4  C3  UNL     1      19.071   2.139  50.510  1.00  0.00     0.080 A 
HETATM    5  C4  UNL     1      19.913   2.765  49.297  1.00  0.00     0.019 C 
HETATM    6  C5  UNL     1      20.111   4.180  49.518  1.00  0.00     0.041 C 
HETATM    7  C6  UNL     1      20.826   4.676  50.885  1.00  0.00     0.104 A 
HETATM    8  C8  UNL     1      21.386   3.831  52.144  1.00  0.00     0.137 A 
HETATM    9  P1  UNL     1      20.870   3.667  52.059  1.00  0.00    -0.078 P 
HETATM   10  C9  UNL     1      19.504   3.252  51.807  1.00  0.00    -0.058 A 
HETATM   11  C10 UNL     1      23.376   4.377  52.550  1.00  0.00     0.196 C 
HETATM   12  O3  UNL     1      23.728   3.150  52.016  1.00  0.00    -0.374 OA
HETATM   13  C11 UNL     1      23.293   3.106  50.646  1.00  0.00     0.100 A 
HETATM   14  C12 UNL     1      23.533   4.276  49.742  1.00  0.00     0.174 A 
HETATM   15  C13 UNL     1      22.961   4.105  48.453  1.00  0.00     0.060 A 
HETATM   16  N1  UNL     1      22.796   4.917  47.434  1.00  0.00    -0.222 NA
HETATM   17  C14 UNL     1      21.933   4.615  46.368  1.00  0.00     0.225 A 
HETATM   18 CL1  UNL     1      21.852   6.207  45.527  1.00  0.00    -0.041 Cl
HETATM   19  N2  UNL     1      21.291   3.345  46.537  1.00  0.00    -0.200 NA
HETATM   20  C15 UNL     1      21.741   2.830  47.755  1.00  0.00     0.143 A 
HETATM   21  C16 UNL     1      22.520   2.919  48.877  1.00  0.00     0.038 A 
HETATM   22  C17 UNL     1      22.106   1.736  49.365  1.00  0.00     0.052 A 
HETATM   23  C18 UNL     1      22.625   1.852  50.511  1.00  0.00     0.076 A 
HETATM   24  N3  UNL     1      20.494   2.109  48.072  1.00  0.00    -0.343 N 
HETATM   25  H17 UNL     1      20.080   1.312  47.556  1.00  0.00     0.167 HD
ENDROOT
BRANCH   7  26
HETATM   26  O2  UNL     1      20.482   5.732  50.054  1.00  0.00    -0.376 OA
HETATM   27  C7  UNL     1      21.167   6.956  50.378  1.00  0.00     0.203 C 
ENDBRANCH   7  26
BRANCH  23  28
HETATM   28  O4  UNL     1      22.634   1.003  51.546  1.00  0.00    -0.357 OA
HETATM   29  C19 UNL     1      21.711   0.017  51.845  1.00  0.00     0.209 C 
ENDBRANCH  23  28
TORSDOF 2
ENDMDL
MODEL 3
REMARK VINA RESULT:      -6.6      1.873      4.311
REMARK  2 active torsions:
REMARK  status: ('A' for Active; 'I' for Inactive)
REMARK    1  A    between atoms: C6_7  and  O2_8 
REMARK    2  A    between atoms: C18_25  and  O4_26 
ROOT
HETATM    1  C1  UNL     1      22.351   8.852  49.323  1.00  0.00     0.000 C 
HETATM    2  O1  UNL     1      22.355   7.796  50.354  1.00  0.00     0.000 OA
HETATM    3  C2  UNL     1      21.182   7.212  50.395  1.00  0.00     0.024 A 
HETATM    4  C3  UNL     1      22.399   6.563  49.792  1.00  0.00     0.080 A 
HETATM    5  C4  UNL     1      23.079   5.203  50.302  1.00  0.00     0.019 C 
HETATM    6  C5  UNL     1      22.218   4.558  51.267  1.00  0.00     0.041 C 
HETATM    7  C6  UNL     1      20.696   4.187  50.848  1.00  0.00     0.104 A 
HETATM    8  C8  UNL     1      19.898   4.435  49.464  1.00  0.00     0.137 A 
HETATM    9  P1  UNL     1      20.113   4.917  49.612  1.00  0.00    -0.078 P 
HETATM   10  C9  UNL     1      20.696   6.176  50.029  1.00  0.00    -0.058 A 
HETATM   11  C10 UNL     1      19.042   2.634  48.796  1.00  0.00     0.196 C 
HETATM   12  O3  UNL     1      20.026   2.630  47.822  1.00  0.00    -0.374 OA
HETATM   13  C11 UNL     1      21.309   2.583  48.470  1.00  0.00     0.100 A 
HETATM   14  C12 UNL     1      21.545   1.633  49.604  1.00  0.00     0.174 A 
HETATM   15  C13 UNL     1      22.831   1.779  50.188  1.00  0.00     0.060 A 
HETATM   16  N1  UNL     1      23.383   1.281  51.271  1.00  0.00    -0.222 NA
HETATM   17  C14 UNL     1      24.570   1.801  51.815  1.00  0.00     0.225 A 
HETATM   18 CL1  UNL     1      24.599   0.987  53.422  1.00  0.00    -0.041 Cl
HETATM   19  N2  UNL     1      25.078   2.900  51.048  1.00  0.00    -0.200 NA
HETATM   20  C15 UNL     1      24.180   3.101  49.996  1.00  0.00     0.143 A 
HETATM   21  C16 UNL     1      23.052   2.754  49.304  1.00  0.00     0.038 A 
HETATM   22  C17 UNL     1      23.210   3.725  48.387  1.00  0.00     0.052 A 
HETATM   23  C18 UNL     1      22.081   3.600  47.833  1.00  0.00     0.076 A 
HETATM   24  N3  UNL     1      24.385   4.559  49.914  1.00  0.00    -0.343 N 
HETATM   25  H17 UNL     1      25.254   5.059  49.653  1.00  0.00     0.167 HD
ENDROOT
BRANCH   7  26
HETATM   26  O2  UNL     1      20.993   3.811  52.149  1.00  0.00    -0.376 OA
HETATM   27  C7  UNL     1      20.183   2.719  52.624  1.00  0.00     0.203 C 
ENDBRANCH   7  26
BRANCH  23  28
HETATM   28  O4  UNL     1      21.552   4.252  46.790  1.00  0.00    -0.357 OA
HETATM   29  C19 UNL     1      22.011   5.412  46.192  1.00  0.00     0.209 C 
ENDBRANCH  23  28
TORSDOF 2
ENDMDL
MODEL 4
REMARK VINA RESULT:      -6.6      7.882      9.739
REMARK  2 active torsions:
REMARK  status: ('A' for Active; 'I' for Inactive)
REMARK    1  A    between atoms: C6_7  and  O2_8 
REMARK    2  A    between atoms: C18_25  and  O4_26 
ROOT
HETATM    1  C1  UNL     1      25.818   8.980  46.802  1.00  0.00     0.000 C 
HETATM    2  O1  UNL     1      26.956   8.117  46.430  1.00  0.00     0.000 OA
HETATM    3  C2  UNL     1      27.760   8.767  45.625  1.00  0.00     0.024 A 
HETATM    4  C3  UNL     1      28.090   8.498  47.070  1.00  0.00     0.080 A 
HETATM    5  C4  UNL     1      29.335   7.636  47.596  1.00  0.00     0.019 C 
HETATM    6  C5  UNL     1      30.236   7.359  46.501  1.00  0.00     0.041 C 
HETATM    7  C6  UNL     1      30.852   8.594  45.650  1.00  0.00     0.104 A 
HETATM    8  C8  UNL     1      30.622  10.187  45.794  1.00  0.00     0.137 A 
HETATM    9  P1  UNL     1      30.125   9.956  45.766  1.00  0.00    -0.078 P 
HETATM   10  C9  UNL     1      28.827   9.317  45.694  1.00  0.00    -0.058 A 
HETATM   11  C10 UNL     1      32.474  11.174  45.923  1.00  0.00     0.196 C 
HETATM   12  O3  UNL     1      32.181  11.362  47.262  1.00  0.00    -0.374 OA
HETATM   13  C11 UNL     1      32.043  10.074  47.886  1.00  0.00     0.100 A 
HETATM   14  C12 UNL     1      33.042   8.993  47.609  1.00  0.00     0.174 A 
HETATM   15  C13 UNL     1      32.709   7.760  48.229  1.00  0.00     0.060 A 
HETATM   16  N1  UNL     1      33.201   6.546  48.128  1.00  0.00    -0.222 NA
HETATM   17  C14 UNL     1      32.518   5.418  48.612  1.00  0.00     0.225 A 
HETATM   18 CL1  UNL     1      33.477   4.087  47.866  1.00  0.00    -0.041 Cl
HETATM   19  N2  UNL     1      31.265   5.764  49.216  1.00  0.00    -0.200 NA
HETATM   20  C15 UNL     1      31.134   7.150  49.096  1.00  0.00     0.143 A 
HETATM   21  C16 UNL     1      31.621   8.368  48.707  1.00  0.00     0.038 A 
HETATM   22  C17 UNL     1      30.546   9.040  49.157  1.00  0.00     0.052 A 
HETATM   23  C18 UNL     1      30.831  10.155  48.636  1.00  0.00     0.076 A 
HETATM   24  N3  UNL     1      29.664   7.142  48.981  1.00  0.00    -0.343 N 
HETATM   25  H17 UNL     1      28.978   6.848  49.699  1.00  0.00     0.167 HD
ENDROOT
BRANCH   7  26
HETATM   26  O2  UNL     1      31.299   7.363  45.195  1.00  0.00    -0.376 OA
HETATM   27  C7  UNL     1      32.361   7.465  44.227  1.00  0.00     0.203 C 
ENDBRANCH   7  26
BRANCH  23  28
HETATM   28  O4  UNL     1      30.189  11.328  48.697  1.00  0.00    -0.357 OA
HETATM   29  C19 UNL     1      28.852  11.551  48.971  1.00  0.00     0.209 C 
ENDBRANCH  23  28
TORSDOF 2
ENDMDL
MODEL 5
REMARK VINA RESULT:      -6.6      8.686     11.035
REMARK  2 active torsions:
REMARK  status: ('A' for Active; 'I' for Inactive)
REMARK    1  A    between atoms: C6_7  and  O2_8 
REMARK    2  A    between atoms: C18_25  and  O4_26 
ROOT
HETATM    1  C1  UNL     1      28.773  12.176  48.683  1.00  0.00     0.000 C 
HETATM    2  O1  UNL     1      30.082  11.776  48.133  1.00  0.00     0.000 OA
HETATM    3  C2  UNL     1      30.726  11.044  49.008  1.00  0.00     0.024 A 
HETATM    4  C3  UNL     1      30.083  10.467  47.775  1.00  0.00     0.080 A 
HETATM    5  C4  UNL     1      30.854   9.705  46.593  1.00  0.00     0.019 C 
HETATM    6  C5  UNL     1      32.216   9.434  46.992  1.00  0.00     0.041 C 
HETATM    7  C6  UNL     1      32.491   8.587  48.346  1.00  0.00     0.104 A 
HETATM    8  C8  UNL     1      31.459   7.958  49.420  1.00  0.00     0.137 A 
HETATM    9  P1  UNL     1      31.322   8.485  49.358  1.00  0.00    -0.078 P 
HETATM   10  C9  UNL     1      30.985   9.882  49.172  1.00  0.00    -0.058 A 
HETATM   11  C10 UNL     1      31.886   5.921  49.720  1.00  0.00     0.196 C 
HETATM   12  O3  UNL     1      30.739   5.664  48.989  1.00  0.00    -0.374 OA
HETATM   13  C11 UNL     1      30.904   6.214  47.670  1.00  0.00     0.100 A 
HETATM   14  C12 UNL     1      32.185   6.004  46.923  1.00  0.00     0.174 A 
HETATM   15  C13 UNL     1      32.217   6.688  45.679  1.00  0.00     0.060 A 
HETATM   16  N1  UNL     1      33.171   6.905  44.802  1.00  0.00    -0.222 NA
HETATM   17  C14 UNL     1      33.049   7.866  43.785  1.00  0.00     0.225 A 
HETATM   18 CL1  UNL     1      34.747   7.954  43.187  1.00  0.00    -0.041 Cl
HETATM   19  N2  UNL     1      31.786   8.542  43.830  1.00  0.00    -0.200 NA
HETATM   20  C15 UNL     1      31.089   8.013  44.919  1.00  0.00     0.143 A 
HETATM   21  C16 UNL     1      30.994   7.139  45.968  1.00  0.00     0.038 A 
HETATM   22  C17 UNL     1      29.766   7.557  46.320  1.00  0.00     0.052 A 
HETATM   23  C18 UNL     1      29.701   6.939  47.420  1.00  0.00     0.076 A 
HETATM   24  N3  UNL     1      30.365   9.256  45.240  1.00  0.00    -0.343 N 
HETATM   25  H17 UNL     1      29.661   9.744  44.657  1.00  0.00     0.167 HD
ENDROOT
BRANCH   7  26
HETATM   26  O2  UNL     1      33.664   8.957  47.706  1.00  0.00    -0.376 OA
HETATM   27  C7  UNL     1      34.812   8.207  48.146  1.00  0.00     0.203 C 
ENDBRANCH   7  26
BRANCH  23  28
HETATM   28  O4  UNL     1      28.712   6.877  48.321  1.00  0.00    -0.357 OA
HETATM   29  C19 UNL     1      27.588   7.679  48.404  1.00  0.00     0.209 C 
ENDBRANCH  23  28
TORSDOF 2
ENDMDL
MODEL 6
REMARK VINA RESULT:      -6.5      1.590      2.021
REMARK  2 active torsions:
REMARK  status: ('A' for Active; 'I' for Inactive)
REMARK    1  A    between atoms: C6_7  and  O2_8 
REMARK    2  A    between atoms: C18_25  and  O4_26 
ROOT
HETATM    1  C1  UNL     1      18.978   6.675  47.613  1.00  0.00     0.000 C 
HETATM    2  O1  UNL     1      19.472   5.317  47.914  1.00  0.00     0.000 OA
HETATM    3  C2  UNL     1      20.698   5.183  47.470  1.00  0.00     0.024 A 
HETATM    4  C3  UNL     1      20.369   5.337  48.931  1.00  0.00     0.080 A 
HETATM    5  C4  UNL     1      20.680   4.255  50.074  1.00  0.00     0.019 C 
HETATM    6  C5  UNL     1      21.539   3.219  49.547  1.00  0.00     0.041 C 
HETATM    7  C6  UNL     1      22.966   3.630  48.896  1.00  0.00     0.104 A 
HETATM    8  C8  UNL     1      23.651   5.080  48.695  1.00  0.00     0.137 A 
HETATM    9  P1  UNL     1      23.147   5.111  48.482  1.00  0.00    -0.078 P 
HETATM   10  C9  UNL     1      21.808   5.163  47.929  1.00  0.00    -0.058 A 
HETATM   11  C10 UNL     1      25.595   5.074  49.496  1.00  0.00     0.196 C 
HETATM   12  O3  UNL     1      25.079   5.847  50.522  1.00  0.00    -0.374 OA
HETATM   13  C11 UNL     1      24.056   5.091  51.194  1.00  0.00     0.100 A 
HETATM   14  C12 UNL     1      24.292   3.655  51.548  1.00  0.00     0.174 A 
HETATM   15  C13 UNL     1      23.152   3.033  52.121  1.00  0.00     0.060 A 
HETATM   16  N1  UNL     1      22.870   1.786  52.423  1.00  0.00    -0.222 NA
HETATM   17  C14 UNL     1      21.562   1.360  52.706  1.00  0.00     0.225 A 
HETATM   18 CL1  UNL     1      21.763  -0.430  52.662  1.00  0.00    -0.041 Cl
HETATM   19  N2  UNL     1      20.617   2.435  52.632  1.00  0.00    -0.200 NA
HETATM   20  C15 UNL     1      21.339   3.576  52.271  1.00  0.00     0.143 A 
HETATM   21  C16 UNL     1      22.520   4.200  51.973  1.00  0.00     0.038 A 
HETATM   22  C17 UNL     1      21.943   5.401  51.796  1.00  0.00     0.052 A 
HETATM   23  C18 UNL     1      22.950   5.986  51.305  1.00  0.00     0.076 A 
HETATM   24  N3  UNL     1      20.240   4.205  51.514  1.00  0.00    -0.343 N 
HETATM   25  H17 UNL     1      19.333   4.541  51.885  1.00  0.00     0.167 HD
ENDROOT
BRANCH   7  26
HETATM   26  O2  UNL     1      22.745   2.261  48.867  1.00  0.00    -0.376 OA
HETATM   27  C7  UNL     1      22.461   1.758  47.548  1.00  0.00     0.203 C 
ENDBRANCH   7  26
BRANCH  23  28
HETATM   28  O4  UNL     1      23.105   7.254  50.907  1.00  0.00    -0.357 OA
HETATM   29  C19 UNL     1      22.156   8.091  50.348  1.00  0.00     0.209 C 
ENDBRANCH  23  28
TORSDOF 2
ENDMDL
MODEL 7
REMARK VINA RESULT:      -6.4      7.810      9.011
REMARK  2 active torsions:
REMARK  status: ('A' for Active; 'I' for Inactive)
REMARK    1  A    between atoms: C6_7  and  O2_8 
REMARK    2  A    between atoms: C18_25  and  O4_26 
ROOT
HETATM    1  C1  UNL     1      26.069   9.039  44.289  1.00  0.00     0.000 C 
HETATM    2  O1  UNL     1      27.430   8.481  44.398  1.00  0.00     0.000 OA
HETATM    3  C2  UNL     1      28.304   9.454  44.477  1.00  0.00     0.024 A 
HETATM    4  C3  UNL     1      27.913   8.608  45.660  1.00  0.00     0.080 A 
HETATM    5  C4  UNL     1      28.903   7.669  46.502  1.00  0.00     0.019 C 
HETATM    6  C5  UNL     1      30.272   7.936  46.122  1.00  0.00     0.041 C 
HETATM    7  C6  UNL     1      30.847   9.447  46.245  1.00  0.00     0.104 A 
HETATM    8  C8  UNL     1      30.126  10.810  46.730  1.00  0.00     0.137 A 
HETATM    9  P1  UNL     1      29.804  10.588  46.345  1.00  0.00    -0.078 P 
HETATM   10  C9  UNL     1      28.975   9.975  45.328  1.00  0.00    -0.058 A 
HETATM   11  C10 UNL     1      31.276  11.740  48.225  1.00  0.00     0.196 C 
HETATM   12  O3  UNL     1      30.301  11.319  49.112  1.00  0.00    -0.374 OA
HETATM   13  C11 UNL     1      30.244   9.882  49.083  1.00  0.00     0.100 A 
HETATM   14  C12 UNL     1      31.508   9.079  49.112  1.00  0.00     0.174 A 
HETATM   15  C13 UNL     1      31.278   7.683  48.983  1.00  0.00     0.060 A 
HETATM   16  N1  UNL     1      32.080   6.658  48.805  1.00  0.00    -0.222 NA
HETATM   17  C14 UNL     1      31.606   5.398  48.404  1.00  0.00     0.225 A 
HETATM   18 CL1  UNL     1      33.148   4.568  47.979  1.00  0.00    -0.041 Cl
HETATM   19  N2  UNL     1      30.183   5.385  48.234  1.00  0.00    -0.200 NA
HETATM   20  C15 UNL     1      29.737   6.679  48.514  1.00  0.00     0.143 A 
HETATM   21  C16 UNL     1      29.977   7.970  48.900  1.00  0.00     0.038 A 
HETATM   22  C17 UNL     1      28.683   8.327  48.824  1.00  0.00     0.052 A 
HETATM   23  C18 UNL     1      28.857   9.571  48.961  1.00  0.00     0.076 A 
HETATM   24  N3  UNL     1      28.606   6.646  47.567  1.00  0.00    -0.343 N 
HETATM   25  H17 UNL     1      27.770   6.037  47.608  1.00  0.00     0.167 HD
ENDROOT
BRANCH   7  26
HETATM   26  O2  UNL     1      31.798   8.555  45.770  1.00  0.00    -0.376 OA
HETATM   27  C7  UNL     1      33.132   9.095  45.767  1.00  0.00     0.203 C 
ENDBRANCH   7  26
BRANCH  23  28
HETATM   28  O4  UNL     1      27.966  10.569  49.009  1.00  0.00    -0.357 OA
HETATM   29  C19 UNL     1      26.641  10.545  48.611  1.00  0.00     0.209 C 
ENDBRANCH  23  28
TORSDOF 2
ENDMDL
MODEL 8
REMARK VINA RESULT:      -6.4      8.586     10.964
REMARK  2 active torsions:
REMARK  status: ('A' for Active; 'I' for Inactive)
REMARK    1  A    between atoms: C6_7  and  O2_8 
REMARK    2  A    between atoms: C18_25  and  O4_26 
ROOT
HETATM    1  C1  UNL     1      34.077   9.929  44.580  1.00  0.00     0.000 C 
HETATM    2  O1  UNL     1      32.723  10.510  44.665  1.00  0.00     0.000 OA
HETATM    3  C2  UNL     1      31.825   9.565  44.532  1.00  0.00     0.024 A 
HETATM    4  C3  UNL     1      32.138  10.216  45.853  1.00  0.00     0.080 A 
HETATM    5  C4  UNL     1      31.102  11.054  46.746  1.00  0.00     0.019 C 
HETATM    6  C5  UNL     1      29.763  10.890  46.226  1.00  0.00     0.041 C 
HETATM    7  C6  UNL     1      29.148   9.398  46.080  1.00  0.00     0.104 A 
HETATM    8  C8  UNL     1      29.799   7.956  46.412  1.00  0.00     0.137 A 
HETATM    9  P1  UNL     1      30.155   8.221  46.090  1.00  0.00    -0.078 P 
HETATM   10  C9  UNL     1      31.077   8.948  45.242  1.00  0.00    -0.058 A 
HETATM   11  C10 UNL     1      28.511   6.856  47.660  1.00  0.00     0.196 C 
HETATM   12  O3  UNL     1      29.420   7.111  48.672  1.00  0.00    -0.374 OA
HETATM   13  C11 UNL     1      29.509   8.534  48.860  1.00  0.00     0.100 A 
HETATM   14  C12 UNL     1      28.265   9.366  48.910  1.00  0.00     0.174 A 
HETATM   15  C13 UNL     1      28.534  10.757  49.006  1.00  0.00     0.060 A 
HETATM   16  N1  UNL     1      27.771  11.823  48.920  1.00  0.00    -0.222 NA
HETATM   17  C14 UNL     1      28.302  13.112  48.748  1.00  0.00     0.225 A 
HETATM   18 CL1  UNL     1      26.817  14.045  48.332  1.00  0.00    -0.041 Cl
HETATM   19  N2  UNL     1      29.734  13.103  48.692  1.00  0.00    -0.200 NA
HETATM   20  C15 UNL     1      30.129  11.767  48.811  1.00  0.00     0.143 A 
HETATM   21  C16 UNL     1      29.831  10.443  48.983  1.00  0.00     0.038 A 
HETATM   22  C17 UNL     1      31.119  10.058  48.955  1.00  0.00     0.052 A 
HETATM   23  C18 UNL     1      30.908   8.814  48.893  1.00  0.00     0.076 A 
HETATM   24  N3  UNL     1      31.333  11.901  47.970  1.00  0.00    -0.343 N 
HETATM   25  H17 UNL     1      32.176  12.470  48.165  1.00  0.00     0.167 HD
ENDROOT
BRANCH   7  26
HETATM   26  O2  UNL     1      28.259  10.380  45.670  1.00  0.00    -0.376 OA
HETATM   27  C7  UNL     1      26.913   9.894  45.503  1.00  0.00     0.203 C 
ENDBRANCH   7  26
BRANCH  23  28
HETATM   28  O4  UNL     1      31.771   7.791  48.861  1.00  0.00    -0.357 OA
HETATM   29  C19 UNL     1      33.140   7.840  48.673  1.00  0.00     0.209 C 
ENDBRANCH  23  28
TORSDOF 2
ENDMDL
MODEL 9
REMARK VINA RESULT:      -6.2      2.212      4.313
REMARK  2 active torsions:
REMARK  status: ('A' for Active; 'I' for Inactive)
REMARK    1  A    between atoms: C6_7  and  O2_8 
REMARK    2  A    between atoms: C18_25  and  O4_26 
ROOT
HETATM    1  C1  UNL     1      22.433   8.303  48.874  1.00  0.00     0.000 C 
HETATM    2  O1  UNL     1      23.168   7.642  49.969  1.00  0.00     0.000 OA
HETATM    3  C2  UNL     1      22.321   7.096  50.807  1.00  0.00     0.024 A 
HETATM    4  C3  UNL     1      23.142   6.293  49.833  1.00  0.00     0.080 A 
HETATM    5  C4  UNL     1      24.227   5.179  50.226  1.00  0.00     0.019 C 
HETATM    6  C5  UNL     1      24.131   4.879  51.637  1.00  0.00     0.041 C 
HETATM    7  C6  UNL     1      22.714   4.382  52.245  1.00  0.00     0.104 A 
HETATM    8  C8  UNL     1      21.282   4.157  51.528  1.00  0.00     0.137 A 
HETATM    9  P1  UNL     1      21.449   4.663  51.396  1.00  0.00    -0.078 P 
HETATM   10  C9  UNL     1      21.918   5.993  51.065  1.00  0.00    -0.058 A 
HETATM   11  C10 UNL     1      20.556   2.231  51.958  1.00  0.00     0.196 C 
HETATM   12  O3  UNL     1      20.871   1.916  50.648  1.00  0.00    -0.374 OA
HETATM   13  C11 UNL     1      22.286   2.092  50.462  1.00  0.00     0.100 A 
HETATM   14  C12 UNL     1      23.249   1.567  51.482  1.00  0.00     0.174 A 
HETATM   15  C13 UNL     1      24.598   1.905  51.194  1.00  0.00     0.060 A 
HETATM   16  N1  UNL     1      25.714   1.791  51.877  1.00  0.00    -0.222 NA
HETATM   17  C14 UNL     1      26.889   2.468  51.511  1.00  0.00     0.225 A 
HETATM   18 CL1  UNL     1      27.901   2.225  52.982  1.00  0.00    -0.041 Cl
HETATM   19  N2  UNL     1      26.710   3.260  50.330  1.00  0.00    -0.200 NA
HETATM   20  C15 UNL     1      25.377   3.101  49.942  1.00  0.00     0.143 A 
HETATM   21  C16 UNL     1      24.141   2.538  50.111  1.00  0.00     0.038 A 
HETATM   22  C17 UNL     1      23.615   3.157  49.040  1.00  0.00     0.052 A 
HETATM   23  C18 UNL     1      22.409   2.850  49.260  1.00  0.00     0.076 A 
HETATM   24  N3  UNL     1      25.234   4.453  49.372  1.00  0.00    -0.343 N 
HETATM   25  H17 UNL     1      25.729   4.846  48.551  1.00  0.00     0.167 HD
ENDROOT
BRANCH   7  26
HETATM   26  O2  UNL     1      23.708   4.453  53.210  1.00  0.00    -0.376 OA
HETATM   27  C7  UNL     1      23.483   5.490  54.182  1.00  0.00     0.203 C 
ENDBRANCH   7  26
BRANCH  23  28
HETATM   28  O4  UNL     1      21.305   3.122  48.554  1.00  0.00    -0.357 OA
HETATM   29  C19 UNL     1      21.195   3.316  47.189  1.00  0.00     0.209 C 
ENDBRANCH  23  28
TORSDOF 2
ENDMDL
