MODEL 1
REMARK VINA RESULT:      -8.3      0.000      0.000
REMARK  0 active torsions:
REMARK  status: ('A' for Active; 'I' for Inactive)
ROOT
HETATM    1  F1  UNL     1      22.691   3.704  48.230  1.00  0.00    -0.203 F 
HETATM    2  C1  UNL     1      23.787   3.533  48.997  1.00  0.00     0.151 A 
HETATM    3  C2  UNL     1      25.124   3.689  49.030  1.00  0.00     0.026 C 
HETATM    4  C3  UNL     1      25.424   3.187  50.366  1.00  0.00     0.095 C 
HETATM    5  C4  UNL     1      26.648   3.123  50.922  1.00  0.00     0.071 C 
HETATM    6  N1  UNL     1      26.466   2.571  52.224  1.00  0.00    -0.389 N 
HETATM    7  C5  UNL     1      27.031   1.578  53.108  1.00  0.00     0.052 A 
HETATM    8  C6  UNL     1      26.692   0.347  53.422  1.00  0.00     0.059 A 
HETATM    9  C7  UNL     1      25.609  -0.513  53.008  1.00  0.00     0.055 C 
HETATM   10  C8  UNL     1      24.358  -0.839  53.155  1.00  0.00     0.137 C 
HETATM   11  O1  UNL     1      23.016  -1.015  53.478  1.00  0.00    -0.363 OA
HETATM   12  C9  UNL     1      22.268   0.187  53.728  1.00  0.00     0.176 C 
HETATM   13  C10 UNL     1      20.890   0.042  53.068  1.00  0.00     0.056 C 
HETATM   14  C11 UNL     1      20.127   1.351  53.199  1.00  0.00     0.271 C 
HETATM   15  N2  UNL     1      20.977   2.439  52.719  1.00  0.00     0.083 N 
HETATM   16  C12 UNL     1      21.269   2.348  51.319  1.00  0.00     0.269 C 
HETATM   17  C13 UNL     1      22.305   3.392  50.919  1.00  0.00     0.032 C 
HETATM   18  O2  UNL     1      22.532   3.162  49.526  1.00  0.00     0.000 OA
HETATM   19  N3  UNL     1      27.569  -0.253  54.368  1.00  0.00    -0.349 N 
HETATM   20  C14 UNL     1      28.721   0.331  54.972  1.00  0.00     0.201 A 
HETATM   21  N4  UNL     1      28.975   1.523  54.610  1.00  0.00    -0.279 NA
HETATM   22  C15 UNL     1      28.204   2.283  53.666  1.00  0.00     0.209 A 
HETATM   23  H4  UNL     1      25.737   2.857  52.909  1.00  0.00     0.159 HD
HETATM   24  H13 UNL     1      20.409   3.308  52.895  1.00  0.00     0.315 HD
HETATM   25  H18 UNL     1      27.365  -1.255  54.665  1.00  0.00     0.166 HD
ENDROOT
TORSDOF 0
ENDMDL
MODEL 2
REMARK VINA RESULT:      -8.0      2.608      4.771
REMARK  0 active torsions:
REMARK  status: ('A' for Active; 'I' for Inactive)
ROOT
HETATM    1  F1  UNL     1      18.621  -0.545  53.233  1.00  0.00    -0.203 F 
HETATM    2  C1  UNL     1      19.946  -0.617  53.477  1.00  0.00     0.151 A 
HETATM    3  C2  UNL     1      20.876  -1.201  54.256  1.00  0.00     0.026 C 
HETATM    4  C3  UNL     1      22.093  -0.601  53.722  1.00  0.00     0.095 C 
HETATM    5  C4  UNL     1      23.343  -0.852  54.153  1.00  0.00     0.071 C 
HETATM    6  N1  UNL     1      24.209  -0.050  53.352  1.00  0.00    -0.389 N 
HETATM    7  C5  UNL     1      25.343   0.837  53.473  1.00  0.00     0.052 A 
HETATM    8  C6  UNL     1      25.472   2.146  53.485  1.00  0.00     0.059 A 
HETATM    9  C7  UNL     1      24.524   3.230  53.382  1.00  0.00     0.055 C 
HETATM   10  C8  UNL     1      23.801   3.975  52.597  1.00  0.00     0.137 C 
HETATM   11  O1  UNL     1      23.123   4.643  51.582  1.00  0.00    -0.363 OA
HETATM   12  C9  UNL     1      22.649   3.823  50.499  1.00  0.00     0.176 C 
HETATM   13  C10 UNL     1      21.242   4.300  50.117  1.00  0.00     0.056 C 
HETATM   14  C11 UNL     1      20.660   3.365  49.068  1.00  0.00     0.271 C 
HETATM   15  N2  UNL     1      20.782   1.990  49.546  1.00  0.00     0.083 N 
HETATM   16  C12 UNL     1      19.995   1.730  50.715  1.00  0.00     0.269 C 
HETATM   17  C13 UNL     1      20.308   0.348  51.275  1.00  0.00     0.032 C 
HETATM   18  O2  UNL     1      19.497   0.239  52.448  1.00  0.00     0.000 OA
HETATM   19  N3  UNL     1      26.821   2.576  53.622  1.00  0.00    -0.349 N 
HETATM   20  C14 UNL     1      27.982   1.758  53.741  1.00  0.00     0.201 A 
HETATM   21  N4  UNL     1      27.765   0.505  53.720  1.00  0.00    -0.279 NA
HETATM   22  C15 UNL     1      26.472  -0.109  53.592  1.00  0.00     0.209 A 
HETATM   23  H4  UNL     1      24.162   0.049  52.318  1.00  0.00     0.159 HD
HETATM   24  H13 UNL     1      20.417   1.406  48.750  1.00  0.00     0.315 HD
HETATM   25  H18 UNL     1      27.004   3.624  53.651  1.00  0.00     0.166 HD
ENDROOT
TORSDOF 0
ENDMDL
MODEL 3
REMARK VINA RESULT:      -7.9      2.837      6.316
REMARK  0 active torsions:
REMARK  status: ('A' for Active; 'I' for Inactive)
ROOT
HETATM    1  F1  UNL     1      22.209  -1.950  53.094  1.00  0.00    -0.203 F 
HETATM    2  C1  UNL     1      22.038  -0.660  52.739  1.00  0.00     0.151 A 
HETATM    3  C2  UNL     1      21.162   0.211  52.204  1.00  0.00     0.026 C 
HETATM    4  C3  UNL     1      21.947   1.439  52.233  1.00  0.00     0.095 C 
HETATM    5  C4  UNL     1      21.529   2.646  51.807  1.00  0.00     0.071 C 
HETATM    6  N1  UNL     1      22.617   3.543  52.024  1.00  0.00    -0.389 N 
HETATM    7  C5  UNL     1      23.350   4.594  51.357  1.00  0.00     0.052 A 
HETATM    8  C6  UNL     1      24.502   4.635  50.724  1.00  0.00     0.059 A 
HETATM    9  C7  UNL     1      25.504   3.636  50.437  1.00  0.00     0.055 C 
HETATM   10  C8  UNL     1      26.526   2.960  50.874  1.00  0.00     0.137 C 
HETATM   11  O1  UNL     1      27.588   2.360  51.545  1.00  0.00    -0.363 OA
HETATM   12  C9  UNL     1      27.367   2.068  52.935  1.00  0.00     0.176 C 
HETATM   13  C10 UNL     1      27.962   0.685  53.235  1.00  0.00     0.056 C 
HETATM   14  C11 UNL     1      27.623   0.290  54.664  1.00  0.00     0.271 C 
HETATM   15  N2  UNL     1      26.185   0.446  54.866  1.00  0.00     0.083 N 
HETATM   16  C12 UNL     1      25.404  -0.450  54.065  1.00  0.00     0.269 C 
HETATM   17  C13 UNL     1      23.922  -0.113  54.174  1.00  0.00     0.032 C 
HETATM   18  O2  UNL     1      23.273  -1.044  53.304  1.00  0.00     0.000 OA
HETATM   19  N3  UNL     1      24.824   5.929  50.226  1.00  0.00    -0.349 N 
HETATM   20  C14 UNL     1      24.051   7.119  50.349  1.00  0.00     0.201 A 
HETATM   21  N4  UNL     1      22.952   6.989  50.975  1.00  0.00    -0.279 NA
HETATM   22  C15 UNL     1      22.464   5.762  51.543  1.00  0.00     0.209 A 
HETATM   23  H4  UNL     1      23.188   3.608  52.891  1.00  0.00     0.159 HD
HETATM   24  H13 UNL     1      26.039   0.214  55.882  1.00  0.00     0.315 HD
HETATM   25  H18 UNL     1      25.738   6.038  49.692  1.00  0.00     0.166 HD
ENDROOT
TORSDOF 0
ENDMDL
MODEL 4
REMARK VINA RESULT:      -7.9      2.939      6.630
REMARK  0 active torsions:
REMARK  status: ('A' for Active; 'I' for Inactive)
ROOT
HETATM    1  F1  UNL     1      27.942   0.370  52.344  1.00  0.00    -0.203 F 
HETATM    2  C1  UNL     1      26.677   0.034  52.671  1.00  0.00     0.151 A 
HETATM    3  C2  UNL     1      25.924  -0.901  53.280  1.00  0.00     0.026 C 
HETATM    4  C3  UNL     1      24.592  -0.336  53.104  1.00  0.00     0.095 C 
HETATM    5  C4  UNL     1      23.445  -0.885  53.544  1.00  0.00     0.071 C 
HETATM    6  N1  UNL     1      22.401   0.004  53.150  1.00  0.00    -0.389 N 
HETATM    7  C5  UNL     1      21.089  -0.008  52.546  1.00  0.00     0.052 A 
HETATM    8  C6  UNL     1      20.649   0.232  51.330  1.00  0.00     0.059 A 
HETATM    9  C7  UNL     1      21.307   0.607  50.101  1.00  0.00     0.055 C 
HETATM   10  C8  UNL     1      21.819   1.567  49.388  1.00  0.00     0.137 C 
HETATM   11  O1  UNL     1      22.304   2.735  48.807  1.00  0.00    -0.363 OA
HETATM   12  C9  UNL     1      22.947   3.660  49.700  1.00  0.00     0.176 C 
HETATM   13  C10 UNL     1      24.193   4.217  48.998  1.00  0.00     0.056 C 
HETATM   14  C11 UNL     1      24.969   5.093  49.969  1.00  0.00     0.271 C 
HETATM   15  N2  UNL     1      25.188   4.345  51.205  1.00  0.00     0.083 N 
HETATM   16  C12 UNL     1      26.029   3.198  51.026  1.00  0.00     0.269 C 
HETATM   17  C13 UNL     1      26.065   2.357  52.296  1.00  0.00     0.032 C 
HETATM   18  O2  UNL     1      26.894   1.239  51.967  1.00  0.00     0.000 OA
HETATM   19  N3  UNL     1      19.238   0.099  51.207  1.00  0.00    -0.349 N 
HETATM   20  C14 UNL     1      18.310  -0.251  52.230  1.00  0.00     0.201 A 
HETATM   21  N4  UNL     1      18.821  -0.466  53.374  1.00  0.00    -0.279 NA
HETATM   22  C15 UNL     1      20.222  -0.383  53.683  1.00  0.00     0.209 A 
HETATM   23  H4  UNL     1      22.410   1.038  53.260  1.00  0.00     0.159 HD
HETATM   24  H13 UNL     1      25.673   5.030  51.840  1.00  0.00     0.315 HD
HETATM   25  H18 UNL     1      18.808   0.268  50.248  1.00  0.00     0.166 HD
ENDROOT
TORSDOF 0
ENDMDL
MODEL 5
REMARK VINA RESULT:      -7.8      2.903      4.737
REMARK  0 active torsions:
REMARK  status: ('A' for Active; 'I' for Inactive)
ROOT
HETATM    1  F1  UNL     1      26.807   6.399  47.988  1.00  0.00    -0.203 F 
HETATM    2  C1  UNL     1      26.703   5.311  48.779  1.00  0.00     0.151 A 
HETATM    3  C2  UNL     1      27.310   4.161  49.128  1.00  0.00     0.026 C 
HETATM    4  C3  UNL     1      26.366   3.643  50.111  1.00  0.00     0.095 C 
HETATM    5  C4  UNL     1      26.499   2.489  50.791  1.00  0.00     0.071 C 
HETATM    6  N1  UNL     1      25.351   2.388  51.632  1.00  0.00    -0.389 N 
HETATM    7  C5  UNL     1      24.347   1.436  52.045  1.00  0.00     0.052 A 
HETATM    8  C6  UNL     1      23.100   1.222  51.687  1.00  0.00     0.059 A 
HETATM    9  C7  UNL     1      22.227   1.857  50.729  1.00  0.00     0.055 C 
HETATM   10  C8  UNL     1      21.430   2.853  50.473  1.00  0.00     0.137 C 
HETATM   11  O1  UNL     1      20.629   3.990  50.422  1.00  0.00    -0.363 OA
HETATM   12  C9  UNL     1      21.164   5.164  51.055  1.00  0.00     0.176 C 
HETATM   13  C10 UNL     1      20.862   6.373  50.158  1.00  0.00     0.056 C 
HETATM   14  C11 UNL     1      21.536   7.609  50.734  1.00  0.00     0.271 C 
HETATM   15  N2  UNL     1      22.944   7.305  50.978  1.00  0.00     0.083 N 
HETATM   16  C12 UNL     1      23.678   7.040  49.776  1.00  0.00     0.269 C 
HETATM   17  C13 UNL     1      25.082   6.546  50.104  1.00  0.00     0.032 C 
HETATM   18  O2  UNL     1      25.680   6.282  48.832  1.00  0.00     0.000 OA
HETATM   19  N3  UNL     1      22.489   0.148  52.394  1.00  0.00    -0.349 N 
HETATM   20  C14 UNL     1      23.078  -0.670  53.401  1.00  0.00     0.201 A 
HETATM   21  N4  UNL     1      24.286  -0.394  53.685  1.00  0.00    -0.279 NA
HETATM   22  C15 UNL     1      25.061   0.651  53.073  1.00  0.00     0.209 A 
HETATM   23  H4  UNL     1      24.961   3.151  52.223  1.00  0.00     0.159 HD
HETATM   24  H13 UNL     1      23.323   8.178  51.427  1.00  0.00     0.315 HD
HETATM   25  H18 UNL     1      21.481  -0.093  52.150  1.00  0.00     0.166 HD
ENDROOT
TORSDOF 0
ENDMDL
MODEL 6
REMARK VINA RESULT:      -7.7      2.778      5.318
REMARK  0 active torsions:
REMARK  status: ('A' for Active; 'I' for Inactive)
ROOT
HETATM    1  F1  UNL     1      24.827  -1.267  55.164  1.00  0.00    -0.203 F 
HETATM    2  C1  UNL     1      25.382  -0.420  54.274  1.00  0.00     0.151 A 
HETATM    3  C2  UNL     1      26.550   0.101  53.853  1.00  0.00     0.026 C 
HETATM    4  C3  UNL     1      26.088   0.974  52.782  1.00  0.00     0.095 C 
HETATM    5  C4  UNL     1      26.874   1.745  52.007  1.00  0.00     0.071 C 
HETATM    6  N1  UNL     1      26.002   2.423  51.104  1.00  0.00    -0.389 N 
HETATM    7  C5  UNL     1      25.759   3.737  50.557  1.00  0.00     0.052 A 
HETATM    8  C6  UNL     1      24.892   4.687  50.832  1.00  0.00     0.059 A 
HETATM    9  C7  UNL     1      23.826   4.798  51.799  1.00  0.00     0.055 C 
HETATM   10  C8  UNL     1      22.596   4.505  52.104  1.00  0.00     0.137 C 
HETATM   11  O1  UNL     1      21.275   4.081  52.218  1.00  0.00    -0.363 OA
HETATM   12  C9  UNL     1      20.995   2.761  51.721  1.00  0.00     0.176 C 
HETATM   13  C10 UNL     1      20.043   2.069  52.707  1.00  0.00     0.056 C 
HETATM   14  C11 UNL     1      19.837   0.624  52.280  1.00  0.00     0.271 C 
HETATM   15  N2  UNL     1      21.145   0.004  52.080  1.00  0.00     0.083 N 
HETATM   16  C12 UNL     1      21.909  -0.099  53.288  1.00  0.00     0.269 C 
HETATM   17  C13 UNL     1      23.325  -0.574  52.987  1.00  0.00     0.032 C 
HETATM   18  O2  UNL     1      23.980  -0.589  54.259  1.00  0.00     0.000 OA
HETATM   19  N3  UNL     1      25.033   5.834  50.001  1.00  0.00    -0.349 N 
HETATM   20  C14 UNL     1      25.979   6.033  48.955  1.00  0.00     0.201 A 
HETATM   21  N4  UNL     1      26.779   5.064  48.757  1.00  0.00    -0.279 NA
HETATM   22  C15 UNL     1      26.786   3.833  49.499  1.00  0.00     0.209 A 
HETATM   23  H4  UNL     1      25.226   1.987  50.566  1.00  0.00     0.159 HD
HETATM   24  H13 UNL     1      20.921  -0.964  51.732  1.00  0.00     0.315 HD
HETATM   25  H18 UNL     1      24.372   6.651  50.172  1.00  0.00     0.166 HD
ENDROOT
TORSDOF 0
ENDMDL
MODEL 7
REMARK VINA RESULT:      -7.3      3.171      5.725
REMARK  0 active torsions:
REMARK  status: ('A' for Active; 'I' for Inactive)
ROOT
HETATM    1  F1  UNL     1      20.145   0.710  50.389  1.00  0.00    -0.203 F 
HETATM    2  C1  UNL     1      20.625   1.966  50.287  1.00  0.00     0.151 A 
HETATM    3  C2  UNL     1      20.367   3.190  49.788  1.00  0.00     0.026 C 
HETATM    4  C3  UNL     1      21.553   3.917  50.226  1.00  0.00     0.095 C 
HETATM    5  C4  UNL     1      21.804   5.219  49.990  1.00  0.00     0.071 C 
HETATM    6  N1  UNL     1      23.065   5.497  50.596  1.00  0.00    -0.389 N 
HETATM    7  C5  UNL     1      24.317   6.163  50.320  1.00  0.00     0.052 A 
HETATM    8  C6  UNL     1      25.504   5.741  49.944  1.00  0.00     0.059 A 
HETATM    9  C7  UNL     1      26.037   4.432  49.652  1.00  0.00     0.055 C 
HETATM   10  C8  UNL     1      26.529   3.325  50.127  1.00  0.00     0.137 C 
HETATM   11  O1  UNL     1      27.025   2.243  50.848  1.00  0.00    -0.363 OA
HETATM   12  C9  UNL     1      26.342   1.942  52.077  1.00  0.00     0.176 C 
HETATM   13  C10 UNL     1      26.205   0.417  52.188  1.00  0.00     0.056 C 
HETATM   14  C11 UNL     1      25.366   0.074  53.410  1.00  0.00     0.271 C 
HETATM   15  N2  UNL     1      24.126   0.845  53.358  1.00  0.00     0.083 N 
HETATM   16  C12 UNL     1      23.288   0.488  52.252  1.00  0.00     0.269 C 
HETATM   17  C13 UNL     1      22.110   1.448  52.141  1.00  0.00     0.032 C 
HETATM   18  O2  UNL     1      21.390   1.007  50.986  1.00  0.00     0.000 OA
HETATM   19  N3  UNL     1      26.454   6.792  49.801  1.00  0.00    -0.349 N 
HETATM   20  C14 UNL     1      26.243   8.184  50.019  1.00  0.00     0.201 A 
HETATM   21  N4  UNL     1      25.067   8.503  50.381  1.00  0.00    -0.279 NA
HETATM   22  C15 UNL     1      23.981   7.580  50.572  1.00  0.00     0.209 A 
HETATM   23  H4  UNL     1      23.358   5.206  51.551  1.00  0.00     0.159 HD
HETATM   24  H13 UNL     1      23.632   0.601  54.255  1.00  0.00     0.315 HD
HETATM   25  H18 UNL     1      27.437   6.528  49.488  1.00  0.00     0.166 HD
ENDROOT
TORSDOF 0
ENDMDL
MODEL 8
REMARK VINA RESULT:      -7.3      3.140      5.924
REMARK  0 active torsions:
REMARK  status: ('A' for Active; 'I' for Inactive)
ROOT
HETATM    1  F1  UNL     1      26.839   0.491  54.570  1.00  0.00    -0.203 F 
HETATM    2  C1  UNL     1      26.495   1.251  53.511  1.00  0.00     0.151 A 
HETATM    3  C2  UNL     1      26.951   2.171  52.640  1.00  0.00     0.026 C 
HETATM    4  C3  UNL     1      25.762   2.389  51.825  1.00  0.00     0.095 C 
HETATM    5  C4  UNL     1      25.673   3.232  50.780  1.00  0.00     0.071 C 
HETATM    6  N1  UNL     1      24.338   3.120  50.290  1.00  0.00    -0.389 N 
HETATM    7  C5  UNL     1      23.233   3.942  49.856  1.00  0.00     0.052 A 
HETATM    8  C6  UNL     1      22.124   4.350  50.434  1.00  0.00     0.059 A 
HETATM    9  C7  UNL     1      21.562   4.137  51.746  1.00  0.00     0.055 C 
HETATM   10  C8  UNL     1      20.892   3.343  52.530  1.00  0.00     0.137 C 
HETATM   11  O1  UNL     1      20.167   2.348  53.179  1.00  0.00    -0.363 OA
HETATM   12  C9  UNL     1      20.544   0.995  52.871  1.00  0.00     0.176 C 
HETATM   13  C10 UNL     1      20.531   0.185  54.175  1.00  0.00     0.056 C 
HETATM   14  C11 UNL     1      21.057  -1.216  53.903  1.00  0.00     0.271 C 
HETATM   15  N2  UNL     1      22.337  -1.109  53.207  1.00  0.00     0.083 N 
HETATM   16  C12 UNL     1      23.362  -0.503  54.005  1.00  0.00     0.269 C 
HETATM   17  C13 UNL     1      24.610  -0.246  53.169  1.00  0.00     0.032 C 
HETATM   18  O2  UNL     1      25.523   0.392  54.067  1.00  0.00     0.000 OA
HETATM   19  N3  UNL     1      21.315   5.160  49.589  1.00  0.00    -0.349 N 
HETATM   20  C14 UNL     1      21.585   5.546  48.244  1.00  0.00     0.201 A 
HETATM   21  N4  UNL     1      22.678   5.108  47.765  1.00  0.00    -0.279 NA
HETATM   22  C15 UNL     1      23.619   4.283  48.470  1.00  0.00     0.209 A 
HETATM   23  H4  UNL     1      23.824   2.231  50.124  1.00  0.00     0.159 HD
HETATM   24  H13 UNL     1      22.605  -2.106  53.004  1.00  0.00     0.315 HD
HETATM   25  H18 UNL     1      20.404   5.536  49.991  1.00  0.00     0.166 HD
ENDROOT
TORSDOF 0
ENDMDL
MODEL 9
REMARK VINA RESULT:      -7.3      3.564      6.971
REMARK  0 active torsions:
REMARK  status: ('A' for Active; 'I' for Inactive)
ROOT
HETATM    1  F1  UNL     1      26.246   1.776  52.561  1.00  0.00    -0.203 F 
HETATM    2  C1  UNL     1      25.096   1.103  52.770  1.00  0.00     0.151 A 
HETATM    3  C2  UNL     1      24.586  -0.088  53.134  1.00  0.00     0.026 C 
HETATM    4  C3  UNL     1      23.157   0.191  53.054  1.00  0.00     0.095 C 
HETATM    5  C4  UNL     1      22.172  -0.684  53.329  1.00  0.00     0.071 C 
HETATM    6  N1  UNL     1      20.947   0.016  53.117  1.00  0.00    -0.389 N 
HETATM    7  C5  UNL     1      19.656  -0.151  52.491  1.00  0.00     0.052 A 
HETATM    8  C6  UNL     1      19.144   0.252  51.349  1.00  0.00     0.059 A 
HETATM    9  C7  UNL     1      19.671   1.030  50.253  1.00  0.00     0.055 C 
HETATM   10  C8  UNL     1      19.939   2.215  49.786  1.00  0.00     0.137 C 
HETATM   11  O1  UNL     1      20.137   3.561  49.496  1.00  0.00    -0.363 OA
HETATM   12  C9  UNL     1      20.581   4.381  50.590  1.00  0.00     0.176 C 
HETATM   13  C10 UNL     1      21.654   5.344  50.064  1.00  0.00     0.056 C 
HETATM   14  C11 UNL     1      22.240   6.130  51.228  1.00  0.00     0.271 C 
HETATM   15  N2  UNL     1      22.650   5.191  52.269  1.00  0.00     0.083 N 
HETATM   16  C12 UNL     1      23.720   4.330  51.860  1.00  0.00     0.269 C 
HETATM   17  C13 UNL     1      23.974   3.256  52.910  1.00  0.00     0.032 C 
HETATM   18  O2  UNL     1      25.022   2.452  52.360  1.00  0.00     0.000 OA
HETATM   19  N3  UNL     1      17.795  -0.160  51.162  1.00  0.00    -0.349 N 
HETATM   20  C14 UNL     1      16.994  -0.928  52.055  1.00  0.00     0.201 A 
HETATM   21  N4  UNL     1      17.568  -1.276  53.134  1.00  0.00    -0.279 NA
HETATM   22  C15 UNL     1      18.923  -0.954  53.491  1.00  0.00     0.209 A 
HETATM   23  H4  UNL     1      20.728   0.975  53.456  1.00  0.00     0.159 HD
HETATM   24  H13 UNL     1      22.985   5.807  53.055  1.00  0.00     0.315 HD
HETATM   25  H18 UNL     1      17.315   0.120  50.253  1.00  0.00     0.166 HD
ENDROOT
TORSDOF 0
ENDMDL
