MODEL 1
REMARK VINA RESULT:      -8.1      0.000      0.000
REMARK  6 active torsions:
REMARK  status: ('A' for Active; 'I' for Inactive)
REMARK       I    between atoms: C1_2  and  N1_3 
REMARK       I    between atoms: C1_2  and  N2_10 
REMARK    1  A    between atoms: N1_3  and  C2_4 
REMARK    2  A    between atoms: N2_10  and  C8_11 
REMARK    3  A    between atoms: N2_10  and  C13_17 
REMARK    4  A    between atoms: C8_11  and  C9_12 
REMARK    5  A    between atoms: C13_17  and  C14_18 
REMARK    6  A    between atoms: C19_24  and  O3_25 
ROOT
HETATM    1  O1  UNL     1      26.695   1.948  51.289  1.00  0.00    -0.247 OA
HETATM    2  C1  UNL     1      25.768   2.616  51.867  1.00  0.00     0.323 C 
HETATM    3  N1  UNL     1      26.018   2.427  53.263  1.00  0.00    -0.309 N 
HETATM    4  N2  UNL     1      24.684   3.404  51.323  1.00  0.00    -0.325 N 
HETATM    5  H1  UNL     1      25.383   2.884  53.984  1.00  0.00     0.170 HD
ENDROOT
BRANCH   4   6
HETATM    6  C8  UNL     1      23.814   4.033  52.233  1.00  0.00     0.168 C 
BRANCH   6   7
HETATM    7  C9  UNL     1      22.447   3.523  52.312  1.00  0.00    -0.016 A 
HETATM    8  C10 UNL     1      22.116   2.164  52.433  1.00  0.00     0.035 A 
HETATM    9  C11 UNL     1      20.739   2.071  52.477  1.00  0.00     0.142 A 
HETATM   10  O2  UNL     1      20.234   3.279  52.389  1.00  0.00    -0.334 OA
HETATM   11  C12 UNL     1      21.221   4.137  52.292  1.00  0.00     0.150 A 
ENDBRANCH   6   7
ENDBRANCH   4   6
BRANCH   4  12
HETATM   12  C13 UNL     1      24.766   3.361  49.873  1.00  0.00     0.169 C 
BRANCH  12  13
HETATM   13  C14 UNL     1      25.213   4.623  49.245  1.00  0.00    -0.006 A 
HETATM   14  C15 UNL     1      24.207   5.488  48.810  1.00  0.00     0.012 A 
HETATM   15  C16 UNL     1      24.499   6.701  48.211  1.00  0.00     0.002 A 
HETATM   16  C17 UNL     1      25.798   7.115  48.013  1.00  0.00     0.022 A 
HETATM   17  C18 UNL     1      26.803   6.270  48.437  1.00  0.00     0.044 A 
HETATM   18 BR1  UNL     1      28.639   6.758  48.204  1.00  0.00    -0.048 Br
HETATM   19  C19 UNL     1      26.495   5.070  49.029  1.00  0.00     0.090 A 
BRANCH  19  20
HETATM   20  O3  UNL     1      27.520   4.267  49.430  1.00  0.00    -0.359 OA
HETATM   21  H17 UNL     1      27.743   3.448  48.867  1.00  0.00     0.217 HD
ENDBRANCH  19  20
ENDBRANCH  12  13
ENDBRANCH   4  12
BRANCH   3  22
HETATM   22  C2  UNL     1      27.165   1.596  53.407  1.00  0.00     0.036 A 
HETATM   23  C3  UNL     1      26.840   0.245  53.300  1.00  0.00     0.029 A 
HETATM   24  C4  UNL     1      27.797  -0.743  53.408  1.00  0.00     0.002 A 
HETATM   25  C5  UNL     1      29.111  -0.332  53.630  1.00  0.00     0.000 A 
HETATM   26  C6  UNL     1      29.443   0.988  53.737  1.00  0.00     0.002 A 
HETATM   27  C7  UNL     1      28.464   1.980  53.627  1.00  0.00     0.029 A 
ENDBRANCH   3  22
TORSDOF 6
ENDMDL
MODEL 2
REMARK VINA RESULT:      -7.9      2.468      5.935
REMARK  6 active torsions:
REMARK  status: ('A' for Active; 'I' for Inactive)
REMARK       I    between atoms: C1_2  and  N1_3 
REMARK       I    between atoms: C1_2  and  N2_10 
REMARK    1  A    between atoms: N1_3  and  C2_4 
REMARK    2  A    between atoms: N2_10  and  C8_11 
REMARK    3  A    between atoms: N2_10  and  C13_17 
REMARK    4  A    between atoms: C8_11  and  C9_12 
REMARK    5  A    between atoms: C13_17  and  C14_18 
REMARK    6  A    between atoms: C19_24  and  O3_25 
ROOT
HETATM    1  O1  UNL     1      25.959   3.162  51.534  1.00  0.00    -0.247 OA
HETATM    2  C1  UNL     1      24.842   2.569  51.335  1.00  0.00     0.323 C 
HETATM    3  N1  UNL     1      24.429   3.023  50.042  1.00  0.00    -0.309 N 
HETATM    4  N2  UNL     1      24.097   1.645  52.160  1.00  0.00    -0.325 N 
HETATM    5  H1  UNL     1      23.514   2.677  49.624  1.00  0.00     0.170 HD
ENDROOT
BRANCH   4   6
HETATM    6  C8  UNL     1      22.879   1.153  51.654  1.00  0.00     0.168 C 
BRANCH   6   7
HETATM    7  C9  UNL     1      21.944   0.570  52.613  1.00  0.00    -0.016 A 
HETATM    8  C10 UNL     1      21.975  -0.769  53.034  1.00  0.00     0.035 A 
HETATM    9  C11 UNL     1      20.945  -0.949  53.936  1.00  0.00     0.142 A 
HETATM   10  O2  UNL     1      20.308   0.190  54.077  1.00  0.00    -0.334 OA
HETATM   11  C12 UNL     1      20.881   1.086  53.310  1.00  0.00     0.150 A 
ENDBRANCH   6   7
ENDBRANCH   4   6
BRANCH   4  12
HETATM   12  C13 UNL     1      24.839   1.423  53.390  1.00  0.00     0.169 C 
BRANCH  12  13
HETATM   13  C14 UNL     1      25.960   0.467  53.269  1.00  0.00    -0.006 A 
HETATM   14  C15 UNL     1      25.631  -0.820  52.840  1.00  0.00     0.012 A 
HETATM   15  C16 UNL     1      26.594  -1.803  52.683  1.00  0.00     0.002 A 
HETATM   16  C17 UNL     1      27.924  -1.559  52.943  1.00  0.00     0.022 A 
HETATM   17  C18 UNL     1      28.264  -0.291  53.368  1.00  0.00     0.044 A 
HETATM   18 BR1  UNL     1      30.088   0.143  53.753  1.00  0.00    -0.048 Br
HETATM   19  C19 UNL     1      27.296   0.671  53.518  1.00  0.00     0.090 A 
BRANCH  19  20
HETATM   20  O3  UNL     1      27.678   1.909  53.942  1.00  0.00    -0.359 OA
HETATM   21  H17 UNL     1      28.075   2.000  54.875  1.00  0.00     0.217 HD
ENDBRANCH  19  20
ENDBRANCH  12  13
ENDBRANCH   4  12
BRANCH   3  22
HETATM   22  C2  UNL     1      25.416   3.920  49.544  1.00  0.00     0.036 A 
HETATM   23  C3  UNL     1      24.904   5.203  49.363  1.00  0.00     0.029 A 
HETATM   24  C4  UNL     1      25.684   6.236  48.887  1.00  0.00     0.002 A 
HETATM   25  C5  UNL     1      27.015   5.942  48.591  1.00  0.00     0.000 A 
HETATM   26  C6  UNL     1      27.530   4.689  48.764  1.00  0.00     0.002 A 
HETATM   27  C7  UNL     1      26.729   3.651  49.246  1.00  0.00     0.029 A 
ENDBRANCH   3  22
TORSDOF 6
ENDMDL
MODEL 3
REMARK VINA RESULT:      -7.9      3.471      7.632
REMARK  6 active torsions:
REMARK  status: ('A' for Active; 'I' for Inactive)
REMARK       I    between atoms: C1_2  and  N1_3 
REMARK       I    between atoms: C1_2  and  N2_10 
REMARK    1  A    between atoms: N1_3  and  C2_4 
REMARK    2  A    between atoms: N2_10  and  C8_11 
REMARK    3  A    between atoms: N2_10  and  C13_17 
REMARK    4  A    between atoms: C8_11  and  C9_12 
REMARK    5  A    between atoms: C13_17  and  C14_18 
REMARK    6  A    between atoms: C19_24  and  O3_25 
ROOT
HETATM    1  O1  UNL     1      23.154   3.386  51.264  1.00  0.00    -0.247 OA
HETATM    2  C1  UNL     1      24.020   3.283  52.202  1.00  0.00     0.323 C 
HETATM    3  N1  UNL     1      24.242   4.632  52.624  1.00  0.00    -0.309 N 
HETATM    4  N2  UNL     1      24.675   2.125  52.767  1.00  0.00    -0.325 N 
HETATM    5  H1  UNL     1      24.930   4.838  53.408  1.00  0.00     0.170 HD
ENDROOT
BRANCH   4   6
HETATM    6  C8  UNL     1      25.594   2.340  53.811  1.00  0.00     0.168 C 
BRANCH   6   7
HETATM    7  C9  UNL     1      26.618   1.318  54.019  1.00  0.00    -0.016 A 
HETATM    8  C10 UNL     1      27.814   1.237  53.288  1.00  0.00     0.035 A 
HETATM    9  C11 UNL     1      28.523   0.152  53.764  1.00  0.00     0.142 A 
HETATM   10  O2  UNL     1      27.830  -0.414  54.725  1.00  0.00    -0.334 OA
HETATM   11  C12 UNL     1      26.715   0.258  54.884  1.00  0.00     0.150 A 
ENDBRANCH   6   7
ENDBRANCH   4   6
BRANCH   4  12
HETATM   12  C13 UNL     1      24.186   0.939  52.084  1.00  0.00     0.169 C 
BRANCH  12  13
HETATM   13  C14 UNL     1      23.021   0.294  52.728  1.00  0.00    -0.006 A 
HETATM   14  C15 UNL     1      23.285  -0.454  53.875  1.00  0.00     0.012 A 
HETATM   15  C16 UNL     1      22.277  -1.102  54.570  1.00  0.00     0.002 A 
HETATM   16  C17 UNL     1      20.964  -1.040  54.161  1.00  0.00     0.022 A 
HETATM   17  C18 UNL     1      20.688  -0.304  53.027  1.00  0.00     0.044 A 
HETATM   18 BR1  UNL     1      18.891  -0.159  52.381  1.00  0.00    -0.048 Br
HETATM   19  C19 UNL     1      21.699   0.332  52.351  1.00  0.00     0.090 A 
BRANCH  19  20
HETATM   20  O3  UNL     1      21.380   1.045  51.235  1.00  0.00    -0.359 OA
HETATM   21  H17 UNL     1      20.645   0.691  50.627  1.00  0.00     0.217 HD
ENDBRANCH  19  20
ENDBRANCH  12  13
ENDBRANCH   4  12
BRANCH   3  22
HETATM   22  C2  UNL     1      23.423   5.491  51.837  1.00  0.00     0.036 A 
HETATM   23  C3  UNL     1      24.181   6.417  51.123  1.00  0.00     0.029 A 
HETATM   24  C4  UNL     1      23.595   7.351  50.294  1.00  0.00     0.002 A 
HETATM   25  C5  UNL     1      22.203   7.330  50.198  1.00  0.00     0.000 A 
HETATM   26  C6  UNL     1      21.448   6.427  50.892  1.00  0.00     0.002 A 
HETATM   27  C7  UNL     1      22.054   5.487  51.730  1.00  0.00     0.029 A 
ENDBRANCH   3  22
TORSDOF 6
ENDMDL
MODEL 4
REMARK VINA RESULT:      -7.7      2.976      7.301
REMARK  6 active torsions:
REMARK  status: ('A' for Active; 'I' for Inactive)
REMARK       I    between atoms: C1_2  and  N1_3 
REMARK       I    between atoms: C1_2  and  N2_10 
REMARK    1  A    between atoms: N1_3  and  C2_4 
REMARK    2  A    between atoms: N2_10  and  C8_11 
REMARK    3  A    between atoms: N2_10  and  C13_17 
REMARK    4  A    between atoms: C8_11  and  C9_12 
REMARK    5  A    between atoms: C13_17  and  C14_18 
REMARK    6  A    between atoms: C19_24  and  O3_25 
ROOT
HETATM    1  O1  UNL     1      24.493   4.007  51.230  1.00  0.00    -0.247 OA
HETATM    2  C1  UNL     1      25.311   3.027  51.135  1.00  0.00     0.323 C 
HETATM    3  N1  UNL     1      25.974   3.242  49.885  1.00  0.00    -0.309 N 
HETATM    4  N2  UNL     1      25.572   1.918  52.025  1.00  0.00    -0.325 N 
HETATM    5  H1  UNL     1      26.721   2.561  49.555  1.00  0.00     0.170 HD
ENDROOT
BRANCH   4   6
HETATM    6  C8  UNL     1      26.553   0.986  51.637  1.00  0.00     0.168 C 
BRANCH   6   7
HETATM    7  C9  UNL     1      27.375   0.401  52.695  1.00  0.00    -0.016 A 
HETATM    8  C10 UNL     1      28.334   1.110  53.434  1.00  0.00     0.035 A 
HETATM    9  C11 UNL     1      28.902   0.231  54.335  1.00  0.00     0.142 A 
HETATM   10  O2  UNL     1      28.346  -0.947  54.179  1.00  0.00    -0.334 OA
HETATM   11  C12 UNL     1      27.451  -0.861  53.224  1.00  0.00     0.150 A 
ENDBRANCH   6   7
ENDBRANCH   4   6
BRANCH   4  12
HETATM   12  C13 UNL     1      24.710   2.047  53.188  1.00  0.00     0.169 C 
BRANCH  12  13
HETATM   13  C14 UNL     1      23.546   1.135  53.196  1.00  0.00    -0.006 A 
HETATM   14  C15 UNL     1      23.741  -0.111  53.793  1.00  0.00     0.012 A 
HETATM   15  C16 UNL     1      22.726  -1.050  53.866  1.00  0.00     0.002 A 
HETATM   16  C17 UNL     1      21.473  -0.800  53.352  1.00  0.00     0.022 A 
HETATM   17  C18 UNL     1      21.266   0.428  52.758  1.00  0.00     0.044 A 
HETATM   18 BR1  UNL     1      19.557   0.867  52.014  1.00  0.00    -0.048 Br
HETATM   19  C19 UNL     1      22.284   1.347  52.694  1.00  0.00     0.090 A 
BRANCH  19  20
HETATM   20  O3  UNL     1      22.035   2.545  52.096  1.00  0.00    -0.359 OA
HETATM   21  H17 UNL     1      21.922   3.367  52.686  1.00  0.00     0.217 HD
ENDBRANCH  19  20
ENDBRANCH  12  13
ENDBRANCH   4  12
BRANCH   3  22
HETATM   22  C2  UNL     1      25.451   4.429  49.297  1.00  0.00     0.036 A 
HETATM   23  C3  UNL     1      26.438   5.398  49.124  1.00  0.00     0.029 A 
HETATM   24  C4  UNL     1      26.157   6.630  48.571  1.00  0.00     0.002 A 
HETATM   25  C5  UNL     1      24.836   6.869  48.190  1.00  0.00     0.000 A 
HETATM   26  C6  UNL     1      23.859   5.928  48.355  1.00  0.00     0.002 A 
HETATM   27  C7  UNL     1      24.157   4.684  48.917  1.00  0.00     0.029 A 
ENDBRANCH   3  22
TORSDOF 6
ENDMDL
MODEL 5
REMARK VINA RESULT:      -7.7      2.180      2.893
REMARK  6 active torsions:
REMARK  status: ('A' for Active; 'I' for Inactive)
REMARK       I    between atoms: C1_2  and  N1_3 
REMARK       I    between atoms: C1_2  and  N2_10 
REMARK    1  A    between atoms: N1_3  and  C2_4 
REMARK    2  A    between atoms: N2_10  and  C8_11 
REMARK    3  A    between atoms: N2_10  and  C13_17 
REMARK    4  A    between atoms: C8_11  and  C9_12 
REMARK    5  A    between atoms: C13_17  and  C14_18 
REMARK    6  A    between atoms: C19_24  and  O3_25 
ROOT
HETATM    1  O1  UNL     1      26.436   0.591  51.601  1.00  0.00    -0.247 OA
HETATM    2  C1  UNL     1      25.443   0.886  52.353  1.00  0.00     0.323 C 
HETATM    3  N1  UNL     1      25.824   0.400  53.644  1.00  0.00    -0.309 N 
HETATM    4  N2  UNL     1      24.192   1.549  52.059  1.00  0.00    -0.325 N 
HETATM    5  H1  UNL     1      25.167   0.518  54.472  1.00  0.00     0.170 HD
ENDROOT
BRANCH   4   6
HETATM    6  C8  UNL     1      23.286   1.734  53.120  1.00  0.00     0.168 C 
BRANCH   6   7
HETATM    7  C9  UNL     1      22.224   0.741  53.272  1.00  0.00    -0.016 A 
HETATM    8  C10 UNL     1      22.313  -0.393  54.094  1.00  0.00     0.035 A 
HETATM    9  C11 UNL     1      21.126  -1.088  53.979  1.00  0.00     0.142 A 
HETATM   10  O2  UNL     1      20.342  -0.444  53.146  1.00  0.00    -0.334 OA
HETATM   11  C12 UNL     1      20.972   0.626  52.725  1.00  0.00     0.150 A 
ENDBRANCH   6   7
ENDBRANCH   4   6
BRANCH   4  12
HETATM   12  C13 UNL     1      24.175   1.898  50.648  1.00  0.00     0.169 C 
BRANCH  12  13
HETATM   13  C14 UNL     1      24.722   3.236  50.339  1.00  0.00    -0.006 A 
HETATM   14  C15 UNL     1      25.935   3.264  49.649  1.00  0.00     0.012 A 
HETATM   15  C16 UNL     1      26.546   4.456  49.298  1.00  0.00     0.002 A 
HETATM   16  C17 UNL     1      25.986   5.674  49.613  1.00  0.00     0.022 A 
HETATM   17  C18 UNL     1      24.787   5.662  50.295  1.00  0.00     0.044 A 
HETATM   18 BR1  UNL     1      23.932   7.306  50.777  1.00  0.00    -0.048 Br
HETATM   19  C19 UNL     1      24.196   4.471  50.636  1.00  0.00     0.090 A 
BRANCH  19  20
HETATM   20  O3  UNL     1      23.013   4.508  51.311  1.00  0.00    -0.359 OA
HETATM   21  H17 UNL     1      22.957   5.067  52.159  1.00  0.00     0.217 HD
ENDBRANCH  19  20
ENDBRANCH  12  13
ENDBRANCH   4  12
BRANCH   3  22
HETATM   22  C2  UNL     1      27.116  -0.190  53.540  1.00  0.00     0.036 A 
HETATM   23  C3  UNL     1      28.113   0.667  54.000  1.00  0.00     0.029 A 
HETATM   24  C4  UNL     1      29.444   0.304  53.993  1.00  0.00     0.002 A 
HETATM   25  C5  UNL     1      29.753  -0.965  53.501  1.00  0.00     0.000 A 
HETATM   26  C6  UNL     1      28.785  -1.814  53.046  1.00  0.00     0.002 A 
HETATM   27  C7  UNL     1      27.440  -1.434  53.059  1.00  0.00     0.029 A 
ENDBRANCH   3  22
TORSDOF 6
ENDMDL
MODEL 6
REMARK VINA RESULT:      -7.7      2.597      6.295
REMARK  6 active torsions:
REMARK  status: ('A' for Active; 'I' for Inactive)
REMARK       I    between atoms: C1_2  and  N1_3 
REMARK       I    between atoms: C1_2  and  N2_10 
REMARK    1  A    between atoms: N1_3  and  C2_4 
REMARK    2  A    between atoms: N2_10  and  C8_11 
REMARK    3  A    between atoms: N2_10  and  C13_17 
REMARK    4  A    between atoms: C8_11  and  C9_12 
REMARK    5  A    between atoms: C13_17  and  C14_18 
REMARK    6  A    between atoms: C19_24  and  O3_25 
ROOT
HETATM    1  O1  UNL     1      22.398   1.434  52.931  1.00  0.00    -0.247 OA
HETATM    2  C1  UNL     1      23.356   0.585  52.959  1.00  0.00     0.323 C 
HETATM    3  N1  UNL     1      22.708  -0.682  52.807  1.00  0.00    -0.309 N 
HETATM    4  N2  UNL     1      24.783   0.768  53.104  1.00  0.00    -0.325 N 
HETATM    5  H1  UNL     1      23.284  -1.576  52.794  1.00  0.00     0.170 HD
ENDROOT
BRANCH   4   6
HETATM    6  C8  UNL     1      25.593  -0.383  53.092  1.00  0.00     0.168 C 
BRANCH   6   7
HETATM    7  C9  UNL     1      26.917  -0.274  53.704  1.00  0.00    -0.016 A 
HETATM    8  C10 UNL     1      28.111  -0.658  53.076  1.00  0.00     0.035 A 
HETATM    9  C11 UNL     1      29.146  -0.410  53.955  1.00  0.00     0.142 A 
HETATM   10  O2  UNL     1      28.645   0.094  55.059  1.00  0.00    -0.334 OA
HETATM   11  C12 UNL     1      27.344   0.178  54.925  1.00  0.00     0.150 A 
ENDBRANCH   6   7
ENDBRANCH   4   6
BRANCH   4  12
HETATM   12  C13 UNL     1      25.056   2.191  53.225  1.00  0.00     0.169 C 
BRANCH  12  13
HETATM   13  C14 UNL     1      25.205   2.901  51.937  1.00  0.00    -0.006 A 
HETATM   14  C15 UNL     1      26.340   2.589  51.187  1.00  0.00     0.012 A 
HETATM   15  C16 UNL     1      26.588   3.184  49.962  1.00  0.00     0.002 A 
HETATM   16  C17 UNL     1      25.728   4.114  49.423  1.00  0.00     0.022 A 
HETATM   17  C18 UNL     1      24.602   4.433  50.154  1.00  0.00     0.044 A 
HETATM   18 BR1  UNL     1      23.347   5.715  49.487  1.00  0.00    -0.048 Br
HETATM   19  C19 UNL     1      24.371   3.833  51.367  1.00  0.00     0.090 A 
BRANCH  19  20
HETATM   20  O3  UNL     1      23.247   4.180  52.055  1.00  0.00    -0.359 OA
HETATM   21  H17 UNL     1      22.505   3.490  52.150  1.00  0.00     0.217 HD
ENDBRANCH  19  20
ENDBRANCH  12  13
ENDBRANCH   4  12
BRANCH   3  22
HETATM   22  C2  UNL     1      21.307  -0.460  52.694  1.00  0.00     0.036 A 
HETATM   23  C3  UNL     1      20.966   0.065  51.448  1.00  0.00     0.029 A 
HETATM   24  C4  UNL     1      19.660   0.360  51.116  1.00  0.00     0.002 A 
HETATM   25  C5  UNL     1      18.687   0.111  52.085  1.00  0.00     0.000 A 
HETATM   26  C6  UNL     1      19.007  -0.402  53.310  1.00  0.00     0.002 A 
HETATM   27  C7  UNL     1      20.335  -0.697  53.634  1.00  0.00     0.029 A 
ENDBRANCH   3  22
TORSDOF 6
ENDMDL
MODEL 7
REMARK VINA RESULT:      -7.6      2.327      2.686
REMARK  6 active torsions:
REMARK  status: ('A' for Active; 'I' for Inactive)
REMARK       I    between atoms: C1_2  and  N1_3 
REMARK       I    between atoms: C1_2  and  N2_10 
REMARK    1  A    between atoms: N1_3  and  C2_4 
REMARK    2  A    between atoms: N2_10  and  C8_11 
REMARK    3  A    between atoms: N2_10  and  C13_17 
REMARK    4  A    between atoms: C8_11  and  C9_12 
REMARK    5  A    between atoms: C13_17  and  C14_18 
REMARK    6  A    between atoms: C19_24  and  O3_25 
ROOT
HETATM    1  O1  UNL     1      27.285   1.233  51.835  1.00  0.00    -0.247 OA
HETATM    2  C1  UNL     1      26.193   1.532  52.432  1.00  0.00     0.323 C 
HETATM    3  N1  UNL     1      26.134   0.622  53.535  1.00  0.00    -0.309 N 
HETATM    4  N2  UNL     1      25.192   2.534  52.137  1.00  0.00    -0.325 N 
HETATM    5  H1  UNL     1      25.313   0.655  54.209  1.00  0.00     0.170 HD
ENDROOT
BRANCH   4   6
HETATM    6  C8  UNL     1      24.084   2.622  53.000  1.00  0.00     0.168 C 
BRANCH   6   7
HETATM    7  C9  UNL     1      22.889   1.866  52.631  1.00  0.00    -0.016 A 
HETATM    8  C10 UNL     1      21.719   2.440  52.111  1.00  0.00     0.035 A 
HETATM    9  C11 UNL     1      20.815   1.421  51.886  1.00  0.00     0.142 A 
HETATM   10  O2  UNL     1      21.370   0.284  52.238  1.00  0.00    -0.334 OA
HETATM   11  C12 UNL     1      22.582   0.530  52.675  1.00  0.00     0.150 A 
ENDBRANCH   6   7
ENDBRANCH   4   6
BRANCH   4  12
HETATM   12  C13 UNL     1      25.605   3.262  50.950  1.00  0.00     0.169 C 
BRANCH  12  13
HETATM   13  C14 UNL     1      24.511   3.971  50.251  1.00  0.00    -0.006 A 
HETATM   14  C15 UNL     1      23.885   3.274  49.217  1.00  0.00     0.012 A 
HETATM   15  C16 UNL     1      22.844   3.829  48.492  1.00  0.00     0.002 A 
HETATM   16  C17 UNL     1      22.377   5.097  48.754  1.00  0.00     0.022 A 
HETATM   17  C18 UNL     1      22.987   5.799  49.773  1.00  0.00     0.044 A 
HETATM   18 BR1  UNL     1      22.407   7.569  50.212  1.00  0.00    -0.048 Br
HETATM   19  C19 UNL     1      24.018   5.233  50.482  1.00  0.00     0.090 A 
BRANCH  19  20
HETATM   20  O3  UNL     1      24.592   5.963  51.479  1.00  0.00    -0.359 OA
HETATM   21  H17 UNL     1      25.477   6.430  51.290  1.00  0.00     0.217 HD
ENDBRANCH  19  20
ENDBRANCH  12  13
ENDBRANCH   4  12
BRANCH   3  22
HETATM   22  C2  UNL     1      27.291  -0.208  53.495  1.00  0.00     0.036 A 
HETATM   23  C3  UNL     1      27.022  -1.441  52.906  1.00  0.00     0.029 A 
HETATM   24  C4  UNL     1      27.997  -2.406  52.761  1.00  0.00     0.002 A 
HETATM   25  C5  UNL     1      29.272  -2.095  53.233  1.00  0.00     0.000 A 
HETATM   26  C6  UNL     1      29.550  -0.890  53.813  1.00  0.00     0.002 A 
HETATM   27  C7  UNL     1      28.553   0.079  53.954  1.00  0.00     0.029 A 
ENDBRANCH   3  22
TORSDOF 6
ENDMDL
MODEL 8
REMARK VINA RESULT:      -7.5      3.479      6.158
REMARK  6 active torsions:
REMARK  status: ('A' for Active; 'I' for Inactive)
REMARK       I    between atoms: C1_2  and  N1_3 
REMARK       I    between atoms: C1_2  and  N2_10 
REMARK    1  A    between atoms: N1_3  and  C2_4 
REMARK    2  A    between atoms: N2_10  and  C8_11 
REMARK    3  A    between atoms: N2_10  and  C13_17 
REMARK    4  A    between atoms: C8_11  and  C9_12 
REMARK    5  A    between atoms: C13_17  and  C14_18 
REMARK    6  A    between atoms: C19_24  and  O3_25 
ROOT
HETATM    1  O1  UNL     1      25.342   1.234  53.660  1.00  0.00    -0.247 OA
HETATM    2  C1  UNL     1      24.878   1.368  52.474  1.00  0.00     0.323 C 
HETATM    3  N1  UNL     1      26.008   1.142  51.626  1.00  0.00    -0.309 N 
HETATM    4  N2  UNL     1      23.545   1.674  52.005  1.00  0.00    -0.325 N 
HETATM    5  H1  UNL     1      25.900   1.193  50.570  1.00  0.00     0.170 HD
ENDROOT
BRANCH   4   6
HETATM    6  C8  UNL     1      23.344   1.751  50.614  1.00  0.00     0.168 C 
BRANCH   6   7
HETATM    7  C9  UNL     1      23.349   3.083  50.011  1.00  0.00    -0.016 A 
HETATM    8  C10 UNL     1      24.472   3.676  49.414  1.00  0.00     0.035 A 
HETATM    9  C11 UNL     1      24.096   4.925  48.962  1.00  0.00     0.142 A 
HETATM   10  O2  UNL     1      22.829   5.111  49.250  1.00  0.00    -0.334 OA
HETATM   11  C12 UNL     1      22.381   4.042  49.864  1.00  0.00     0.150 A 
ENDBRANCH   6   7
ENDBRANCH   4   6
BRANCH   4  12
HETATM   12  C13 UNL     1      22.673   1.827  53.158  1.00  0.00     0.169 C 
BRANCH  12  13
HETATM   13  C14 UNL     1      21.718   0.717  53.360  1.00  0.00    -0.006 A 
HETATM   14  C15 UNL     1      22.146  -0.324  54.185  1.00  0.00     0.012 A 
HETATM   15  C16 UNL     1      21.340  -1.418  54.454  1.00  0.00     0.002 A 
HETATM   16  C17 UNL     1      20.076  -1.532  53.920  1.00  0.00     0.022 A 
HETATM   17  C18 UNL     1      19.640  -0.511  53.101  1.00  0.00     0.044 A 
HETATM   18 BR1  UNL     1      17.897  -0.581  52.312  1.00  0.00    -0.048 Br
HETATM   19  C19 UNL     1      20.452   0.566  52.845  1.00  0.00     0.090 A 
BRANCH  19  20
HETATM   20  O3  UNL     1      19.981   1.550  52.029  1.00  0.00    -0.359 OA
HETATM   21  H17 UNL     1      20.488   2.432  51.991  1.00  0.00     0.217 HD
ENDBRANCH  19  20
ENDBRANCH  12  13
ENDBRANCH   4  12
BRANCH   3  22
HETATM   22  C2  UNL     1      27.140   0.872  52.448  1.00  0.00     0.036 A 
HETATM   23  C3  UNL     1      27.360  -0.497  52.589  1.00  0.00     0.029 A 
HETATM   24  C4  UNL     1      28.403  -0.991  53.344  1.00  0.00     0.002 A 
HETATM   25  C5  UNL     1      29.234  -0.058  53.965  1.00  0.00     0.000 A 
HETATM   26  C6  UNL     1      29.030   1.286  53.835  1.00  0.00     0.002 A 
HETATM   27  C7  UNL     1      27.968   1.774  53.068  1.00  0.00     0.029 A 
ENDBRANCH   3  22
TORSDOF 6
ENDMDL
MODEL 9
REMARK VINA RESULT:      -7.4      2.697      5.390
REMARK  6 active torsions:
REMARK  status: ('A' for Active; 'I' for Inactive)
REMARK       I    between atoms: C1_2  and  N1_3 
REMARK       I    between atoms: C1_2  and  N2_10 
REMARK    1  A    between atoms: N1_3  and  C2_4 
REMARK    2  A    between atoms: N2_10  and  C8_11 
REMARK    3  A    between atoms: N2_10  and  C13_17 
REMARK    4  A    between atoms: C8_11  and  C9_12 
REMARK    5  A    between atoms: C13_17  and  C14_18 
REMARK    6  A    between atoms: C19_24  and  O3_25 
ROOT
HETATM    1  O1  UNL     1      25.676   2.273  53.248  1.00  0.00    -0.247 OA
HETATM    2  C1  UNL     1      25.580   2.575  52.008  1.00  0.00     0.323 C 
HETATM    3  N1  UNL     1      26.642   1.847  51.384  1.00  0.00    -0.309 N 
HETATM    4  N2  UNL     1      24.652   3.437  51.309  1.00  0.00    -0.325 N 
HETATM    5  H1  UNL     1      26.791   1.918  50.334  1.00  0.00     0.170 HD
ENDROOT
BRANCH   4   6
HETATM    6  C8  UNL     1      24.803   3.566  49.916  1.00  0.00     0.168 C 
BRANCH   6   7
HETATM    7  C9  UNL     1      25.689   4.625  49.436  1.00  0.00    -0.016 A 
HETATM    8  C10 UNL     1      26.996   4.412  48.972  1.00  0.00     0.035 A 
HETATM    9  C11 UNL     1      27.516   5.638  48.606  1.00  0.00     0.142 A 
HETATM   10  O2  UNL     1      26.607   6.560  48.823  1.00  0.00    -0.334 OA
HETATM   11  C12 UNL     1      25.535   5.981  49.307  1.00  0.00     0.150 A 
ENDBRANCH   6   7
ENDBRANCH   4   6
BRANCH   4  12
HETATM   12  C13 UNL     1      23.719   3.991  52.277  1.00  0.00     0.169 C 
BRANCH  12  13
HETATM   13  C14 UNL     1      22.342   3.462  52.176  1.00  0.00    -0.006 A 
HETATM   14  C15 UNL     1      21.385   4.327  51.644  1.00  0.00     0.012 A 
HETATM   15  C16 UNL     1      20.062   3.946  51.495  1.00  0.00     0.002 A 
HETATM   16  C17 UNL     1      19.625   2.694  51.865  1.00  0.00     0.022 A 
HETATM   17  C18 UNL     1      20.560   1.828  52.393  1.00  0.00     0.044 A 
HETATM   18 BR1  UNL     1      20.048   0.065  52.937  1.00  0.00    -0.048 Br
HETATM   19  C19 UNL     1      21.868   2.222  52.534  1.00  0.00     0.090 A 
BRANCH  19  20
HETATM   20  O3  UNL     1      22.756   1.334  53.062  1.00  0.00    -0.359 OA
HETATM   21  H17 UNL     1      22.947   0.477  52.549  1.00  0.00     0.217 HD
ENDBRANCH  19  20
ENDBRANCH  12  13
ENDBRANCH   4  12
BRANCH   3  22
HETATM   22  C2  UNL     1      27.336   1.115  52.390  1.00  0.00     0.036 A 
HETATM   23  C3  UNL     1      28.247   1.916  53.076  1.00  0.00     0.029 A 
HETATM   24  C4  UNL     1      29.032   1.415  54.094  1.00  0.00     0.002 A 
HETATM   25  C5  UNL     1      28.875   0.065  54.411  1.00  0.00     0.000 A 
HETATM   26  C6  UNL     1      27.985  -0.730  53.747  1.00  0.00     0.002 A 
HETATM   27  C7  UNL     1      27.197  -0.211  52.717  1.00  0.00     0.029 A 
ENDBRANCH   3  22
TORSDOF 6
ENDMDL
