MODEL 1
REMARK VINA RESULT:      -8.1      0.000      0.000
REMARK  5 active torsions:
REMARK  status: ('A' for Active; 'I' for Inactive)
REMARK    1  A    between atoms: O1_2  and  C2_3 
REMARK    2  A    between atoms: C12_15  and  N3_16 
REMARK    3  A    between atoms: N3_16  and  C13_17 
REMARK    4  A    between atoms: C13_17  and  C14_18 
REMARK    5  A    between atoms: C19_23  and  O2_24 
ROOT
HETATM    1  C2  UNL     1      26.647  -0.407  53.274  1.00  0.00     0.068 A 
HETATM    2  C3  UNL     1      25.409  -0.721  53.837  1.00  0.00     0.037 A 
HETATM    3  C4  UNL     1      24.254  -0.035  53.480  1.00  0.00     0.017 A 
HETATM    4  C5  UNL     1      24.568   0.910  52.554  1.00  0.00    -0.002 A 
HETATM    5  C6  UNL     1      25.733   1.355  51.893  1.00  0.00    -0.015 A 
HETATM    6  C7  UNL     1      26.842   0.601  52.322  1.00  0.00     0.046 A 
HETATM    7  C8  UNL     1      25.788   2.484  50.941  1.00  0.00     0.315 C 
HETATM    8  N1  UNL     1      24.536   3.151  50.659  1.00  0.00     0.122 N 
HETATM    9  C9  UNL     1      23.494   2.086  50.508  1.00  0.00     0.335 C 
HETATM   10  C10 UNL     1      23.502   1.730  51.999  1.00  0.00     0.068 C 
HETATM   11  N2  UNL     1      22.547   2.326  52.633  1.00  0.00    -0.288 NA
HETATM   12  C11 UNL     1      22.615   3.788  52.163  1.00  0.00     0.206 C 
HETATM   13  C12 UNL     1      24.041   3.989  51.752  1.00  0.00     0.338 C 
ENDROOT
BRANCH  13  14
HETATM   14  N3  UNL     1      24.484   5.322  51.594  1.00  0.00    -0.388 N 
HETATM   15  H14 UNL     1      25.367   5.458  52.137  1.00  0.00     0.155 HD
BRANCH  14  16
HETATM   16  C13 UNL     1      24.391   6.046  50.407  1.00  0.00     0.157 C 
BRANCH  16  17
HETATM   17  C14 UNL     1      25.615   6.589  49.793  1.00  0.00    -0.008 A 
HETATM   18  C15 UNL     1      26.351   5.678  49.005  1.00  0.00     0.011 A 
HETATM   19  C16 UNL     1      27.546   5.915  48.356  1.00  0.00     0.001 A 
HETATM   20  C17 UNL     1      28.103   7.159  48.469  1.00  0.00     0.003 A 
HETATM   21  C18 UNL     1      27.448   8.087  49.213  1.00  0.00     0.037 A 
HETATM   22  C19 UNL     1      26.263   7.799  49.838  1.00  0.00     0.073 A 
BRANCH  22  23
HETATM   23  O2  UNL     1      25.620   8.753  50.575  1.00  0.00    -0.360 OA
HETATM   24  H21 UNL     1      24.657   8.636  50.838  1.00  0.00     0.217 HD
ENDBRANCH  22  23
ENDBRANCH  16  17
ENDBRANCH  14  16
ENDBRANCH  13  14
BRANCH   1  25
HETATM   25  O1  UNL     1      27.731  -1.173  53.714  1.00  0.00    -0.356 OA
HETATM   26  C1  UNL     1      29.005  -0.594  53.879  1.00  0.00     0.210 C 
ENDBRANCH   1  25
TORSDOF 5
ENDMDL
MODEL 2
REMARK VINA RESULT:      -8.0      3.967      7.290
REMARK  5 active torsions:
REMARK  status: ('A' for Active; 'I' for Inactive)
REMARK    1  A    between atoms: O1_2  and  C2_3 
REMARK    2  A    between atoms: C12_15  and  N3_16 
REMARK    3  A    between atoms: N3_16  and  C13_17 
REMARK    4  A    between atoms: C13_17  and  C14_18 
REMARK    5  A    between atoms: C19_23  and  O2_24 
ROOT
HETATM    1  C2  UNL     1      27.040  -0.421  53.287  1.00  0.00     0.068 A 
HETATM    2  C3  UNL     1      27.511   0.491  52.342  1.00  0.00     0.037 A 
HETATM    3  C4  UNL     1      26.663   1.401  51.723  1.00  0.00     0.017 A 
HETATM    4  C5  UNL     1      25.400   1.223  52.198  1.00  0.00    -0.002 A 
HETATM    5  C6  UNL     1      24.761   0.372  53.123  1.00  0.00    -0.015 A 
HETATM    6  C7  UNL     1      25.701  -0.508  53.693  1.00  0.00     0.046 A 
HETATM    7  C8  UNL     1      23.310   0.365  53.407  1.00  0.00     0.315 C 
HETATM    8  N1  UNL     1      22.509   1.331  52.688  1.00  0.00     0.122 N 
HETATM    9  C9  UNL     1      23.272   2.621  52.685  1.00  0.00     0.335 C 
HETATM   10  C10 UNL     1      24.341   2.097  51.719  1.00  0.00     0.068 C 
HETATM   11  N2  UNL     1      24.090   2.447  50.501  1.00  0.00    -0.288 NA
HETATM   12  C11 UNL     1      22.603   2.120  50.295  1.00  0.00     0.206 C 
HETATM   13  C12 UNL     1      22.318   1.020  51.270  1.00  0.00     0.338 C 
ENDROOT
BRANCH  13  14
HETATM   14  N3  UNL     1      21.126   0.284  51.081  1.00  0.00    -0.388 N 
HETATM   15  H14 UNL     1      21.275  -0.700  51.405  1.00  0.00     0.155 HD
BRANCH  14  16
HETATM   16  C13 UNL     1      19.845   0.796  51.280  1.00  0.00     0.157 C 
BRANCH  16  17
HETATM   17  C14 UNL     1      18.801  -0.073  51.851  1.00  0.00    -0.008 A 
HETATM   18  C15 UNL     1      17.603  -0.145  51.108  1.00  0.00     0.011 A 
HETATM   19  C16 UNL     1      16.461  -0.847  51.435  1.00  0.00     0.001 A 
HETATM   20  C17 UNL     1      16.458  -1.562  52.601  1.00  0.00     0.003 A 
HETATM   21  C18 UNL     1      17.579  -1.539  53.366  1.00  0.00     0.037 A 
HETATM   22  C19 UNL     1      18.687  -0.823  52.995  1.00  0.00     0.073 A 
BRANCH  22  23
HETATM   23  O2  UNL     1      19.806  -0.822  53.780  1.00  0.00    -0.360 OA
HETATM   24  H21 UNL     1      20.650  -0.375  53.470  1.00  0.00     0.217 HD
ENDBRANCH  22  23
ENDBRANCH  16  17
ENDBRANCH  14  16
ENDBRANCH  13  14
BRANCH   1  25
HETATM   25  O1  UNL     1      27.995  -1.280  53.840  1.00  0.00    -0.356 OA
HETATM   26  C1  UNL     1      29.352  -1.181  53.476  1.00  0.00     0.210 C 
ENDBRANCH   1  25
TORSDOF 5
ENDMDL
MODEL 3
REMARK VINA RESULT:      -8.0      1.568      1.947
REMARK  5 active torsions:
REMARK  status: ('A' for Active; 'I' for Inactive)
REMARK    1  A    between atoms: O1_2  and  C2_3 
REMARK    2  A    between atoms: C12_15  and  N3_16 
REMARK    3  A    between atoms: N3_16  and  C13_17 
REMARK    4  A    between atoms: C13_17  and  C14_18 
REMARK    5  A    between atoms: C19_23  and  O2_24 
ROOT
HETATM    1  C2  UNL     1      26.087   0.144  54.299  1.00  0.00     0.068 A 
HETATM    2  C3  UNL     1      24.994  -0.712  54.439  1.00  0.00     0.037 A 
HETATM    3  C4  UNL     1      23.796  -0.475  53.777  1.00  0.00     0.017 A 
HETATM    4  C5  UNL     1      23.916   0.661  53.037  1.00  0.00    -0.002 A 
HETATM    5  C6  UNL     1      24.915   1.625  52.789  1.00  0.00    -0.015 A 
HETATM    6  C7  UNL     1      26.084   1.296  53.501  1.00  0.00     0.046 A 
HETATM    7  C8  UNL     1      24.740   2.831  51.953  1.00  0.00     0.315 C 
HETATM    8  N1  UNL     1      23.445   3.002  51.332  1.00  0.00     0.122 N 
HETATM    9  C9  UNL     1      23.023   1.660  50.818  1.00  0.00     0.335 C 
HETATM   10  C10 UNL     1      22.790   1.089  52.221  1.00  0.00     0.068 C 
HETATM   11  N2  UNL     1      21.544   1.154  52.558  1.00  0.00    -0.288 NA
HETATM   12  C11 UNL     1      21.115   2.586  52.201  1.00  0.00     0.206 C 
HETATM   13  C12 UNL     1      22.379   3.387  52.258  1.00  0.00     0.338 C 
ENDROOT
BRANCH  13  14
HETATM   14  N3  UNL     1      22.248   4.793  52.306  1.00  0.00    -0.388 N 
HETATM   15  H14 UNL     1      22.866   5.170  53.061  1.00  0.00     0.155 HD
BRANCH  14  16
HETATM   16  C13 UNL     1      22.102   5.609  51.186  1.00  0.00     0.157 C 
BRANCH  16  17
HETATM   17  C14 UNL     1      23.299   6.179  50.545  1.00  0.00    -0.008 A 
HETATM   18  C15 UNL     1      23.331   6.093  49.137  1.00  0.00     0.011 A 
HETATM   19  C16 UNL     1      24.346   6.509  48.299  1.00  0.00     0.001 A 
HETATM   20  C17 UNL     1      25.456   7.073  48.865  1.00  0.00     0.003 A 
HETATM   21  C18 UNL     1      25.493   7.189  50.218  1.00  0.00     0.037 A 
HETATM   22  C19 UNL     1      24.458   6.757  51.004  1.00  0.00     0.073 A 
BRANCH  22  23
HETATM   23  O2  UNL     1      24.517   6.893  52.362  1.00  0.00    -0.360 OA
HETATM   24  H21 UNL     1      23.694   6.777  52.927  1.00  0.00     0.217 HD
ENDBRANCH  22  23
ENDBRANCH  16  17
ENDBRANCH  14  16
ENDBRANCH  13  14
BRANCH   1  25
HETATM   25  O1  UNL     1      27.236  -0.208  55.014  1.00  0.00    -0.356 OA
HETATM   26  C1  UNL     1      28.498   0.305  54.652  1.00  0.00     0.210 C 
ENDBRANCH   1  25
TORSDOF 5
ENDMDL
MODEL 4
REMARK VINA RESULT:      -8.0      1.650      2.104
REMARK  5 active torsions:
REMARK  status: ('A' for Active; 'I' for Inactive)
REMARK    1  A    between atoms: O1_2  and  C2_3 
REMARK    2  A    between atoms: C12_15  and  N3_16 
REMARK    3  A    between atoms: N3_16  and  C13_17 
REMARK    4  A    between atoms: C13_17  and  C14_18 
REMARK    5  A    between atoms: C19_23  and  O2_24 
ROOT
HETATM    1  C2  UNL     1      26.298   0.341  53.151  1.00  0.00     0.068 A 
HETATM    2  C3  UNL     1      25.003   0.495  53.647  1.00  0.00     0.037 A 
HETATM    3  C4  UNL     1      24.094   1.362  53.051  1.00  0.00     0.017 A 
HETATM    4  C5  UNL     1      24.689   1.962  51.985  1.00  0.00    -0.002 A 
HETATM    5  C6  UNL     1      25.954   1.929  51.360  1.00  0.00    -0.015 A 
HETATM    6  C7  UNL     1      26.797   1.026  52.035  1.00  0.00     0.046 A 
HETATM    7  C8  UNL     1      26.351   2.765  50.208  1.00  0.00     0.315 C 
HETATM    8  N1  UNL     1      25.343   3.656  49.680  1.00  0.00     0.122 N 
HETATM    9  C9  UNL     1      24.053   2.894  49.651  1.00  0.00     0.335 C 
HETATM   10  C10 UNL     1      23.911   2.889  51.177  1.00  0.00     0.068 C 
HETATM   11  N2  UNL     1      23.136   3.839  51.584  1.00  0.00    -0.288 NA
HETATM   12  C11 UNL     1      23.620   5.090  50.835  1.00  0.00     0.206 C 
HETATM   13  C12 UNL     1      25.060   4.815  50.528  1.00  0.00     0.338 C 
ENDROOT
BRANCH  13  14
HETATM   14  N3  UNL     1      25.858   5.916  50.143  1.00  0.00    -0.388 N 
HETATM   15  H14 UNL     1      26.777   5.865  50.640  1.00  0.00     0.155 HD
BRANCH  14  16
HETATM   16  C13 UNL     1      25.899   6.447  48.855  1.00  0.00     0.157 C 
BRANCH  16  17
HETATM   17  C14 UNL     1      27.204   6.732  48.233  1.00  0.00    -0.008 A 
HETATM   18  C15 UNL     1      27.210   7.792  47.300  1.00  0.00     0.011 A 
HETATM   19  C16 UNL     1      28.281   8.236  46.551  1.00  0.00     0.001 A 
HETATM   20  C17 UNL     1      29.481   7.600  46.706  1.00  0.00     0.003 A 
HETATM   21  C18 UNL     1      29.549   6.570  47.589  1.00  0.00     0.037 A 
HETATM   22  C19 UNL     1      28.454   6.168  48.308  1.00  0.00     0.073 A 
BRANCH  22  23
HETATM   23  O2  UNL     1      28.550   5.133  49.195  1.00  0.00    -0.360 OA
HETATM   24  H21 UNL     1      28.651   5.309  50.179  1.00  0.00     0.217 HD
ENDBRANCH  22  23
ENDBRANCH  16  17
ENDBRANCH  14  16
ENDBRANCH  13  14
BRANCH   1  25
HETATM   25  O1  UNL     1      27.113  -0.565  53.837  1.00  0.00    -0.356 OA
HETATM   26  C1  UNL     1      28.288  -0.133  54.483  1.00  0.00     0.210 C 
ENDBRANCH   1  25
TORSDOF 5
ENDMDL
MODEL 5
REMARK VINA RESULT:      -8.0      2.702      4.083
REMARK  5 active torsions:
REMARK  status: ('A' for Active; 'I' for Inactive)
REMARK    1  A    between atoms: O1_2  and  C2_3 
REMARK    2  A    between atoms: C12_15  and  N3_16 
REMARK    3  A    between atoms: N3_16  and  C13_17 
REMARK    4  A    between atoms: C13_17  and  C14_18 
REMARK    5  A    between atoms: C19_23  and  O2_24 
ROOT
HETATM    1  C2  UNL     1      21.450   0.287  52.785  1.00  0.00     0.068 A 
HETATM    2  C3  UNL     1      22.170  -0.876  53.059  1.00  0.00     0.037 A 
HETATM    3  C4  UNL     1      23.543  -0.848  53.271  1.00  0.00     0.017 A 
HETATM    4  C5  UNL     1      23.982   0.435  53.164  1.00  0.00    -0.002 A 
HETATM    5  C6  UNL     1      23.412   1.697  52.896  1.00  0.00    -0.015 A 
HETATM    6  C7  UNL     1      22.025   1.562  52.697  1.00  0.00     0.046 A 
HETATM    7  C8  UNL     1      24.169   2.961  52.781  1.00  0.00     0.315 C 
HETATM    8  N1  UNL     1      25.597   2.878  52.989  1.00  0.00     0.122 N 
HETATM    9  C9  UNL     1      25.820   1.969  54.159  1.00  0.00     0.335 C 
HETATM   10  C10 UNL     1      25.392   0.715  53.389  1.00  0.00     0.068 C 
HETATM   11  N2  UNL     1      26.412   0.074  52.923  1.00  0.00    -0.288 NA
HETATM   12  C11 UNL     1      27.288   1.153  52.265  1.00  0.00     0.206 C 
HETATM   13  C12 UNL     1      26.331   2.243  51.893  1.00  0.00     0.338 C 
ENDROOT
BRANCH  13  14
HETATM   14  N3  UNL     1      26.787   3.215  50.974  1.00  0.00    -0.388 N 
HETATM   15  H14 UNL     1      27.832   3.232  50.983  1.00  0.00     0.155 HD
BRANCH  14  16
HETATM   16  C13 UNL     1      26.191   3.473  49.741  1.00  0.00     0.157 C 
BRANCH  16  17
HETATM   17  C14 UNL     1      26.311   4.816  49.147  1.00  0.00    -0.008 A 
HETATM   18  C15 UNL     1      25.089   5.456  48.847  1.00  0.00     0.011 A 
HETATM   19  C16 UNL     1      24.918   6.690  48.254  1.00  0.00     0.001 A 
HETATM   20  C17 UNL     1      26.037   7.396  47.908  1.00  0.00     0.003 A 
HETATM   21  C18 UNL     1      27.248   6.841  48.168  1.00  0.00     0.037 A 
HETATM   22  C19 UNL     1      27.362   5.610  48.758  1.00  0.00     0.073 A 
BRANCH  22  23
HETATM   23  O2  UNL     1      28.593   5.077  49.017  1.00  0.00    -0.360 OA
HETATM   24  H21 UNL     1      29.046   5.234  49.900  1.00  0.00     0.217 HD
ENDBRANCH  22  23
ENDBRANCH  16  17
ENDBRANCH  14  16
ENDBRANCH  13  14
BRANCH   1  25
HETATM   25  O1  UNL     1      20.074   0.127  52.595  1.00  0.00    -0.356 OA
HETATM   26  C1  UNL     1      19.461   0.513  51.387  1.00  0.00     0.210 C 
ENDBRANCH   1  25
TORSDOF 5
ENDMDL
MODEL 6
REMARK VINA RESULT:      -7.9      3.160      6.600
REMARK  5 active torsions:
REMARK  status: ('A' for Active; 'I' for Inactive)
REMARK    1  A    between atoms: O1_2  and  C2_3 
REMARK    2  A    between atoms: C12_15  and  N3_16 
REMARK    3  A    between atoms: N3_16  and  C13_17 
REMARK    4  A    between atoms: C13_17  and  C14_18 
REMARK    5  A    between atoms: C19_23  and  O2_24 
ROOT
HETATM    1  C2  UNL     1      22.295   2.898  47.461  1.00  0.00     0.068 A 
HETATM    2  C3  UNL     1      21.603   1.752  47.853  1.00  0.00     0.037 A 
HETATM    3  C4  UNL     1      21.606   1.317  49.173  1.00  0.00     0.017 A 
HETATM    4  C5  UNL     1      22.356   2.172  49.919  1.00  0.00    -0.002 A 
HETATM    5  C6  UNL     1      23.108   3.344  49.694  1.00  0.00    -0.015 A 
HETATM    6  C7  UNL     1      23.042   3.700  48.333  1.00  0.00     0.046 A 
HETATM    7  C8  UNL     1      23.897   4.055  50.722  1.00  0.00     0.315 C 
HETATM    8  N1  UNL     1      23.859   3.504  52.058  1.00  0.00     0.122 N 
HETATM    9  C9  UNL     1      22.438   3.113  52.333  1.00  0.00     0.335 C 
HETATM   10  C10 UNL     1      22.471   1.937  51.350  1.00  0.00     0.068 C 
HETATM   11  N2  UNL     1      22.709   0.821  51.955  1.00  0.00    -0.288 NA
HETATM   12  C11 UNL     1      23.901   1.120  52.878  1.00  0.00     0.206 C 
HETATM   13  C12 UNL     1      24.614   2.260  52.220  1.00  0.00     0.338 C 
ENDROOT
BRANCH  13  14
HETATM   14  N3  UNL     1      25.931   2.534  52.654  1.00  0.00    -0.388 N 
HETATM   15  H14 UNL     1      26.160   3.534  52.449  1.00  0.00     0.155 HD
BRANCH  14  16
HETATM   16  C13 UNL     1      26.501   2.012  53.814  1.00  0.00     0.157 C 
BRANCH  16  17
HETATM   17  C14 UNL     1      27.653   1.100  53.705  1.00  0.00    -0.008 A 
HETATM   18  C15 UNL     1      27.347  -0.214  53.289  1.00  0.00     0.011 A 
HETATM   19  C16 UNL     1      28.226  -1.268  53.145  1.00  0.00     0.001 A 
HETATM   20  C17 UNL     1      29.545  -1.048  53.428  1.00  0.00     0.003 A 
HETATM   21  C18 UNL     1      29.912   0.195  53.833  1.00  0.00     0.037 A 
HETATM   22  C19 UNL     1      28.998   1.208  53.961  1.00  0.00     0.073 A 
BRANCH  22  23
HETATM   23  O2  UNL     1      29.395   2.451  54.363  1.00  0.00    -0.360 OA
HETATM   24  H21 UNL     1      28.722   3.131  54.670  1.00  0.00     0.217 HD
ENDBRANCH  22  23
ENDBRANCH  16  17
ENDBRANCH  14  16
ENDBRANCH  13  14
BRANCH   1  25
HETATM   25  O1  UNL     1      22.210   3.232  46.105  1.00  0.00    -0.356 OA
HETATM   26  C1  UNL     1      21.504   4.378  45.687  1.00  0.00     0.210 C 
ENDBRANCH   1  25
TORSDOF 5
ENDMDL
MODEL 7
REMARK VINA RESULT:      -7.6      1.777      7.218
REMARK  5 active torsions:
REMARK  status: ('A' for Active; 'I' for Inactive)
REMARK    1  A    between atoms: O1_2  and  C2_3 
REMARK    2  A    between atoms: C12_15  and  N3_16 
REMARK    3  A    between atoms: N3_16  and  C13_17 
REMARK    4  A    between atoms: C13_17  and  C14_18 
REMARK    5  A    between atoms: C19_23  and  O2_24 
ROOT
HETATM    1  C2  UNL     1      26.219   8.188  49.760  1.00  0.00     0.068 A 
HETATM    2  C3  UNL     1      27.126   7.608  48.873  1.00  0.00     0.037 A 
HETATM    3  C4  UNL     1      27.153   6.236  48.654  1.00  0.00     0.017 A 
HETATM    4  C5  UNL     1      26.195   5.646  49.418  1.00  0.00    -0.002 A 
HETATM    5  C6  UNL     1      25.219   6.065  50.347  1.00  0.00    -0.015 A 
HETATM    6  C7  UNL     1      25.272   7.464  50.498  1.00  0.00     0.046 A 
HETATM    7  C8  UNL     1      24.319   5.163  51.096  1.00  0.00     0.315 C 
HETATM    8  N1  UNL     1      24.447   3.750  50.818  1.00  0.00     0.122 N 
HETATM    9  C9  UNL     1      24.600   3.604  49.335  1.00  0.00     0.335 C 
HETATM   10  C10 UNL     1      26.009   4.207  49.324  1.00  0.00     0.068 C 
HETATM   11  N2  UNL     1      26.917   3.287  49.330  1.00  0.00    -0.288 NA
HETATM   12  C11 UNL     1      26.478   2.307  50.430  1.00  0.00     0.206 C 
HETATM   13  C12 UNL     1      25.656   3.135  51.369  1.00  0.00     0.338 C 
ENDROOT
BRANCH  13  14
HETATM   14  N3  UNL     1      25.397   2.592  52.648  1.00  0.00    -0.388 N 
HETATM   15  H14 UNL     1      24.740   1.784  52.551  1.00  0.00     0.155 HD
BRANCH  14  16
HETATM   16  C13 UNL     1      26.346   2.478  53.661  1.00  0.00     0.157 C 
BRANCH  16  17
HETATM   17  C14 UNL     1      27.363   1.415  53.582  1.00  0.00    -0.008 A 
HETATM   18  C15 UNL     1      26.885   0.149  53.183  1.00  0.00     0.011 A 
HETATM   19  C16 UNL     1      27.612  -1.019  53.068  1.00  0.00     0.001 A 
HETATM   20  C17 UNL     1      28.946  -0.976  53.365  1.00  0.00     0.003 A 
HETATM   21  C18 UNL     1      29.476   0.212  53.755  1.00  0.00     0.037 A 
HETATM   22  C19 UNL     1      28.708   1.342  53.855  1.00  0.00     0.073 A 
BRANCH  22  23
HETATM   23  O2  UNL     1      29.267   2.527  54.243  1.00  0.00    -0.360 OA
HETATM   24  H21 UNL     1      28.722   3.216  54.731  1.00  0.00     0.217 HD
ENDBRANCH  22  23
ENDBRANCH  16  17
ENDBRANCH  14  16
ENDBRANCH  13  14
BRANCH   1  25
HETATM   25  O1  UNL     1      26.290   9.578  49.887  1.00  0.00    -0.356 OA
HETATM   26  C1  UNL     1      26.021  10.419  48.789  1.00  0.00     0.210 C 
ENDBRANCH   1  25
TORSDOF 5
ENDMDL
MODEL 8
REMARK VINA RESULT:      -7.3      1.986      3.386
REMARK  5 active torsions:
REMARK  status: ('A' for Active; 'I' for Inactive)
REMARK    1  A    between atoms: O1_2  and  C2_3 
REMARK    2  A    between atoms: C12_15  and  N3_16 
REMARK    3  A    between atoms: N3_16  and  C13_17 
REMARK    4  A    between atoms: C13_17  and  C14_18 
REMARK    5  A    between atoms: C19_23  and  O2_24 
ROOT
HETATM    1  C2  UNL     1      25.822   1.658  51.705  1.00  0.00     0.068 A 
HETATM    2  C3  UNL     1      24.633   1.998  52.351  1.00  0.00     0.037 A 
HETATM    3  C4  UNL     1      23.955   3.174  52.054  1.00  0.00     0.017 A 
HETATM    4  C5  UNL     1      24.639   3.848  51.090  1.00  0.00    -0.002 A 
HETATM    5  C6  UNL     1      25.824   3.659  50.348  1.00  0.00    -0.015 A 
HETATM    6  C7  UNL     1      26.433   2.446  50.721  1.00  0.00     0.046 A 
HETATM    7  C8  UNL     1      26.374   4.622  49.371  1.00  0.00     0.315 C 
HETATM    8  N1  UNL     1      25.608   5.829  49.155  1.00  0.00     0.122 N 
HETATM    9  C9  UNL     1      24.165   5.431  49.092  1.00  0.00     0.335 C 
HETATM   10  C10 UNL     1      24.092   5.098  50.587  1.00  0.00     0.068 C 
HETATM   11  N2  UNL     1      23.607   6.084  51.267  1.00  0.00    -0.288 NA
HETATM   12  C11 UNL     1      24.365   7.322  50.763  1.00  0.00     0.206 C 
HETATM   13  C12 UNL     1      25.670   6.788  50.259  1.00  0.00     0.338 C 
ENDROOT
BRANCH  13  14
HETATM   14  N3  UNL     1      26.709   7.723  50.045  1.00  0.00    -0.388 N 
HETATM   15  H14 UNL     1      27.441   7.597  50.781  1.00  0.00     0.155 HD
BRANCH  14  16
HETATM   16  C13 UNL     1      27.177   8.105  48.790  1.00  0.00     0.157 C 
BRANCH  16  17
HETATM   17  C14 UNL     1      28.627   8.124  48.534  1.00  0.00    -0.008 A 
HETATM   18  C15 UNL     1      29.076   7.240  47.529  1.00  0.00     0.011 A 
HETATM   19  C16 UNL     1      30.378   7.033  47.122  1.00  0.00     0.001 A 
HETATM   20  C17 UNL     1      31.366   7.746  47.742  1.00  0.00     0.003 A 
HETATM   21  C18 UNL     1      31.007   8.617  48.720  1.00  0.00     0.037 A 
HETATM   22  C19 UNL     1      29.697   8.785  49.086  1.00  0.00     0.073 A 
BRANCH  22  23
HETATM   23  O2  UNL     1      29.362   9.673  50.068  1.00  0.00    -0.360 OA
HETATM   24  H21 UNL     1      30.063  10.247  50.503  1.00  0.00     0.217 HD
ENDBRANCH  22  23
ENDBRANCH  16  17
ENDBRANCH  14  16
ENDBRANCH  13  14
BRANCH   1  25
HETATM   25  O1  UNL     1      26.404   0.446  52.091  1.00  0.00    -0.356 OA
HETATM   26  C1  UNL     1      27.507   0.422  52.968  1.00  0.00     0.210 C 
ENDBRANCH   1  25
TORSDOF 5
ENDMDL
MODEL 9
REMARK VINA RESULT:      -7.3      5.645      8.976
REMARK  5 active torsions:
REMARK  status: ('A' for Active; 'I' for Inactive)
REMARK    1  A    between atoms: O1_2  and  C2_3 
REMARK    2  A    between atoms: C12_15  and  N3_16 
REMARK    3  A    between atoms: N3_16  and  C13_17 
REMARK    4  A    between atoms: C13_17  and  C14_18 
REMARK    5  A    between atoms: C19_23  and  O2_24 
ROOT
HETATM    1  C2  UNL     1      25.923   7.423  49.544  1.00  0.00     0.068 A 
HETATM    2  C3  UNL     1      26.296   8.680  50.022  1.00  0.00     0.037 A 
HETATM    3  C4  UNL     1      27.567   9.195  49.799  1.00  0.00     0.017 A 
HETATM    4  C5  UNL     1      28.291   8.294  49.082  1.00  0.00    -0.002 A 
HETATM    5  C6  UNL     1      28.082   7.011  48.534  1.00  0.00    -0.015 A 
HETATM    6  C7  UNL     1      26.770   6.580  48.813  1.00  0.00     0.046 A 
HETATM    7  C8  UNL     1      29.106   6.215  47.826  1.00  0.00     0.315 C 
HETATM    8  N1  UNL     1      30.406   6.828  47.672  1.00  0.00     0.122 N 
HETATM    9  C9  UNL     1      30.176   8.262  47.302  1.00  0.00     0.335 C 
HETATM   10  C10 UNL     1      29.650   8.636  48.693  1.00  0.00     0.068 C 
HETATM   11  N2  UNL     1      30.578   9.159  49.425  1.00  0.00    -0.288 NA
HETATM   12  C11 UNL     1      31.786   8.224  49.255  1.00  0.00     0.206 C 
HETATM   13  C12 UNL     1      31.191   6.894  48.906  1.00  0.00     0.338 C 
ENDROOT
BRANCH  13  14
HETATM   14  N3  UNL     1      32.030   5.763  49.019  1.00  0.00    -0.388 N 
HETATM   15  H14 UNL     1      31.537   4.928  48.628  1.00  0.00     0.155 HD
BRANCH  14  16
HETATM   16  C13 UNL     1      33.412   5.786  48.836  1.00  0.00     0.157 C 
BRANCH  16  17
HETATM   17  C14 UNL     1      34.003   5.057  47.701  1.00  0.00    -0.008 A 
HETATM   18  C15 UNL     1      33.736   5.602  46.427  1.00  0.00     0.011 A 
HETATM   19  C16 UNL     1      34.132   5.097  45.205  1.00  0.00     0.001 A 
HETATM   20  C17 UNL     1      34.866   3.944  45.194  1.00  0.00     0.003 A 
HETATM   21  C18 UNL     1      35.161   3.363  46.386  1.00  0.00     0.037 A 
HETATM   22  C19 UNL     1      34.741   3.906  47.572  1.00  0.00     0.073 A 
BRANCH  22  23
HETATM   23  O2  UNL     1      35.058   3.306  48.758  1.00  0.00    -0.360 OA
HETATM   24  H21 UNL     1      35.548   2.429  48.775  1.00  0.00     0.217 HD
ENDBRANCH  22  23
ENDBRANCH  16  17
ENDBRANCH  14  16
ENDBRANCH  13  14
BRANCH   1  25
HETATM   25  O1  UNL     1      24.615   7.021  49.831  1.00  0.00    -0.356 OA
HETATM   26  C1  UNL     1      24.256   6.603  51.128  1.00  0.00     0.210 C 
ENDBRANCH   1  25
TORSDOF 5
ENDMDL
