MODEL 1
REMARK VINA RESULT:      -8.7      0.000      0.000
REMARK  4 active torsions:
REMARK  status: ('A' for Active; 'I' for Inactive)
REMARK    1  A    between atoms: C2_2  and  N1_3 
REMARK    2  A    between atoms: N2_6  and  C5_7 
REMARK    3  A    between atoms: C5_7  and  C6_8 
REMARK    4  A    between atoms: C18_25  and  N7_26 
ROOT
HETATM    1  C6  UNL     1      24.368   2.332  51.582  1.00  0.00    -0.012 C 
HETATM    2  C7  UNL     1      24.674   2.878  50.392  1.00  0.00     0.097 C 
HETATM    3  N3  UNL     1      23.542   3.814  50.261  1.00  0.00    -0.363 N 
HETATM    4  C8  UNL     1      22.717   2.915  49.431  1.00  0.00     0.152 C 
HETATM    5  C9  UNL     1      22.607   1.649  50.220  1.00  0.00     0.008 C 
HETATM    6  C10 UNL     1      23.089   1.579  51.505  1.00  0.00     0.012 C 
HETATM    7  C11 UNL     1      21.933   0.782  51.892  1.00  0.00     0.157 C 
HETATM    8  F1  UNL     1      21.900  -0.554  51.735  1.00  0.00    -0.203 F 
HETATM    9  C12 UNL     1      21.051   1.686  52.386  1.00  0.00     0.099 C 
HETATM   10  C13 UNL     1      21.416   3.112  52.431  1.00  0.00     0.148 C 
HETATM   11  C14 UNL     1      20.764   3.962  51.417  1.00  0.00     0.130 C 
HETATM   12  N4  UNL     1      21.359   4.739  50.610  1.00  0.00    -0.249 NA
HETATM   13  C15 UNL     1      22.741   5.025  50.428  1.00  0.00     0.205 C 
HETATM   14  C16 UNL     1      23.367   5.916  51.446  1.00  0.00     0.057 C 
HETATM   15  N5  UNL     1      19.376   4.084  51.172  1.00  0.00    -0.227 NA
HETATM   16  C17 UNL     1      18.532   3.133  51.086  1.00  0.00     0.237 C 
HETATM   17  N6  UNL     1      18.533   1.747  51.170  1.00  0.00    -0.225 NA
HETATM   18  C18 UNL     1      17.902   0.957  50.408  1.00  0.00     0.126 C 
HETATM   19  C20 UNL     1      18.469  -0.115  51.193  1.00  0.00     0.074 C 
HETATM   20  C21 UNL     1      19.283   0.033  52.204  1.00  0.00     0.146 C 
HETATM   21  O1  UNL     1      19.833   1.127  52.816  1.00  0.00    -0.323 OA
ENDROOT
BRANCH   1  22
HETATM   22  C5  UNL     1      25.119   2.330  52.876  1.00  0.00     0.158 C 
BRANCH  22  23
HETATM   23  N2  UNL     1      26.398   1.718  52.767  1.00  0.00    -0.405 N 
HETATM   24  C4  UNL     1      27.474   2.268  53.465  1.00  0.00     0.147 C 
HETATM   25  C3  UNL     1      28.601   1.370  53.830  1.00  0.00     0.291 C 
HETATM   26  N1  UNL     1      28.542   0.045  53.269  1.00  0.00     0.091 N 
HETATM   27  C23 UNL     1      27.211  -0.449  53.548  1.00  0.00     0.291 C 
HETATM   28  C22 UNL     1      26.339   0.313  52.558  1.00  0.00     0.147 C 
BRANCH  26  29
HETATM   29  C2  UNL     1      29.595  -0.772  53.758  1.00  0.00     0.268 C 
HETATM   30  C1  UNL     1      29.526  -2.219  53.390  1.00  0.00     0.037 C 
ENDBRANCH  26  29
ENDBRANCH  22  23
ENDBRANCH   1  22
BRANCH  18  31
HETATM   31  N7  UNL     1      17.037   0.937  49.300  1.00  0.00    -0.379 N 
HETATM   32  C19 UNL     1      16.222  -0.259  49.407  1.00  0.00     0.147 C 
HETATM   33  H23 UNL     1      17.175   1.749  48.682  1.00  0.00     0.160 HD
ENDBRANCH  18  31
TORSDOF 4
ENDMDL
MODEL 2
REMARK VINA RESULT:      -8.3      1.922      7.495
REMARK  4 active torsions:
REMARK  status: ('A' for Active; 'I' for Inactive)
REMARK    1  A    between atoms: C2_2  and  N1_3 
REMARK    2  A    between atoms: N2_6  and  C5_7 
REMARK    3  A    between atoms: C5_7  and  C6_8 
REMARK    4  A    between atoms: C18_25  and  N7_26 
ROOT
HETATM    1  C6  UNL     1      21.200   4.475  50.788  1.00  0.00    -0.012 C 
HETATM    2  C7  UNL     1      21.450   5.785  50.956  1.00  0.00     0.097 C 
HETATM    3  N3  UNL     1      22.806   5.844  50.377  1.00  0.00    -0.363 N 
HETATM    4  C8  UNL     1      23.510   5.732  51.670  1.00  0.00     0.152 C 
HETATM    5  C9  UNL     1      22.974   4.484  52.297  1.00  0.00     0.008 C 
HETATM    6  C10 UNL     1      22.136   3.650  51.597  1.00  0.00     0.012 C 
HETATM    7  C11 UNL     1      22.810   2.494  52.173  1.00  0.00     0.157 C 
HETATM    8  F1  UNL     1      22.462   1.986  53.369  1.00  0.00    -0.203 F 
HETATM    9  C12 UNL     1      23.745   2.156  51.251  1.00  0.00     0.099 C 
HETATM   10  C13 UNL     1      23.855   2.932  50.004  1.00  0.00     0.148 C 
HETATM   11  C14 UNL     1      25.012   3.843  49.928  1.00  0.00     0.130 C 
HETATM   12  N4  UNL     1      24.963   5.082  49.662  1.00  0.00    -0.249 NA
HETATM   13  C15 UNL     1      23.862   5.936  49.371  1.00  0.00     0.205 C 
HETATM   14  C16 UNL     1      23.279   5.815  48.005  1.00  0.00     0.057 C 
HETATM   15  N5  UNL     1      26.375   3.508  50.117  1.00  0.00    -0.227 NA
HETATM   16  C17 UNL     1      26.859   2.782  51.045  1.00  0.00     0.237 C 
HETATM   17  N6  UNL     1      26.393   2.078  52.147  1.00  0.00    -0.225 NA
HETATM   18  C18 UNL     1      26.936   2.043  53.290  1.00  0.00     0.126 C 
HETATM   19  C20 UNL     1      25.854   1.173  53.684  1.00  0.00     0.074 C 
HETATM   20  C21 UNL     1      24.867   0.793  52.915  1.00  0.00     0.146 C 
HETATM   21  O1  UNL     1      24.538   1.050  51.612  1.00  0.00    -0.323 OA
ENDROOT
BRANCH   1  22
HETATM   22  C5  UNL     1      20.139   3.778  49.996  1.00  0.00     0.158 C 
BRANCH  22  23
HETATM   23  N2  UNL     1      19.414   2.829  50.766  1.00  0.00    -0.405 N 
HETATM   24  C4  UNL     1      18.187   3.200  51.320  1.00  0.00     0.147 C 
HETATM   25  C3  UNL     1      17.194   2.129  51.596  1.00  0.00     0.291 C 
HETATM   26  N1  UNL     1      17.673   0.782  51.422  1.00  0.00     0.091 N 
HETATM   27  C23 UNL     1      18.307   0.748  50.122  1.00  0.00     0.291 C 
HETATM   28  C22 UNL     1      19.621   1.484  50.354  1.00  0.00     0.147 C 
BRANCH  26  29
HETATM   29  C2  UNL     1      16.630  -0.165  51.601  1.00  0.00     0.268 C 
HETATM   30  C1  UNL     1      16.893  -1.247  52.598  1.00  0.00     0.037 C 
ENDBRANCH  26  29
ENDBRANCH  22  23
ENDBRANCH   1  22
BRANCH  18  31
HETATM   31  N7  UNL     1      28.038   2.536  54.011  1.00  0.00    -0.379 N 
HETATM   32  C19 UNL     1      29.077   1.525  53.963  1.00  0.00     0.147 C 
HETATM   33  H23 UNL     1      27.862   3.474  54.400  1.00  0.00     0.160 HD
ENDBRANCH  18  31
TORSDOF 4
ENDMDL
MODEL 3
REMARK VINA RESULT:      -8.1      2.904      4.915
REMARK  4 active torsions:
REMARK  status: ('A' for Active; 'I' for Inactive)
REMARK    1  A    between atoms: C2_2  and  N1_3 
REMARK    2  A    between atoms: N2_6  and  C5_7 
REMARK    3  A    between atoms: C5_7  and  C6_8 
REMARK    4  A    between atoms: C18_25  and  N7_26 
ROOT
HETATM    1  C6  UNL     1      23.822   2.858  51.871  1.00  0.00    -0.012 C 
HETATM    2  C7  UNL     1      22.881   2.324  52.668  1.00  0.00     0.097 C 
HETATM    3  N3  UNL     1      21.749   2.311  51.724  1.00  0.00    -0.363 N 
HETATM    4  C8  UNL     1      21.165   3.583  52.194  1.00  0.00     0.152 C 
HETATM    5  C9  UNL     1      22.272   4.583  52.085  1.00  0.00     0.008 C 
HETATM    6  C10 UNL     1      23.463   4.249  51.487  1.00  0.00     0.012 C 
HETATM    7  C11 UNL     1      23.516   5.565  50.864  1.00  0.00     0.157 C 
HETATM    8  F1  UNL     1      24.031   6.635  51.496  1.00  0.00    -0.203 F 
HETATM    9  C12 UNL     1      22.970   5.378  49.637  1.00  0.00     0.099 C 
HETATM   10  C13 UNL     1      22.507   4.038  49.240  1.00  0.00     0.148 C 
HETATM   11  C14 UNL     1      21.043   3.852  49.233  1.00  0.00     0.130 C 
HETATM   12  N4  UNL     1      20.411   2.932  49.834  1.00  0.00    -0.249 NA
HETATM   13  C15 UNL     1      20.866   1.858  50.650  1.00  0.00     0.205 C 
HETATM   14  C16 UNL     1      21.482   0.705  49.934  1.00  0.00     0.057 C 
HETATM   15  N5  UNL     1      20.088   4.642  48.550  1.00  0.00    -0.227 NA
HETATM   16  C17 UNL     1      20.043   5.915  48.505  1.00  0.00     0.237 C 
HETATM   17  N6  UNL     1      20.769   6.986  49.007  1.00  0.00    -0.225 NA
HETATM   18  C18 UNL     1      20.283   8.047  49.498  1.00  0.00     0.126 C 
HETATM   19  C20 UNL     1      21.647   8.473  49.707  1.00  0.00     0.074 C 
HETATM   20  C21 UNL     1      22.713   7.780  49.406  1.00  0.00     0.146 C 
HETATM   21  O1  UNL     1      22.906   6.545  48.851  1.00  0.00    -0.323 OA
ENDROOT
BRANCH   1  22
HETATM   22  C5  UNL     1      25.127   2.303  51.394  1.00  0.00     0.158 C 
BRANCH  22  23
HETATM   23  N2  UNL     1      25.779   1.511  52.379  1.00  0.00    -0.405 N 
HETATM   24  C4  UNL     1      26.252   0.245  52.028  1.00  0.00     0.147 C 
HETATM   25  C3  UNL     1      27.387  -0.316  52.807  1.00  0.00     0.291 C 
HETATM   26  N1  UNL     1      27.774   0.442  53.968  1.00  0.00     0.091 N 
HETATM   27  C23 UNL     1      27.916   1.811  53.524  1.00  0.00     0.291 C 
HETATM   28  C22 UNL     1      26.475   2.276  53.354  1.00  0.00     0.147 C 
BRANCH  26  29
HETATM   29  C2  UNL     1      28.930  -0.108  54.583  1.00  0.00     0.268 C 
HETATM   30  C1  UNL     1      29.821  -0.916  53.695  1.00  0.00     0.037 C 
ENDBRANCH  26  29
ENDBRANCH  22  23
ENDBRANCH   1  22
BRANCH  18  31
HETATM   31  N7  UNL     1      19.061   8.679  49.785  1.00  0.00    -0.379 N 
HETATM   32  C19 UNL     1      19.266  10.108  49.646  1.00  0.00     0.147 C 
HETATM   33  H23 UNL     1      18.319   8.004  50.025  1.00  0.00     0.160 HD
ENDBRANCH  18  31
TORSDOF 4
ENDMDL
MODEL 4
REMARK VINA RESULT:      -7.8      3.012      7.059
REMARK  4 active torsions:
REMARK  status: ('A' for Active; 'I' for Inactive)
REMARK    1  A    between atoms: C2_2  and  N1_3 
REMARK    2  A    between atoms: N2_6  and  C5_7 
REMARK    3  A    between atoms: C5_7  and  C6_8 
REMARK    4  A    between atoms: C18_25  and  N7_26 
ROOT
HETATM    1  C6  UNL     1      23.071   4.500  50.488  1.00  0.00    -0.012 C 
HETATM    2  C7  UNL     1      22.244   3.868  49.636  1.00  0.00     0.097 C 
HETATM    3  N3  UNL     1      21.793   2.771  50.513  1.00  0.00    -0.363 N 
HETATM    4  C8  UNL     1      22.769   1.785  50.008  1.00  0.00     0.152 C 
HETATM    5  C9  UNL     1      24.105   2.436  50.182  1.00  0.00     0.008 C 
HETATM    6  C10 UNL     1      24.222   3.631  50.849  1.00  0.00     0.012 C 
HETATM    7  C11 UNL     1      25.450   3.159  51.473  1.00  0.00     0.157 C 
HETATM    8  F1  UNL     1      26.648   3.274  50.872  1.00  0.00    -0.203 F 
HETATM    9  C12 UNL     1      25.049   2.653  52.666  1.00  0.00     0.099 C 
HETATM   10  C13 UNL     1      23.624   2.699  53.035  1.00  0.00     0.148 C 
HETATM   11  C14 UNL     1      22.911   1.410  52.957  1.00  0.00     0.130 C 
HETATM   12  N4  UNL     1      21.835   1.197  52.320  1.00  0.00    -0.249 NA
HETATM   13  C15 UNL     1      21.024   2.062  51.533  1.00  0.00     0.205 C 
HETATM   14  C16 UNL     1      20.164   3.021  52.284  1.00  0.00     0.057 C 
HETATM   15  N5  UNL     1      23.277   0.194  53.582  1.00  0.00    -0.227 NA
HETATM   16  C17 UNL     1      24.442  -0.321  53.623  1.00  0.00     0.237 C 
HETATM   17  N6  UNL     1      25.716  -0.017  53.164  1.00  0.00    -0.225 NA
HETATM   18  C18 UNL     1      26.532  -0.833  52.645  1.00  0.00     0.126 C 
HETATM   19  C20 UNL     1      27.436   0.285  52.517  1.00  0.00     0.074 C 
HETATM   20  C21 UNL     1      27.181   1.514  52.880  1.00  0.00     0.146 C 
HETATM   21  O1  UNL     1      26.092   2.119  53.446  1.00  0.00    -0.323 OA
ENDROOT
BRANCH   1  22
HETATM   22  C5  UNL     1      23.027   5.889  51.040  1.00  0.00     0.158 C 
BRANCH  22  23
HETATM   23  N2  UNL     1      23.801   6.807  50.279  1.00  0.00    -0.405 N 
HETATM   24  C4  UNL     1      25.190   6.805  50.422  1.00  0.00     0.147 C 
HETATM   25  C3  UNL     1      26.009   7.293  49.282  1.00  0.00     0.291 C 
HETATM   26  N1  UNL     1      25.269   7.887  48.199  1.00  0.00     0.091 N 
HETATM   27  C23 UNL     1      24.214   6.953  47.875  1.00  0.00     0.291 C 
HETATM   28  C22 UNL     1      23.224   7.131  49.021  1.00  0.00     0.147 C 
BRANCH  26  29
HETATM   29  C2  UNL     1      26.121   8.223  47.113  1.00  0.00     0.268 C 
HETATM   30  C1  UNL     1      26.832   9.534  47.220  1.00  0.00     0.037 C 
ENDBRANCH  26  29
ENDBRANCH  22  23
ENDBRANCH   1  22
BRANCH  18  31
HETATM   31  N7  UNL     1      26.674  -2.185  52.286  1.00  0.00    -0.379 N 
HETATM   32  C19 UNL     1      27.948  -2.643  52.807  1.00  0.00     0.147 C 
HETATM   33  H23 UNL     1      25.866  -2.533  51.749  1.00  0.00     0.160 HD
ENDBRANCH  18  31
TORSDOF 4
ENDMDL
MODEL 5
REMARK VINA RESULT:      -7.8      8.014      9.931
REMARK  4 active torsions:
REMARK  status: ('A' for Active; 'I' for Inactive)
REMARK    1  A    between atoms: C2_2  and  N1_3 
REMARK    2  A    between atoms: N2_6  and  C5_7 
REMARK    3  A    between atoms: C5_7  and  C6_8 
REMARK    4  A    between atoms: C18_25  and  N7_26 
ROOT
HETATM    1  C6  UNL     1      31.147   8.141  48.133  1.00  0.00    -0.012 C 
HETATM    2  C7  UNL     1      31.495   8.880  47.065  1.00  0.00     0.097 C 
HETATM    3  N3  UNL     1      30.600  10.034  47.274  1.00  0.00    -0.363 N 
HETATM    4  C8  UNL     1      29.542   9.550  46.364  1.00  0.00     0.152 C 
HETATM    5  C9  UNL     1      29.196   8.183  46.862  1.00  0.00     0.008 C 
HETATM    6  C10 UNL     1      29.728   7.708  48.036  1.00  0.00     0.012 C 
HETATM    7  C11 UNL     1      28.447   7.098  48.366  1.00  0.00     0.157 C 
HETATM    8  F1  UNL     1      28.102   5.875  47.923  1.00  0.00    -0.203 F 
HETATM    9  C12 UNL     1      27.826   8.019  49.143  1.00  0.00     0.099 C 
HETATM   10  C13 UNL     1      28.507   9.285  49.461  1.00  0.00     0.148 C 
HETATM   11  C14 UNL     1      28.005  10.470  48.740  1.00  0.00     0.130 C 
HETATM   12  N4  UNL     1      28.709  11.278  48.062  1.00  0.00    -0.249 NA
HETATM   13  C15 UNL     1      30.106  11.308  47.793  1.00  0.00     0.205 C 
HETATM   14  C16 UNL     1      30.979  11.779  48.905  1.00  0.00     0.057 C 
HETATM   15  N5  UNL     1      26.667  10.931  48.686  1.00  0.00    -0.227 NA
HETATM   16  C17 UNL     1      25.626  10.224  48.488  1.00  0.00     0.237 C 
HETATM   17  N6  UNL     1      25.317   8.889  48.263  1.00  0.00    -0.225 NA
HETATM   18  C18 UNL     1      24.478   8.452  47.422  1.00  0.00     0.126 C 
HETATM   19  C20 UNL     1      24.833   7.131  47.882  1.00  0.00     0.074 C 
HETATM   20  C21 UNL     1      25.721   6.860  48.802  1.00  0.00     0.146 C 
HETATM   21  O1  UNL     1      26.541   7.637  49.575  1.00  0.00    -0.323 OA
ENDROOT
BRANCH   1  22
HETATM   22  C5  UNL     1      31.956   7.673  49.301  1.00  0.00     0.158 C 
BRANCH  22  23
HETATM   23  N2  UNL     1      32.653   6.462  49.037  1.00  0.00    -0.405 N 
HETATM   24  C4  UNL     1      31.926   5.327  48.672  1.00  0.00     0.147 C 
HETATM   25  C3  UNL     1      32.614   4.290  47.860  1.00  0.00     0.291 C 
HETATM   26  N1  UNL     1      34.029   4.486  47.676  1.00  0.00     0.091 N 
HETATM   27  C23 UNL     1      34.189   5.855  47.236  1.00  0.00     0.291 C 
HETATM   28  C22 UNL     1      33.958   6.661  48.509  1.00  0.00     0.147 C 
BRANCH  26  29
HETATM   29  C2  UNL     1      34.577   3.511  46.801  1.00  0.00     0.268 C 
HETATM   30  C1  UNL     1      35.018   4.008  45.462  1.00  0.00     0.037 C 
ENDBRANCH  26  29
ENDBRANCH  22  23
ENDBRANCH   1  22
BRANCH  18  31
HETATM   31  N7  UNL     1      23.564   8.878  46.442  1.00  0.00    -0.379 N 
HETATM   32  C19 UNL     1      23.300   7.747  45.573  1.00  0.00     0.147 C 
HETATM   33  H23 UNL     1      23.299   9.867  46.559  1.00  0.00     0.160 HD
ENDBRANCH  18  31
TORSDOF 4
ENDMDL
MODEL 6
REMARK VINA RESULT:      -7.8      3.845      5.308
REMARK  4 active torsions:
REMARK  status: ('A' for Active; 'I' for Inactive)
REMARK    1  A    between atoms: C2_2  and  N1_3 
REMARK    2  A    between atoms: N2_6  and  C5_7 
REMARK    3  A    between atoms: C5_7  and  C6_8 
REMARK    4  A    between atoms: C18_25  and  N7_26 
ROOT
HETATM    1  C6  UNL     1      24.963   5.850  49.189  1.00  0.00    -0.012 C 
HETATM    2  C7  UNL     1      24.166   5.995  48.117  1.00  0.00     0.097 C 
HETATM    3  N3  UNL     1      22.859   6.048  48.798  1.00  0.00    -0.363 N 
HETATM    4  C8  UNL     1      22.548   4.618  48.607  1.00  0.00     0.152 C 
HETATM    5  C9  UNL     1      23.713   3.885  49.192  1.00  0.00     0.008 C 
HETATM    6  C10 UNL     1      24.694   4.560  49.877  1.00  0.00     0.012 C 
HETATM    7  C11 UNL     1      24.762   3.472  50.844  1.00  0.00     0.157 C 
HETATM    8  F1  UNL     1      25.526   2.383  50.643  1.00  0.00    -0.203 F 
HETATM    9  C12 UNL     1      23.939   3.863  51.849  1.00  0.00     0.099 C 
HETATM   10  C13 UNL     1      23.246   5.159  51.761  1.00  0.00     0.148 C 
HETATM   11  C14 UNL     1      21.805   5.085  51.450  1.00  0.00     0.130 C 
HETATM   12  N4  UNL     1      21.218   5.701  50.510  1.00  0.00    -0.249 NA
HETATM   13  C15 UNL     1      21.714   6.597  49.522  1.00  0.00     0.205 C 
HETATM   14  C16 UNL     1      22.016   7.982  49.983  1.00  0.00     0.057 C 
HETATM   15  N5  UNL     1      20.822   4.338  52.143  1.00  0.00    -0.227 NA
HETATM   16  C17 UNL     1      20.919   3.130  52.535  1.00  0.00     0.237 C 
HETATM   17  N6  UNL     1      21.859   2.109  52.495  1.00  0.00    -0.225 NA
HETATM   18  C18 UNL     1      21.622   0.891  52.243  1.00  0.00     0.126 C 
HETATM   19  C20 UNL     1      23.038   0.669  52.414  1.00  0.00     0.074 C 
HETATM   20  C21 UNL     1      23.923   1.589  52.696  1.00  0.00     0.146 C 
HETATM   21  O1  UNL     1      23.841   2.939  52.906  1.00  0.00    -0.323 OA
ENDROOT
BRANCH   1  22
HETATM   22  C5  UNL     1      26.056   6.725  49.718  1.00  0.00     0.158 C 
BRANCH  22  23
HETATM   23  N2  UNL     1      27.103   6.924  48.778  1.00  0.00    -0.405 N 
HETATM   24  C4  UNL     1      27.890   8.073  48.872  1.00  0.00     0.147 C 
HETATM   25  C3  UNL     1      29.271   8.020  48.325  1.00  0.00     0.291 C 
HETATM   26  N1  UNL     1      29.600   6.825  47.592  1.00  0.00     0.091 N 
HETATM   27  C23 UNL     1      29.200   5.717  48.432  1.00  0.00     0.291 C 
HETATM   28  C22 UNL     1      27.681   5.713  48.306  1.00  0.00     0.147 C 
BRANCH  26  29
HETATM   29  C2  UNL     1      30.966   6.815  47.205  1.00  0.00     0.268 C 
HETATM   30  C1  UNL     1      31.684   5.515  47.372  1.00  0.00     0.037 C 
ENDBRANCH  26  29
ENDBRANCH  22  23
ENDBRANCH   1  22
BRANCH  18  31
HETATM   31  N7  UNL     1      20.576   0.006  51.929  1.00  0.00    -0.379 N 
HETATM   32  C19 UNL     1      19.908  -0.337  53.170  1.00  0.00     0.147 C 
HETATM   33  H23 UNL     1      20.525  -0.195  50.919  1.00  0.00     0.160 HD
ENDBRANCH  18  31
TORSDOF 4
ENDMDL
MODEL 7
REMARK VINA RESULT:      -7.8      2.734      3.982
REMARK  4 active torsions:
REMARK  status: ('A' for Active; 'I' for Inactive)
REMARK    1  A    between atoms: C2_2  and  N1_3 
REMARK    2  A    between atoms: N2_6  and  C5_7 
REMARK    3  A    between atoms: C5_7  and  C6_8 
REMARK    4  A    between atoms: C18_25  and  N7_26 
ROOT
HETATM    1  C6  UNL     1      24.656   3.339  51.403  1.00  0.00    -0.012 C 
HETATM    2  C7  UNL     1      24.070   3.652  52.572  1.00  0.00     0.097 C 
HETATM    3  N3  UNL     1      22.817   2.890  52.420  1.00  0.00    -0.363 N 
HETATM    4  C8  UNL     1      22.022   4.033  51.926  1.00  0.00     0.152 C 
HETATM    5  C9  UNL     1      22.779   4.550  50.744  1.00  0.00     0.008 C 
HETATM    6  C10 UNL     1      23.871   3.873  50.259  1.00  0.00     0.012 C 
HETATM    7  C11 UNL     1      23.447   4.171  48.897  1.00  0.00     0.157 C 
HETATM    8  F1  UNL     1      23.775   5.321  48.282  1.00  0.00    -0.203 F 
HETATM    9  C12 UNL     1      22.735   3.080  48.520  1.00  0.00     0.099 C 
HETATM   10  C13 UNL     1      22.575   1.954  49.456  1.00  0.00     0.148 C 
HETATM   11  C14 UNL     1      21.243   1.835  50.078  1.00  0.00     0.130 C 
HETATM   12  N4  UNL     1      21.012   1.757  51.322  1.00  0.00    -0.249 NA
HETATM   13  C15 UNL     1      21.890   1.760  52.442  1.00  0.00     0.205 C 
HETATM   14  C16 UNL     1      22.634   0.494  52.697  1.00  0.00     0.057 C 
HETATM   15  N5  UNL     1      19.995   1.767  49.413  1.00  0.00    -0.227 NA
HETATM   16  C17 UNL     1      19.607   2.499  48.446  1.00  0.00     0.237 C 
HETATM   17  N6  UNL     1      20.107   3.547  47.685  1.00  0.00    -0.225 NA
HETATM   18  C18 UNL     1      19.465   4.579  47.329  1.00  0.00     0.126 C 
HETATM   19  C20 UNL     1      20.680   5.003  46.674  1.00  0.00     0.074 C 
HETATM   20  C21 UNL     1      21.809   4.346  46.669  1.00  0.00     0.146 C 
HETATM   21  O1  UNL     1      22.208   3.157  47.217  1.00  0.00    -0.323 OA
ENDROOT
BRANCH   1  22
HETATM   22  C5  UNL     1      25.939   2.625  51.115  1.00  0.00     0.158 C 
BRANCH  22  23
HETATM   23  N2  UNL     1      26.366   1.806  52.196  1.00  0.00    -0.405 N 
HETATM   24  C4  UNL     1      26.387   0.420  52.030  1.00  0.00     0.147 C 
HETATM   25  C3  UNL     1      27.331  -0.368  52.864  1.00  0.00     0.291 C 
HETATM   26  N1  UNL     1      28.014   0.373  53.893  1.00  0.00     0.091 N 
HETATM   27  C23 UNL     1      28.557   1.548  53.246  1.00  0.00     0.291 C 
HETATM   28  C22 UNL     1      27.332   2.429  53.034  1.00  0.00     0.147 C 
BRANCH  26  29
HETATM   29  C2  UNL     1      28.971  -0.434  54.563  1.00  0.00     0.268 C 
HETATM   30  C1  UNL     1      30.023  -1.054  53.700  1.00  0.00     0.037 C 
ENDBRANCH  26  29
ENDBRANCH  22  23
ENDBRANCH   1  22
BRANCH  18  31
HETATM   31  N7  UNL     1      18.202   5.188  47.425  1.00  0.00    -0.379 N 
HETATM   32  C19 UNL     1      17.545   5.031  46.141  1.00  0.00     0.147 C 
HETATM   33  H23 UNL     1      18.036   5.598  48.356  1.00  0.00     0.160 HD
ENDBRANCH  18  31
TORSDOF 4
ENDMDL
MODEL 8
REMARK VINA RESULT:      -7.7      3.962      6.192
REMARK  4 active torsions:
REMARK  status: ('A' for Active; 'I' for Inactive)
REMARK    1  A    between atoms: C2_2  and  N1_3 
REMARK    2  A    between atoms: N2_6  and  C5_7 
REMARK    3  A    between atoms: C5_7  and  C6_8 
REMARK    4  A    between atoms: C18_25  and  N7_26 
ROOT
HETATM    1  C6  UNL     1      24.020   6.633  48.608  1.00  0.00    -0.012 C 
HETATM    2  C7  UNL     1      23.233   6.377  47.548  1.00  0.00     0.097 C 
HETATM    3  N3  UNL     1      21.981   6.050  48.256  1.00  0.00    -0.363 N 
HETATM    4  C8  UNL     1      22.186   4.588  48.226  1.00  0.00     0.152 C 
HETATM    5  C9  UNL     1      23.527   4.371  48.853  1.00  0.00     0.008 C 
HETATM    6  C10 UNL     1      24.207   5.413  49.436  1.00  0.00     0.012 C 
HETATM    7  C11 UNL     1      24.637   4.528  50.510  1.00  0.00     0.157 C 
HETATM    8  F1  UNL     1      25.733   3.755  50.404  1.00  0.00    -0.203 F 
HETATM    9  C12 UNL     1      23.719   4.718  51.490  1.00  0.00     0.099 C 
HETATM   10  C13 UNL     1      22.621   5.678  51.285  1.00  0.00     0.148 C 
HETATM   11  C14 UNL     1      21.299   5.077  51.024  1.00  0.00     0.130 C 
HETATM   12  N4  UNL     1      20.545   5.346  50.041  1.00  0.00    -0.249 NA
HETATM   13  C15 UNL     1      20.710   6.245  48.950  1.00  0.00     0.205 C 
HETATM   14  C16 UNL     1      20.509   7.690  49.253  1.00  0.00     0.057 C 
HETATM   15  N5  UNL     1      20.627   4.117  51.819  1.00  0.00    -0.227 NA
HETATM   16  C17 UNL     1      21.132   3.067  52.334  1.00  0.00     0.237 C 
HETATM   17  N6  UNL     1      22.367   2.436  52.377  1.00  0.00    -0.225 NA
HETATM   18  C18 UNL     1      22.569   1.191  52.262  1.00  0.00     0.126 C 
HETATM   19  C20 UNL     1      23.973   1.491  52.415  1.00  0.00     0.074 C 
HETATM   20  C21 UNL     1      24.481   2.685  52.573  1.00  0.00     0.146 C 
HETATM   21  O1  UNL     1      23.935   3.938  52.642  1.00  0.00    -0.323 OA
ENDROOT
BRANCH   1  22
HETATM   22  C5  UNL     1      24.737   7.884  49.010  1.00  0.00     0.158 C 
BRANCH  22  23
HETATM   23  N2  UNL     1      26.149   7.722  49.039  1.00  0.00    -0.405 N 
HETATM   24  C4  UNL     1      26.831   7.500  47.842  1.00  0.00     0.147 C 
HETATM   25  C3  UNL     1      28.260   7.904  47.768  1.00  0.00     0.291 C 
HETATM   26  N1  UNL     1      28.847   8.329  49.012  1.00  0.00     0.091 N 
HETATM   27  C23 UNL     1      27.935   9.302  49.573  1.00  0.00     0.291 C 
HETATM   28  C22 UNL     1      26.783   8.447  50.086  1.00  0.00     0.147 C 
BRANCH  26  29
HETATM   29  C2  UNL     1      30.175   8.797  48.824  1.00  0.00     0.268 C 
HETATM   30  C1  UNL     1      30.467  10.165  49.352  1.00  0.00     0.037 C 
ENDBRANCH  26  29
ENDBRANCH  22  23
ENDBRANCH   1  22
BRANCH  18  31
HETATM   31  N7  UNL     1      21.898  -0.030  52.072  1.00  0.00    -0.379 N 
HETATM   32  C19 UNL     1      22.006  -0.782  53.307  1.00  0.00     0.147 C 
HETATM   33  H23 UNL     1      21.496  -0.111  51.127  1.00  0.00     0.160 HD
ENDBRANCH  18  31
TORSDOF 4
ENDMDL
MODEL 9
REMARK VINA RESULT:      -7.3      8.381     12.145
REMARK  4 active torsions:
REMARK  status: ('A' for Active; 'I' for Inactive)
REMARK    1  A    between atoms: C2_2  and  N1_3 
REMARK    2  A    between atoms: N2_6  and  C5_7 
REMARK    3  A    between atoms: C5_7  and  C6_8 
REMARK    4  A    between atoms: C18_25  and  N7_26 
ROOT
HETATM    1  C6  UNL     1      28.227   7.456  47.599  1.00  0.00    -0.012 C 
HETATM    2  C7  UNL     1      29.249   7.114  46.796  1.00  0.00     0.097 C 
HETATM    3  N3  UNL     1      30.314   7.934  47.404  1.00  0.00    -0.363 N 
HETATM    4  C8  UNL     1      30.182   9.055  46.452  1.00  0.00     0.152 C 
HETATM    5  C9  UNL     1      28.742   9.455  46.520  1.00  0.00     0.008 C 
HETATM    6  C10 UNL     1      27.903   8.900  47.456  1.00  0.00     0.012 C 
HETATM    7  C11 UNL     1      27.271  10.197  47.654  1.00  0.00     0.157 C 
HETATM    8  F1  UNL     1      26.263  10.629  46.875  1.00  0.00    -0.203 F 
HETATM    9  C12 UNL     1      27.926  10.733  48.714  1.00  0.00     0.099 C 
HETATM   10  C13 UNL     1      29.002   9.968  49.368  1.00  0.00     0.148 C 
HETATM   11  C14 UNL     1      30.372  10.435  49.081  1.00  0.00     0.130 C 
HETATM   12  N4  UNL     1      31.323   9.716  48.648  1.00  0.00    -0.249 NA
HETATM   13  C15 UNL     1      31.380   8.333  48.321  1.00  0.00     0.205 C 
HETATM   14  C16 UNL     1      31.445   7.387  49.471  1.00  0.00     0.057 C 
HETATM   15  N5  UNL     1      30.879  11.746  49.251  1.00  0.00    -0.227 NA
HETATM   16  C17 UNL     1      30.311  12.833  48.904  1.00  0.00     0.237 C 
HETATM   17  N6  UNL     1      29.127  13.224  48.295  1.00  0.00    -0.225 NA
HETATM   18  C18 UNL     1      29.009  14.122  47.410  1.00  0.00     0.126 C 
HETATM   19  C20 UNL     1      27.597  13.821  47.416  1.00  0.00     0.074 C 
HETATM   20  C21 UNL     1      27.017  12.911  48.153  1.00  0.00     0.146 C 
HETATM   21  O1  UNL     1      27.480  12.017  49.080  1.00  0.00    -0.323 OA
ENDROOT
BRANCH   1  22
HETATM   22  C5  UNL     1      27.385   6.625  48.515  1.00  0.00     0.158 C 
BRANCH  22  23
HETATM   23  N2  UNL     1      26.126   7.222  48.797  1.00  0.00    -0.405 N 
HETATM   24  C4  UNL     1      25.026   6.891  48.004  1.00  0.00     0.147 C 
HETATM   25  C3  UNL     1      23.672   7.018  48.603  1.00  0.00     0.291 C 
HETATM   26  N1  UNL     1      23.625   7.642  49.900  1.00  0.00     0.091 N 
HETATM   27  C23 UNL     1      24.621   6.968  50.705  1.00  0.00     0.291 C 
HETATM   28  C22 UNL     1      25.936   7.525  50.173  1.00  0.00     0.147 C 
BRANCH  26  29
HETATM   29  C2  UNL     1      22.311   7.621  50.438  1.00  0.00     0.268 C 
HETATM   30  C1  UNL     1      21.907   6.359  51.129  1.00  0.00     0.037 C 
ENDBRANCH  26  29
ENDBRANCH  22  23
ENDBRANCH   1  22
BRANCH  18  31
HETATM   31  N7  UNL     1      29.755  15.052  46.666  1.00  0.00    -0.379 N 
HETATM   32  C19 UNL     1      28.881  16.169  46.364  1.00  0.00     0.147 C 
HETATM   33  H23 UNL     1      30.724  14.738  46.507  1.00  0.00     0.160 HD
ENDBRANCH  18  31
TORSDOF 4
ENDMDL
