MODEL 1
REMARK VINA RESULT:      -7.4      0.000      0.000
REMARK  8 active torsions:
REMARK  status: ('A' for Active; 'I' for Inactive)
REMARK    1  A    between atoms: C2_2  and  C3_3 
REMARK       I    between atoms: C3_3  and  N1_5 
REMARK    2  A    between atoms: C6_8  and  N2_9 
REMARK    3  A    between atoms: C14_20  and  O2_21 
REMARK    4  A    between atoms: C16_23  and  N6_24 
REMARK    5  A    between atoms: N6_24  and  C17_25 
REMARK    6  A    between atoms: N6_24  and  C19_27 
REMARK    7  A    between atoms: C19_27  and  C20_28 
REMARK    8  A    between atoms: C20_28  and  N7_29 
ROOT
HETATM    1  C3  UNL     1      23.272   3.487  49.173  1.00  0.00     0.248 C 
HETATM    2  O1  UNL     1      23.919   4.118  48.300  1.00  0.00    -0.268 OA
HETATM    3  N1  UNL     1      23.849   2.710  50.204  1.00  0.00    -0.297 N 
HETATM    4  C4  UNL     1      25.273   2.718  50.155  1.00  0.00     0.099 A 
HETATM    5  C5  UNL     1      25.919   2.024  51.061  1.00  0.00     0.051 A 
HETATM    6  C6  UNL     1      25.213   1.256  52.103  1.00  0.00     0.084 A 
HETATM    7  C14 UNL     1      23.895   1.262  52.134  1.00  0.00     0.116 A 
HETATM    8  C16 UNL     1      23.044   2.017  51.155  1.00  0.00     0.250 A 
ENDROOT
BRANCH   6   9
HETATM    9  N2  UNL     1      25.991   0.520  53.058  1.00  0.00    -0.270 N 
HETATM   10  C7  UNL     1      25.770  -0.887  53.320  1.00  0.00     0.296 C 
HETATM   11  N3  UNL     1      26.907  -1.740  53.089  1.00  0.00    -0.254 NA
HETATM   12  C8  UNL     1      28.089  -1.265  53.259  1.00  0.00     0.123 A 
HETATM   13  C9  UNL     1      29.548  -1.550  53.208  1.00  0.00     0.109 A 
HETATM   14  N5  UNL     1      28.131   0.088  53.655  1.00  0.00    -0.247 N 
HETATM   15  C10 UNL     1      30.162  -0.253  53.567  1.00  0.00     0.008 A 
HETATM   16  C11 UNL     1      29.359   0.759  53.857  1.00  0.00     0.030 A 
HETATM   17  C12 UNL     1      28.972   2.164  54.254  1.00  0.00     0.076 C 
HETATM   18  C13 UNL     1      27.590   2.228  53.570  1.00  0.00     0.145 C 
HETATM   19  N4  UNL     1      27.038   0.928  53.889  1.00  0.00    -0.127 NA
ENDBRANCH   6   9
BRANCH   7  20
HETATM   20  O2  UNL     1      23.314   0.517  53.141  1.00  0.00    -0.354 OA
HETATM   21  C15 UNL     1      22.388  -0.524  52.913  1.00  0.00     0.209 C 
ENDBRANCH   7  20
BRANCH   8  22
HETATM   22  N6  UNL     1      22.209   2.869  51.929  1.00  0.00    -0.386 N 
BRANCH  22  23
HETATM   23  C17 UNL     1      20.826   2.742  51.783  1.00  0.00     0.115 C 
HETATM   24  C18 UNL     1      20.401   1.678  50.789  1.00  0.00     0.026 C 
ENDBRANCH  22  23
BRANCH  22  25
HETATM   25  C19 UNL     1      22.755   4.057  52.413  1.00  0.00     0.138 C 
BRANCH  25  26
HETATM   26  C20 UNL     1      21.940   5.310  52.206  1.00  0.00     0.135 C 
BRANCH  26  27
HETATM   27  N7  UNL     1      22.590   6.094  51.200  1.00  0.00    -0.419 N 
HETATM   28  C21 UNL     1      21.805   7.192  50.707  1.00  0.00     0.142 C 
HETATM   29  C22 UNL     1      23.962   6.402  51.450  1.00  0.00     0.142 C 
ENDBRANCH  26  27
ENDBRANCH  25  26
ENDBRANCH  22  25
ENDBRANCH   8  22
BRANCH   1  30
HETATM   30  C2  UNL     1      22.146   4.042  48.459  1.00  0.00     0.064 C 
HETATM   31  C1  UNL     1      21.790   3.166  47.544  1.00  0.00     0.017 C 
ENDBRANCH   1  30
TORSDOF 8
ENDMDL
MODEL 2
REMARK VINA RESULT:      -7.2      8.435     10.271
REMARK  8 active torsions:
REMARK  status: ('A' for Active; 'I' for Inactive)
REMARK    1  A    between atoms: C2_2  and  C3_3 
REMARK       I    between atoms: C3_3  and  N1_5 
REMARK    2  A    between atoms: C6_8  and  N2_9 
REMARK    3  A    between atoms: C14_20  and  O2_21 
REMARK    4  A    between atoms: C16_23  and  N6_24 
REMARK    5  A    between atoms: N6_24  and  C17_25 
REMARK    6  A    between atoms: N6_24  and  C19_27 
REMARK    7  A    between atoms: C19_27  and  C20_28 
REMARK    8  A    between atoms: C20_28  and  N7_29 
ROOT
HETATM    1  C3  UNL     1      29.836  12.182  48.263  1.00  0.00     0.248 C 
HETATM    2  O1  UNL     1      29.766  12.895  49.295  1.00  0.00    -0.268 OA
HETATM    3  N1  UNL     1      30.259  10.833  48.239  1.00  0.00    -0.297 N 
HETATM    4  C4  UNL     1      30.603  10.350  49.534  1.00  0.00     0.099 A 
HETATM    5  C5  UNL     1      31.018   9.110  49.634  1.00  0.00     0.051 A 
HETATM    6  C6  UNL     1      31.129   8.230  48.457  1.00  0.00     0.084 A 
HETATM    7  C14 UNL     1      30.806   8.693  47.266  1.00  0.00     0.116 A 
HETATM    8  C16 UNL     1      30.318  10.092  47.023  1.00  0.00     0.250 A 
ENDROOT
BRANCH   6   9
HETATM    9  N2  UNL     1      31.593   6.885  48.647  1.00  0.00    -0.270 N 
HETATM   10  C7  UNL     1      30.690   5.754  48.706  1.00  0.00     0.296 C 
HETATM   11  N3  UNL     1      30.921   4.733  47.718  1.00  0.00    -0.254 NA
HETATM   12  C8  UNL     1      32.117   4.539  47.287  1.00  0.00     0.123 A 
HETATM   13  C9  UNL     1      32.980   3.744  46.374  1.00  0.00     0.109 A 
HETATM   14  N5  UNL     1      33.092   5.390  47.847  1.00  0.00    -0.247 N 
HETATM   15  C10 UNL     1      34.322   4.335  46.574  1.00  0.00     0.008 A 
HETATM   16  C11 UNL     1      34.448   5.315  47.454  1.00  0.00     0.030 A 
HETATM   17  C12 UNL     1      35.146   6.382  48.265  1.00  0.00     0.076 C 
HETATM   18  C13 UNL     1      33.943   7.321  48.499  1.00  0.00     0.145 C 
HETATM   19  N4  UNL     1      32.887   6.382  48.810  1.00  0.00    -0.127 NA
ENDBRANCH   6   9
BRANCH   7  20
HETATM   20  O2  UNL     1      30.940   7.804  46.219  1.00  0.00    -0.354 OA
HETATM   21  C15 UNL     1      31.989   7.855  45.275  1.00  0.00     0.209 C 
ENDBRANCH   7  20
BRANCH   8  22
HETATM   22  N6  UNL     1      29.062   9.966  46.367  1.00  0.00    -0.386 N 
BRANCH  22  23
HETATM   23  C17 UNL     1      28.899  10.599  45.133  1.00  0.00     0.115 C 
HETATM   24  C18 UNL     1      30.190  11.110  44.521  1.00  0.00     0.026 C 
ENDBRANCH  22  23
BRANCH  22  25
HETATM   25  C19 UNL     1      27.948   9.647  47.143  1.00  0.00     0.138 C 
BRANCH  25  26
HETATM   26  C20 UNL     1      27.425   8.236  47.028  1.00  0.00     0.135 C 
BRANCH  26  27
HETATM   27  N7  UNL     1      27.553   7.617  48.313  1.00  0.00    -0.419 N 
HETATM   28  C21 UNL     1      27.335   8.506  49.421  1.00  0.00     0.142 C 
HETATM   29  C22 UNL     1      26.941   6.334  48.444  1.00  0.00     0.142 C 
ENDBRANCH  26  27
ENDBRANCH  25  26
ENDBRANCH  22  25
ENDBRANCH   8  22
BRANCH   1  30
HETATM   30  C2  UNL     1      29.358  13.390  47.632  1.00  0.00     0.064 C 
HETATM   31  C1  UNL     1      28.084  13.513  47.935  1.00  0.00     0.017 C 
ENDBRANCH   1  30
TORSDOF 8
ENDMDL
MODEL 3
REMARK VINA RESULT:      -7.0      2.352      7.139
REMARK  8 active torsions:
REMARK  status: ('A' for Active; 'I' for Inactive)
REMARK    1  A    between atoms: C2_2  and  C3_3 
REMARK       I    between atoms: C3_3  and  N1_5 
REMARK    2  A    between atoms: C6_8  and  N2_9 
REMARK    3  A    between atoms: C14_20  and  O2_21 
REMARK    4  A    between atoms: C16_23  and  N6_24 
REMARK    5  A    between atoms: N6_24  and  C17_25 
REMARK    6  A    between atoms: N6_24  and  C19_27 
REMARK    7  A    between atoms: C19_27  and  C20_28 
REMARK    8  A    between atoms: C20_28  and  N7_29 
ROOT
HETATM    1  C3  UNL     1      26.175   0.987  52.312  1.00  0.00     0.248 C 
HETATM    2  O1  UNL     1      27.318   0.533  52.054  1.00  0.00    -0.268 OA
HETATM    3  N1  UNL     1      25.522   2.001  51.574  1.00  0.00    -0.297 N 
HETATM    4  C4  UNL     1      26.306   2.464  50.479  1.00  0.00     0.099 A 
HETATM    5  C5  UNL     1      25.803   3.411  49.725  1.00  0.00     0.051 A 
HETATM    6  C6  UNL     1      24.473   3.990  49.985  1.00  0.00     0.084 A 
HETATM    7  C14 UNL     1      23.760   3.548  51.003  1.00  0.00     0.116 A 
HETATM    8  C16 UNL     1      24.225   2.468  51.936  1.00  0.00     0.250 A 
ENDROOT
BRANCH   6   9
HETATM    9  N2  UNL     1      23.993   5.025  49.116  1.00  0.00    -0.270 N 
HETATM   10  C7  UNL     1      23.093   4.758  48.012  1.00  0.00     0.296 C 
HETATM   11  N3  UNL     1      21.838   5.462  48.059  1.00  0.00    -0.254 NA
HETATM   12  C8  UNL     1      21.791   6.618  48.619  1.00  0.00     0.123 A 
HETATM   13  C9  UNL     1      20.928   7.774  48.982  1.00  0.00     0.109 A 
HETATM   14  N5  UNL     1      23.017   7.068  49.151  1.00  0.00    -0.247 N 
HETATM   15  C10 UNL     1      21.853   8.677  49.702  1.00  0.00     0.008 A 
HETATM   16  C11 UNL     1      23.119   8.309  49.821  1.00  0.00     0.030 A 
HETATM   17  C12 UNL     1      24.568   8.407  50.237  1.00  0.00     0.076 C 
HETATM   18  C13 UNL     1      24.894   6.900  50.304  1.00  0.00     0.145 C 
HETATM   19  N4  UNL     1      24.245   6.400  49.110  1.00  0.00    -0.127 NA
ENDBRANCH   6   9
BRANCH   7  20
HETATM   20  O2  UNL     1      22.527   4.144  51.176  1.00  0.00    -0.354 OA
HETATM   21  C15 UNL     1      22.216   5.008  52.249  1.00  0.00     0.209 C 
ENDBRANCH   7  20
BRANCH   8  22
HETATM   22  N6  UNL     1      23.223   1.459  51.906  1.00  0.00    -0.386 N 
BRANCH  22  23
HETATM   23  C17 UNL     1      22.685   1.104  50.667  1.00  0.00     0.115 C 
HETATM   24  C18 UNL     1      21.216   0.726  50.712  1.00  0.00     0.026 C 
ENDBRANCH  22  23
BRANCH  22  25
HETATM   25  C19 UNL     1      22.504   1.215  53.076  1.00  0.00     0.138 C 
BRANCH  25  26
HETATM   26  C20 UNL     1      22.828  -0.061  53.815  1.00  0.00     0.135 C 
BRANCH  26  27
HETATM   27  N7  UNL     1      21.646  -0.477  54.507  1.00  0.00    -0.419 N 
HETATM   28  C21 UNL     1      20.574   0.479  54.472  1.00  0.00     0.142 C 
HETATM   29  C22 UNL     1      21.250  -1.832  54.292  1.00  0.00     0.142 C 
ENDBRANCH  26  27
ENDBRANCH  25  26
ENDBRANCH  22  25
ENDBRANCH   8  22
BRANCH   1  30
HETATM   30  C2  UNL     1      26.250   0.027  53.388  1.00  0.00     0.064 C 
HETATM   31  C1  UNL     1      26.550  -1.138  52.855  1.00  0.00     0.017 C 
ENDBRANCH   1  30
TORSDOF 8
ENDMDL
MODEL 4
REMARK VINA RESULT:      -7.0      2.459      7.537
REMARK  8 active torsions:
REMARK  status: ('A' for Active; 'I' for Inactive)
REMARK    1  A    between atoms: C2_2  and  C3_3 
REMARK       I    between atoms: C3_3  and  N1_5 
REMARK    2  A    between atoms: C6_8  and  N2_9 
REMARK    3  A    between atoms: C14_20  and  O2_21 
REMARK    4  A    between atoms: C16_23  and  N6_24 
REMARK    5  A    between atoms: N6_24  and  C17_25 
REMARK    6  A    between atoms: N6_24  and  C19_27 
REMARK    7  A    between atoms: C19_27  and  C20_28 
REMARK    8  A    between atoms: C20_28  and  N7_29 
ROOT
HETATM    1  C3  UNL     1      24.950   0.675  52.301  1.00  0.00     0.248 C 
HETATM    2  O1  UNL     1      25.304   0.049  53.332  1.00  0.00    -0.268 OA
HETATM    3  N1  UNL     1      23.638   1.135  52.045  1.00  0.00    -0.297 N 
HETATM    4  C4  UNL     1      22.736   0.813  53.100  1.00  0.00     0.099 A 
HETATM    5  C5  UNL     1      21.485   1.186  52.970  1.00  0.00     0.051 A 
HETATM    6  C6  UNL     1      21.010   1.914  51.779  1.00  0.00     0.084 A 
HETATM    7  C14 UNL     1      21.859   2.204  50.813  1.00  0.00     0.116 A 
HETATM    8  C16 UNL     1      23.313   1.834  50.846  1.00  0.00     0.250 A 
ENDROOT
BRANCH   6   9
HETATM    9  N2  UNL     1      19.626   2.284  51.709  1.00  0.00    -0.270 N 
HETATM   10  C7  UNL     1      19.170   3.637  51.958  1.00  0.00     0.296 C 
HETATM   11  N3  UNL     1      18.458   4.255  50.869  1.00  0.00    -0.254 NA
HETATM   12  C8  UNL     1      17.771   3.515  50.073  1.00  0.00     0.123 A 
HETATM   13  C9  UNL     1      16.888   3.487  48.877  1.00  0.00     0.109 A 
HETATM   14  N5  UNL     1      17.810   2.136  50.365  1.00  0.00    -0.247 N 
HETATM   15  C10 UNL     1      16.609   2.046  48.693  1.00  0.00     0.008 A 
HETATM   16  C11 UNL     1      17.125   1.193  49.564  1.00  0.00     0.030 A 
HETATM   17  C12 UNL     1      17.425  -0.145  50.199  1.00  0.00     0.076 C 
HETATM   18  C13 UNL     1      18.769   0.211  50.869  1.00  0.00     0.145 C 
HETATM   19  N4  UNL     1      18.491   1.521  51.420  1.00  0.00    -0.127 NA
ENDBRANCH   6   9
BRANCH   7  20
HETATM   20  O2  UNL     1      21.332   2.885  49.735  1.00  0.00    -0.354 OA
HETATM   21  C15 UNL     1      21.046   2.285  48.489  1.00  0.00     0.209 C 
ENDBRANCH   7  20
BRANCH   8  22
HETATM   22  N6  UNL     1      24.035   3.047  50.677  1.00  0.00    -0.386 N 
BRANCH  22  23
HETATM   23  C17 UNL     1      24.786   3.208  49.510  1.00  0.00     0.115 C 
HETATM   24  C18 UNL     1      26.231   3.605  49.751  1.00  0.00     0.026 C 
ENDBRANCH  22  23
BRANCH  22  25
HETATM   25  C19 UNL     1      24.347   3.789  51.816  1.00  0.00     0.138 C 
BRANCH  25  26
HETATM   26  C20 UNL     1      23.323   4.804  52.263  1.00  0.00     0.135 C 
BRANCH  26  27
HETATM   27  N7  UNL     1      23.177   5.768  51.215  1.00  0.00    -0.419 N 
HETATM   28  C21 UNL     1      21.823   6.188  50.983  1.00  0.00     0.142 C 
HETATM   29  C22 UNL     1      24.142   6.821  51.207  1.00  0.00     0.142 C 
ENDBRANCH  26  27
ENDBRANCH  25  26
ENDBRANCH  22  25
ENDBRANCH   8  22
BRANCH   1  30
HETATM   30  C2  UNL     1      26.342   0.508  51.958  1.00  0.00     0.064 C 
HETATM   31  C1  UNL     1      26.788  -0.537  52.623  1.00  0.00     0.017 C 
ENDBRANCH   1  30
TORSDOF 8
ENDMDL
MODEL 5
REMARK VINA RESULT:      -6.8      2.512      7.183
REMARK  8 active torsions:
REMARK  status: ('A' for Active; 'I' for Inactive)
REMARK    1  A    between atoms: C2_2  and  C3_3 
REMARK       I    between atoms: C3_3  and  N1_5 
REMARK    2  A    between atoms: C6_8  and  N2_9 
REMARK    3  A    between atoms: C14_20  and  O2_21 
REMARK    4  A    between atoms: C16_23  and  N6_24 
REMARK    5  A    between atoms: N6_24  and  C17_25 
REMARK    6  A    between atoms: N6_24  and  C19_27 
REMARK    7  A    between atoms: C19_27  and  C20_28 
REMARK    8  A    between atoms: C20_28  and  N7_29 
ROOT
HETATM    1  C3  UNL     1      25.723   0.891  52.011  1.00  0.00     0.248 C 
HETATM    2  O1  UNL     1      26.835   0.458  51.616  1.00  0.00    -0.268 OA
HETATM    3  N1  UNL     1      25.166   2.138  51.647  1.00  0.00    -0.297 N 
HETATM    4  C4  UNL     1      26.008   2.870  50.762  1.00  0.00     0.099 A 
HETATM    5  C5  UNL     1      25.596   4.049  50.361  1.00  0.00     0.051 A 
HETATM    6  C6  UNL     1      24.306   4.612  50.799  1.00  0.00     0.084 A 
HETATM    7  C14 UNL     1      23.538   3.920  51.617  1.00  0.00     0.116 A 
HETATM    8  C16 UNL     1      23.898   2.561  52.144  1.00  0.00     0.250 A 
ENDROOT
BRANCH   6   9
HETATM    9  N2  UNL     1      23.926   5.909  50.318  1.00  0.00    -0.270 N 
HETATM   10  C7  UNL     1      24.275   7.130  51.016  1.00  0.00     0.296 C 
HETATM   11  N3  UNL     1      25.054   8.071  50.253  1.00  0.00    -0.254 NA
HETATM   12  C8  UNL     1      24.902   8.118  48.977  1.00  0.00     0.123 A 
HETATM   13  C9  UNL     1      25.330   8.773  47.712  1.00  0.00     0.109 A 
HETATM   14  N5  UNL     1      23.966   7.200  48.458  1.00  0.00    -0.247 N 
HETATM   15  C10 UNL     1      24.551   8.057  46.678  1.00  0.00     0.008 A 
HETATM   16  C11 UNL     1      23.709   7.114  47.071  1.00  0.00     0.030 A 
HETATM   17  C12 UNL     1      22.673   6.022  46.935  1.00  0.00     0.076 C 
HETATM   18  C13 UNL     1      23.005   5.226  48.215  1.00  0.00     0.145 C 
HETATM   19  N4  UNL     1      23.199   6.284  49.184  1.00  0.00    -0.127 NA
ENDBRANCH   6   9
BRANCH   7  20
HETATM   20  O2  UNL     1      22.349   4.521  51.978  1.00  0.00    -0.354 OA
HETATM   21  C15 UNL     1      21.183   4.496  51.183  1.00  0.00     0.209 C 
ENDBRANCH   7  20
BRANCH   8  22
HETATM   22  N6  UNL     1      22.825   1.699  51.787  1.00  0.00    -0.386 N 
BRANCH  22  23
HETATM   23  C17 UNL     1      22.516   1.562  50.432  1.00  0.00     0.115 C 
HETATM   24  C18 UNL     1      21.281   0.725  50.158  1.00  0.00     0.026 C 
ENDBRANCH  22  23
BRANCH  22  25
HETATM   25  C19 UNL     1      21.863   1.416  52.756  1.00  0.00     0.138 C 
BRANCH  25  26
HETATM   26  C20 UNL     1      22.202   0.329  53.747  1.00  0.00     0.135 C 
BRANCH  26  27
HETATM   27  N7  UNL     1      21.249  -0.727  53.580  1.00  0.00    -0.419 N 
HETATM   28  C21 UNL     1      21.454  -1.850  54.453  1.00  0.00     0.142 C 
HETATM   29  C22 UNL     1      19.890  -0.315  53.441  1.00  0.00     0.142 C 
ENDBRANCH  26  27
ENDBRANCH  25  26
ENDBRANCH  22  25
ENDBRANCH   8  22
BRANCH   1  30
HETATM   30  C2  UNL     1      25.701  -0.371  52.713  1.00  0.00     0.064 C 
HETATM   31  C1  UNL     1      26.923  -0.857  52.686  1.00  0.00     0.017 C 
ENDBRANCH   1  30
TORSDOF 8
ENDMDL
MODEL 6
REMARK VINA RESULT:      -6.8      8.086      9.694
REMARK  8 active torsions:
REMARK  status: ('A' for Active; 'I' for Inactive)
REMARK    1  A    between atoms: C2_2  and  C3_3 
REMARK       I    between atoms: C3_3  and  N1_5 
REMARK    2  A    between atoms: C6_8  and  N2_9 
REMARK    3  A    between atoms: C14_20  and  O2_21 
REMARK    4  A    between atoms: C16_23  and  N6_24 
REMARK    5  A    between atoms: N6_24  and  C17_25 
REMARK    6  A    between atoms: N6_24  and  C19_27 
REMARK    7  A    between atoms: C19_27  and  C20_28 
REMARK    8  A    between atoms: C20_28  and  N7_29 
ROOT
HETATM    1  C3  UNL     1      27.015   6.681  48.507  1.00  0.00     0.248 C 
HETATM    2  O1  UNL     1      26.391   5.608  48.701  1.00  0.00    -0.268 OA
HETATM    3  N1  UNL     1      28.400   6.775  48.240  1.00  0.00    -0.297 N 
HETATM    4  C4  UNL     1      29.032   5.498  48.207  1.00  0.00     0.099 A 
HETATM    5  C5  UNL     1      30.322   5.461  47.974  1.00  0.00     0.051 A 
HETATM    6  C6  UNL     1      31.108   6.688  47.749  1.00  0.00     0.084 A 
HETATM    7  C14 UNL     1      30.506   7.860  47.782  1.00  0.00     0.116 A 
HETATM    8  C16 UNL     1      29.037   8.034  48.037  1.00  0.00     0.250 A 
ENDROOT
BRANCH   6   9
HETATM    9  N2  UNL     1      32.516   6.565  47.502  1.00  0.00    -0.270 N 
HETATM   10  C7  UNL     1      33.484   6.436  48.572  1.00  0.00     0.296 C 
HETATM   11  N3  UNL     1      34.290   5.244  48.531  1.00  0.00    -0.254 NA
HETATM   12  C8  UNL     1      34.564   4.715  47.392  1.00  0.00     0.123 A 
HETATM   13  C9  UNL     1      35.263   3.607  46.688  1.00  0.00     0.109 A 
HETATM   14  N5  UNL     1      34.012   5.384  46.280  1.00  0.00    -0.247 N 
HETATM   15  C10 UNL     1      34.939   3.850  45.264  1.00  0.00     0.008 A 
HETATM   16  C11 UNL     1      34.204   4.908  44.963  1.00  0.00     0.030 A 
HETATM   17  C12 UNL     1      33.455   5.884  44.085  1.00  0.00     0.076 C 
HETATM   18  C13 UNL     1      32.419   6.378  45.116  1.00  0.00     0.145 C 
HETATM   19  N4  UNL     1      33.232   6.545  46.302  1.00  0.00    -0.127 NA
ENDBRANCH   6   9
BRANCH   7  20
HETATM   20  O2  UNL     1      31.315   8.957  47.563  1.00  0.00    -0.354 OA
HETATM   21  C15 UNL     1      31.656   9.894  48.562  1.00  0.00     0.209 C 
ENDBRANCH   7  20
BRANCH   8  22
HETATM   22  N6  UNL     1      28.525   8.764  46.930  1.00  0.00    -0.386 N 
BRANCH  22  23
HETATM   23  C17 UNL     1      28.755   8.260  45.648  1.00  0.00     0.115 C 
HETATM   24  C18 UNL     1      27.608   8.480  44.679  1.00  0.00     0.026 C 
ENDBRANCH  22  23
BRANCH  22  25
HETATM   25  C19 UNL     1      28.250  10.119  47.110  1.00  0.00     0.138 C 
BRANCH  25  26
HETATM   26  C20 UNL     1      27.743  10.532  48.470  1.00  0.00     0.135 C 
BRANCH  26  27
HETATM   27  N7  UNL     1      27.893  11.952  48.580  1.00  0.00    -0.419 N 
HETATM   28  C21 UNL     1      29.145  12.454  48.086  1.00  0.00     0.142 C 
HETATM   29  C22 UNL     1      26.749  12.723  48.211  1.00  0.00     0.142 C 
ENDBRANCH  26  27
ENDBRANCH  25  26
ENDBRANCH  22  25
ENDBRANCH   8  22
BRANCH   1  30
HETATM   30  C2  UNL     1      25.704   7.253  48.712  1.00  0.00     0.064 C 
HETATM   31  C1  UNL     1      25.630   7.621  49.973  1.00  0.00     0.017 C 
ENDBRANCH   1  30
TORSDOF 8
ENDMDL
MODEL 7
REMARK VINA RESULT:      -6.8      2.491      6.870
REMARK  8 active torsions:
REMARK  status: ('A' for Active; 'I' for Inactive)
REMARK    1  A    between atoms: C2_2  and  C3_3 
REMARK       I    between atoms: C3_3  and  N1_5 
REMARK    2  A    between atoms: C6_8  and  N2_9 
REMARK    3  A    between atoms: C14_20  and  O2_21 
REMARK    4  A    between atoms: C16_23  and  N6_24 
REMARK    5  A    between atoms: N6_24  and  C17_25 
REMARK    6  A    between atoms: N6_24  and  C19_27 
REMARK    7  A    between atoms: C19_27  and  C20_28 
REMARK    8  A    between atoms: C20_28  and  N7_29 
ROOT
HETATM    1  C3  UNL     1      25.647   0.684  52.252  1.00  0.00     0.248 C 
HETATM    2  O1  UNL     1      26.702   0.196  51.775  1.00  0.00    -0.268 OA
HETATM    3  N1  UNL     1      25.100   1.937  51.891  1.00  0.00    -0.297 N 
HETATM    4  C4  UNL     1      25.883   2.606  50.906  1.00  0.00     0.099 A 
HETATM    5  C5  UNL     1      25.475   3.784  50.498  1.00  0.00     0.051 A 
HETATM    6  C6  UNL     1      24.251   4.410  51.028  1.00  0.00     0.084 A 
HETATM    7  C14 UNL     1      23.538   3.776  51.937  1.00  0.00     0.116 A 
HETATM    8  C16 UNL     1      23.899   2.425  52.483  1.00  0.00     0.250 A 
ENDROOT
BRANCH   6   9
HETATM    9  N2  UNL     1      23.872   5.702  50.532  1.00  0.00    -0.270 N 
HETATM   10  C7  UNL     1      24.280   6.932  51.180  1.00  0.00     0.296 C 
HETATM   11  N3  UNL     1      25.037   7.838  50.356  1.00  0.00    -0.254 NA
HETATM   12  C8  UNL     1      24.823   7.856  49.088  1.00  0.00     0.123 A 
HETATM   13  C9  UNL     1      25.199   8.470  47.787  1.00  0.00     0.109 A 
HETATM   14  N5  UNL     1      23.845   6.945  48.640  1.00  0.00    -0.247 N 
HETATM   15  C10 UNL     1      24.356   7.745  46.811  1.00  0.00     0.008 A 
HETATM   16  C11 UNL     1      23.517   6.830  47.269  1.00  0.00     0.030 A 
HETATM   17  C12 UNL     1      22.455   5.757  47.214  1.00  0.00     0.076 C 
HETATM   18  C13 UNL     1      22.834   4.986  48.496  1.00  0.00     0.145 C 
HETATM   19  N4  UNL     1      23.097   6.063  49.426  1.00  0.00    -0.127 NA
ENDBRANCH   6   9
BRANCH   7  20
HETATM   20  O2  UNL     1      22.408   4.434  52.380  1.00  0.00    -0.354 OA
HETATM   21  C15 UNL     1      21.146   4.337  51.754  1.00  0.00     0.209 C 
ENDBRANCH   7  20
BRANCH   8  22
HETATM   22  N6  UNL     1      22.769   1.591  52.257  1.00  0.00    -0.386 N 
BRANCH  22  23
HETATM   23  C17 UNL     1      22.159   0.998  53.365  1.00  0.00     0.115 C 
HETATM   24  C18 UNL     1      22.238  -0.517  53.380  1.00  0.00     0.026 C 
ENDBRANCH  22  23
BRANCH  22  25
HETATM   25  C19 UNL     1      22.608   1.035  50.989  1.00  0.00     0.138 C 
BRANCH  25  26
HETATM   26  C20 UNL     1      21.193   0.913  50.478  1.00  0.00     0.135 C 
BRANCH  26  27
HETATM   27  N7  UNL     1      21.060   1.779  49.347  1.00  0.00    -0.419 N 
HETATM   28  C21 UNL     1      21.858   1.400  48.215  1.00  0.00     0.142 C 
HETATM   29  C22 UNL     1      19.727   2.183  49.033  1.00  0.00     0.142 C 
ENDBRANCH  26  27
ENDBRANCH  25  26
ENDBRANCH  22  25
ENDBRANCH   8  22
BRANCH   1  30
HETATM   30  C2  UNL     1      25.646  -0.550  53.001  1.00  0.00     0.064 C 
HETATM   31  C1  UNL     1      25.907  -0.248  54.255  1.00  0.00     0.017 C 
ENDBRANCH   1  30
TORSDOF 8
ENDMDL
MODEL 8
REMARK VINA RESULT:      -6.7      3.223      4.820
REMARK  8 active torsions:
REMARK  status: ('A' for Active; 'I' for Inactive)
REMARK    1  A    between atoms: C2_2  and  C3_3 
REMARK       I    between atoms: C3_3  and  N1_5 
REMARK    2  A    between atoms: C6_8  and  N2_9 
REMARK    3  A    between atoms: C14_20  and  O2_21 
REMARK    4  A    between atoms: C16_23  and  N6_24 
REMARK    5  A    between atoms: N6_24  and  C17_25 
REMARK    6  A    between atoms: N6_24  and  C19_27 
REMARK    7  A    between atoms: C19_27  and  C20_28 
REMARK    8  A    between atoms: C20_28  and  N7_29 
ROOT
HETATM    1  C3  UNL     1      21.485   3.999  45.877  1.00  0.00     0.248 C 
HETATM    2  O1  UNL     1      22.223   3.438  45.028  1.00  0.00    -0.268 OA
HETATM    3  N1  UNL     1      21.404   3.638  47.241  1.00  0.00    -0.297 N 
HETATM    4  C4  UNL     1      22.266   2.552  47.567  1.00  0.00     0.099 A 
HETATM    5  C5  UNL     1      22.270   2.125  48.807  1.00  0.00     0.051 A 
HETATM    6  C6  UNL     1      21.419   2.737  49.843  1.00  0.00     0.084 A 
HETATM    7  C14 UNL     1      20.628   3.742  49.524  1.00  0.00     0.116 A 
HETATM    8  C16 UNL     1      20.535   4.321  48.142  1.00  0.00     0.250 A 
ENDROOT
BRANCH   6   9
HETATM    9  N2  UNL     1      21.478   2.212  51.177  1.00  0.00    -0.270 N 
HETATM   10  C7  UNL     1      20.586   1.170  51.642  1.00  0.00     0.296 C 
HETATM   11  N3  UNL     1      21.232  -0.029  52.110  1.00  0.00    -0.254 NA
HETATM   12  C8  UNL     1      22.400   0.059  52.642  1.00  0.00     0.123 A 
HETATM   13  C9  UNL     1      23.523  -0.687  53.270  1.00  0.00     0.109 A 
HETATM   14  N5  UNL     1      22.930   1.364  52.693  1.00  0.00    -0.247 N 
HETATM   15  C10 UNL     1      24.524   0.369  53.540  1.00  0.00     0.008 A 
HETATM   16  C11 UNL     1      24.215   1.617  53.226  1.00  0.00     0.030 A 
HETATM   17  C12 UNL     1      24.405   3.110  53.088  1.00  0.00     0.076 C 
HETATM   18  C13 UNL     1      23.455   3.357  51.896  1.00  0.00     0.145 C 
HETATM   19  N4  UNL     1      22.314   2.538  52.249  1.00  0.00    -0.127 NA
ENDBRANCH   6   9
BRANCH   7  20
HETATM   20  O2  UNL     1      19.865   4.256  50.553  1.00  0.00    -0.354 OA
HETATM   21  C15 UNL     1      18.456   4.173  50.603  1.00  0.00     0.209 C 
ENDBRANCH   7  20
BRANCH   8  22
HETATM   22  N6  UNL     1      20.819   5.708  48.273  1.00  0.00    -0.386 N 
BRANCH  22  23
HETATM   23  C17 UNL     1      19.828   6.620  47.901  1.00  0.00     0.115 C 
HETATM   24  C18 UNL     1      18.600   5.982  47.278  1.00  0.00     0.026 C 
ENDBRANCH  22  23
BRANCH  22  25
HETATM   25  C19 UNL     1      22.157   6.102  48.302  1.00  0.00     0.138 C 
BRANCH  25  26
HETATM   26  C20 UNL     1      22.680   6.619  49.620  1.00  0.00     0.135 C 
BRANCH  26  27
HETATM   27  N7  UNL     1      24.106   6.490  49.605  1.00  0.00    -0.419 N 
HETATM   28  C21 UNL     1      24.746   6.858  50.837  1.00  0.00     0.142 C 
HETATM   29  C22 UNL     1      24.611   5.300  48.998  1.00  0.00     0.142 C 
ENDBRANCH  26  27
ENDBRANCH  25  26
ENDBRANCH  22  25
ENDBRANCH   8  22
BRANCH   1  30
HETATM   30  C2  UNL     1      21.114   4.802  44.736  1.00  0.00     0.064 C 
HETATM   31  C1  UNL     1      21.905   5.854  44.723  1.00  0.00     0.017 C 
ENDBRANCH   1  30
TORSDOF 8
ENDMDL
MODEL 9
REMARK VINA RESULT:      -6.7      3.886      7.802
REMARK  8 active torsions:
REMARK  status: ('A' for Active; 'I' for Inactive)
REMARK    1  A    between atoms: C2_2  and  C3_3 
REMARK       I    between atoms: C3_3  and  N1_5 
REMARK    2  A    between atoms: C6_8  and  N2_9 
REMARK    3  A    between atoms: C14_20  and  O2_21 
REMARK    4  A    between atoms: C16_23  and  N6_24 
REMARK    5  A    between atoms: N6_24  and  C17_25 
REMARK    6  A    between atoms: N6_24  and  C19_27 
REMARK    7  A    between atoms: C19_27  and  C20_28 
REMARK    8  A    between atoms: C20_28  and  N7_29 
ROOT
HETATM    1  C3  UNL     1      25.998   2.963  51.089  1.00  0.00     0.248 C 
HETATM    2  O1  UNL     1      26.887   2.082  50.971  1.00  0.00    -0.268 OA
HETATM    3  N1  UNL     1      25.919   4.140  50.311  1.00  0.00    -0.297 N 
HETATM    4  C4  UNL     1      26.970   4.229  49.353  1.00  0.00     0.099 A 
HETATM    5  C5  UNL     1      27.002   5.285  48.577  1.00  0.00     0.051 A 
HETATM    6  C6  UNL     1      25.993   6.355  48.676  1.00  0.00     0.084 A 
HETATM    7  C14 UNL     1      25.027   6.256  49.567  1.00  0.00     0.116 A 
HETATM    8  C16 UNL     1      24.881   5.097  50.510  1.00  0.00     0.250 A 
ENDROOT
BRANCH   6   9
HETATM    9  N2  UNL     1      26.098   7.480  47.792  1.00  0.00    -0.270 N 
HETATM   10  C7  UNL     1      25.243   7.640  46.633  1.00  0.00     0.296 C 
HETATM   11  N3  UNL     1      24.455   8.844  46.613  1.00  0.00    -0.254 NA
HETATM   12  C8  UNL     1      24.914   9.901  47.183  1.00  0.00     0.123 A 
HETATM   13  C9  UNL     1      24.662  11.330  47.508  1.00  0.00     0.109 A 
HETATM   14  N5  UNL     1      26.175   9.743  47.794  1.00  0.00    -0.247 N 
HETATM   15  C10 UNL     1      25.856  11.717  48.294  1.00  0.00     0.008 A 
HETATM   16  C11 UNL     1      26.799  10.808  48.484  1.00  0.00     0.030 A 
HETATM   17  C12 UNL     1      28.102  10.233  48.988  1.00  0.00     0.076 C 
HETATM   18  C13 UNL     1      27.691   8.747  49.055  1.00  0.00     0.145 C 
HETATM   19  N4  UNL     1      26.956   8.583  47.819  1.00  0.00    -0.127 NA
ENDBRANCH   6   9
BRANCH   7  20
HETATM   20  O2  UNL     1      24.125   7.301  49.594  1.00  0.00    -0.354 OA
HETATM   21  C15 UNL     1      24.007   8.209  50.668  1.00  0.00     0.209 C 
ENDBRANCH   7  20
BRANCH   8  22
HETATM   22  N6  UNL     1      23.574   4.577  50.301  1.00  0.00    -0.386 N 
BRANCH  22  23
HETATM   23  C17 UNL     1      23.162   4.343  48.987  1.00  0.00     0.115 C 
HETATM   24  C18 UNL     1      23.003   2.875  48.638  1.00  0.00     0.026 C 
ENDBRANCH  22  23
BRANCH  22  25
HETATM   25  C19 UNL     1      22.627   4.761  51.308  1.00  0.00     0.138 C 
BRANCH  25  26
HETATM   26  C20 UNL     1      21.300   5.347  50.891  1.00  0.00     0.135 C 
BRANCH  26  27
HETATM   27  N7  UNL     1      20.277   4.415  51.258  1.00  0.00    -0.419 N 
HETATM   28  C21 UNL     1      19.504   3.921  50.153  1.00  0.00     0.142 C 
HETATM   29  C22 UNL     1      20.657   3.426  52.215  1.00  0.00     0.142 C 
ENDBRANCH  26  27
ENDBRANCH  25  26
ENDBRANCH  22  25
ENDBRANCH   8  22
BRANCH   1  30
HETATM   30  C2  UNL     1      25.528   2.073  52.125  1.00  0.00     0.064 C 
HETATM   31  C1  UNL     1      24.455   1.467  51.664  1.00  0.00     0.017 C 
ENDBRANCH   1  30
TORSDOF 8
ENDMDL
