MODEL 1
REMARK VINA RESULT:      -8.2      0.000      0.000
REMARK  5 active torsions:
REMARK  status: ('A' for Active; 'I' for Inactive)
REMARK    1  A    between atoms: C5_7  and  N3_8 
REMARK    2  A    between atoms: N3_8  and  C6_9 
REMARK    3  A    between atoms: C9_12  and  O1_13 
REMARK    4  A    between atoms: O1_13  and  C10_14 
REMARK    5  A    between atoms: C10_14  and  C11_15 
ROOT
HETATM    1  N1  UNL     1      29.051  -2.686  53.403  1.00  0.00    -0.191 NA
HETATM    2  C1  UNL     1      28.860  -1.536  53.456  1.00  0.00     0.101 C 
HETATM    3  C2  UNL     1      28.648  -0.107  53.518  1.00  0.00     0.064 A 
HETATM    4  C3  UNL     1      29.315   0.589  54.501  1.00  0.00     0.138 A 
HETATM    5  N2  UNL     1      29.100   1.935  54.539  1.00  0.00    -0.269 NA
HETATM    6  C4  UNL     1      28.277   2.492  53.646  1.00  0.00     0.145 A 
HETATM    7  C5  UNL     1      27.587   1.859  52.648  1.00  0.00     0.051 A 
HETATM    8  C19 UNL     1      27.809   0.515  52.619  1.00  0.00     0.055 A 
ENDROOT
BRANCH   7   9
HETATM    9  N3  UNL     1      26.746   2.489  51.718  1.00  0.00    -0.355 N 
HETATM   10  H3  UNL     1      27.270   3.097  51.014  1.00  0.00     0.166 HD
BRANCH   9  11
HETATM   11  C6  UNL     1      25.340   2.477  51.529  1.00  0.00     0.034 A 
HETATM   12  C7  UNL     1      24.506   1.958  52.499  1.00  0.00     0.032 A 
HETATM   13  C8  UNL     1      23.145   1.934  52.305  1.00  0.00     0.041 A 
HETATM   14  C9  UNL     1      22.545   2.414  51.163  1.00  0.00     0.090 A 
HETATM   15  C17 UNL     1      23.361   2.948  50.157  1.00  0.00     0.069 A 
HETATM   16 CL2  UNL     1      22.706   3.593  48.649  1.00  0.00    -0.081 Cl
HETATM   17  C18 UNL     1      24.735   2.957  50.384  1.00  0.00     0.056 A 
BRANCH  14  18
HETATM   18  O1  UNL     1      21.205   2.447  50.849  1.00  0.00    -0.345 OA
BRANCH  18  19
HETATM   19  C10 UNL     1      20.416   1.415  50.358  1.00  0.00     0.210 C 
BRANCH  19  20
HETATM   20  C11 UNL     1      19.777   0.562  51.377  1.00  0.00    -0.051 A 
HETATM   21  C12 UNL     1      20.138   0.036  52.555  1.00  0.00     0.006 A 
HETATM   22  C13 UNL     1      19.271  -0.800  53.375  1.00  0.00     0.014 A 
HETATM   23  C14 UNL     1      18.082  -1.096  52.970  1.00  0.00    -0.006 A 
HETATM   24  C15 UNL     1      17.660  -0.600  51.843  1.00  0.00     0.027 A 
HETATM   25 CL1  UNL     1      16.030  -0.954  51.321  1.00  0.00    -0.088 Cl
HETATM   26  C16 UNL     1      18.388   0.271  50.869  1.00  0.00     0.088 A 
ENDBRANCH  19  20
ENDBRANCH  18  19
ENDBRANCH  14  18
ENDBRANCH   9  11
ENDBRANCH   7   9
TORSDOF 5
ENDMDL
MODEL 2
REMARK VINA RESULT:      -8.0      1.758      2.197
REMARK  5 active torsions:
REMARK  status: ('A' for Active; 'I' for Inactive)
REMARK    1  A    between atoms: C5_7  and  N3_8 
REMARK    2  A    between atoms: N3_8  and  C6_9 
REMARK    3  A    between atoms: C9_12  and  O1_13 
REMARK    4  A    between atoms: O1_13  and  C10_14 
REMARK    5  A    between atoms: C10_14  and  C11_15 
ROOT
HETATM    1  N1  UNL     1      29.165  -2.699  53.405  1.00  0.00    -0.191 NA
HETATM    2  C1  UNL     1      28.888  -1.566  53.447  1.00  0.00     0.101 C 
HETATM    3  C2  UNL     1      28.566  -0.156  53.487  1.00  0.00     0.064 A 
HETATM    4  C3  UNL     1      29.402   0.661  54.213  1.00  0.00     0.138 A 
HETATM    5  N2  UNL     1      29.079   1.986  54.236  1.00  0.00    -0.269 NA
HETATM    6  C4  UNL     1      27.999   2.409  53.572  1.00  0.00     0.145 A 
HETATM    7  C5  UNL     1      27.132   1.650  52.834  1.00  0.00     0.051 A 
HETATM    8  C19 UNL     1      27.464   0.329  52.817  1.00  0.00     0.055 A 
ENDROOT
BRANCH   7   9
HETATM    9  N3  UNL     1      26.019   2.140  52.135  1.00  0.00    -0.355 N 
HETATM   10  H3  UNL     1      26.198   3.075  51.649  1.00  0.00     0.166 HD
BRANCH   9  11
HETATM   11  C6  UNL     1      24.704   1.641  51.945  1.00  0.00     0.034 A 
HETATM   12  C7  UNL     1      23.899   2.147  50.945  1.00  0.00     0.032 A 
HETATM   13  C8  UNL     1      22.620   1.672  50.774  1.00  0.00     0.041 A 
HETATM   14  C9  UNL     1      22.078   0.687  51.568  1.00  0.00     0.090 A 
HETATM   15  C17 UNL     1      22.868   0.149  52.594  1.00  0.00     0.069 A 
HETATM   16 CL2  UNL     1      22.281  -1.118  53.676  1.00  0.00    -0.081 Cl
HETATM   17  C18 UNL     1      24.157   0.653  52.740  1.00  0.00     0.056 A 
BRANCH  14  18
HETATM   18  O1  UNL     1      20.822   0.128  51.502  1.00  0.00    -0.345 OA
BRANCH  18  19
HETATM   19  C10 UNL     1      19.594   0.770  51.604  1.00  0.00     0.210 C 
BRANCH  19  20
HETATM   20  C11 UNL     1      18.442  -0.101  51.899  1.00  0.00    -0.051 A 
HETATM   21  C12 UNL     1      18.101  -0.946  52.881  1.00  0.00     0.006 A 
HETATM   22  C13 UNL     1      16.855  -1.700  52.912  1.00  0.00     0.014 A 
HETATM   23  C14 UNL     1      16.009  -1.598  51.943  1.00  0.00    -0.006 A 
HETATM   24  C15 UNL     1      16.269  -0.777  50.967  1.00  0.00     0.027 A 
HETATM   25 CL1  UNL     1      15.097  -0.594  49.683  1.00  0.00    -0.088 Cl
HETATM   26  C16 UNL     1      17.477   0.080  50.755  1.00  0.00     0.088 A 
ENDBRANCH  19  20
ENDBRANCH  18  19
ENDBRANCH  14  18
ENDBRANCH   9  11
ENDBRANCH   7   9
TORSDOF 5
ENDMDL
MODEL 3
REMARK VINA RESULT:      -7.8      4.683      8.509
REMARK  5 active torsions:
REMARK  status: ('A' for Active; 'I' for Inactive)
REMARK    1  A    between atoms: C5_7  and  N3_8 
REMARK    2  A    between atoms: N3_8  and  C6_9 
REMARK    3  A    between atoms: C9_12  and  O1_13 
REMARK    4  A    between atoms: O1_13  and  C10_14 
REMARK    5  A    between atoms: C10_14  and  C11_15 
ROOT
HETATM    1  N1  UNL     1      28.518   0.611  55.015  1.00  0.00    -0.191 NA
HETATM    2  C1  UNL     1      27.448   0.502  54.561  1.00  0.00     0.101 C 
HETATM    3  C2  UNL     1      26.113   0.372  54.022  1.00  0.00     0.064 A 
HETATM    4  C3  UNL     1      25.294  -0.580  54.587  1.00  0.00     0.138 A 
HETATM    5  N2  UNL     1      24.039  -0.684  54.062  1.00  0.00    -0.269 NA
HETATM    6  C4  UNL     1      23.681   0.120  53.057  1.00  0.00     0.145 A 
HETATM    7  C5  UNL     1      24.444   1.082  52.455  1.00  0.00     0.051 A 
HETATM    8  C19 UNL     1      25.695   1.178  52.986  1.00  0.00     0.055 A 
ENDROOT
BRANCH   7   9
HETATM    9  N3  UNL     1      24.019   1.919  51.412  1.00  0.00    -0.355 N 
HETATM   10  H3  UNL     1      23.108   1.602  50.955  1.00  0.00     0.166 HD
BRANCH   9  11
HETATM   11  C6  UNL     1      24.560   3.103  50.846  1.00  0.00     0.034 A 
HETATM   12  C7  UNL     1      25.607   3.036  49.949  1.00  0.00     0.032 A 
HETATM   13  C8  UNL     1      26.138   4.186  49.414  1.00  0.00     0.041 A 
HETATM   14  C9  UNL     1      25.671   5.442  49.731  1.00  0.00     0.090 A 
HETATM   15  C17 UNL     1      24.609   5.547  50.639  1.00  0.00     0.069 A 
HETATM   16 CL2  UNL     1      23.926   7.103  51.121  1.00  0.00    -0.081 Cl
HETATM   17  C18 UNL     1      24.094   4.364  51.162  1.00  0.00     0.056 A 
BRANCH  14  18
HETATM   18  O1  UNL     1      26.113   6.661  49.269  1.00  0.00    -0.345 OA
BRANCH  18  19
HETATM   19  C10 UNL     1      26.847   6.926  48.119  1.00  0.00     0.210 C 
BRANCH  19  20
HETATM   20  C11 UNL     1      28.310   6.812  48.256  1.00  0.00    -0.051 A 
HETATM   21  C12 UNL     1      29.218   5.840  48.096  1.00  0.00     0.006 A 
HETATM   22  C13 UNL     1      30.648   6.017  48.309  1.00  0.00     0.014 A 
HETATM   23  C14 UNL     1      31.110   7.157  48.701  1.00  0.00    -0.006 A 
HETATM   24  C15 UNL     1      30.284   8.150  48.855  1.00  0.00     0.027 A 
HETATM   25 CL1  UNL     1      30.916   9.710  49.330  1.00  0.00    -0.088 Cl
HETATM   26  C16 UNL     1      28.798   8.172  48.684  1.00  0.00     0.088 A 
ENDBRANCH  19  20
ENDBRANCH  18  19
ENDBRANCH  14  18
ENDBRANCH   9  11
ENDBRANCH   7   9
TORSDOF 5
ENDMDL
MODEL 4
REMARK VINA RESULT:      -7.8      3.092      5.955
REMARK  5 active torsions:
REMARK  status: ('A' for Active; 'I' for Inactive)
REMARK    1  A    between atoms: C5_7  and  N3_8 
REMARK    2  A    between atoms: N3_8  and  C6_9 
REMARK    3  A    between atoms: C9_12  and  O1_13 
REMARK    4  A    between atoms: O1_13  and  C10_14 
REMARK    5  A    between atoms: C10_14  and  C11_15 
ROOT
HETATM    1  N1  UNL     1      29.756   2.247  54.966  1.00  0.00    -0.191 NA
HETATM    2  C1  UNL     1      28.962   1.520  54.515  1.00  0.00     0.101 C 
HETATM    3  C2  UNL     1      27.983   0.603  53.976  1.00  0.00     0.064 A 
HETATM    4  C3  UNL     1      28.420  -0.654  53.627  1.00  0.00     0.138 A 
HETATM    5  N2  UNL     1      27.479  -1.502  53.121  1.00  0.00    -0.269 NA
HETATM    6  C4  UNL     1      26.217  -1.079  52.995  1.00  0.00     0.145 A 
HETATM    7  C5  UNL     1      25.721   0.152  53.323  1.00  0.00     0.051 A 
HETATM    8  C19 UNL     1      26.669   0.991  53.827  1.00  0.00     0.055 A 
ENDROOT
BRANCH   7   9
HETATM    9  N3  UNL     1      24.381   0.548  53.191  1.00  0.00    -0.355 N 
HETATM   10  H3  UNL     1      23.708  -0.018  53.797  1.00  0.00     0.166 HD
BRANCH   9  11
HETATM   11  C6  UNL     1      23.744   1.550  52.414  1.00  0.00     0.034 A 
HETATM   12  C7  UNL     1      23.647   2.845  52.882  1.00  0.00     0.032 A 
HETATM   13  C8  UNL     1      23.015   3.809  52.133  1.00  0.00     0.041 A 
HETATM   14  C9  UNL     1      22.458   3.551  50.901  1.00  0.00     0.090 A 
HETATM   15  C17 UNL     1      22.538   2.247  50.394  1.00  0.00     0.069 A 
HETATM   16 CL2  UNL     1      21.860   1.797  48.827  1.00  0.00    -0.081 Cl
HETATM   17  C18 UNL     1      23.184   1.294  51.178  1.00  0.00     0.056 A 
BRANCH  14  18
HETATM   18  O1  UNL     1      21.804   4.421  50.058  1.00  0.00    -0.345 OA
BRANCH  18  19
HETATM   19  C10 UNL     1      22.347   5.200  49.043  1.00  0.00     0.210 C 
BRANCH  19  20
HETATM   20  C11 UNL     1      23.503   6.030  49.427  1.00  0.00    -0.051 A 
HETATM   21  C12 UNL     1      23.686   7.166  50.113  1.00  0.00     0.006 A 
HETATM   22  C13 UNL     1      24.987   7.779  50.344  1.00  0.00     0.014 A 
HETATM   23  C14 UNL     1      26.054   7.241  49.856  1.00  0.00    -0.006 A 
HETATM   24  C15 UNL     1      25.949   6.124  49.196  1.00  0.00     0.027 A 
HETATM   25 CL1  UNL     1      27.400   5.366  48.583  1.00  0.00    -0.088 Cl
HETATM   26  C16 UNL     1      24.718   5.344  48.859  1.00  0.00     0.088 A 
ENDBRANCH  19  20
ENDBRANCH  18  19
ENDBRANCH  14  18
ENDBRANCH   9  11
ENDBRANCH   7   9
TORSDOF 5
ENDMDL
MODEL 5
REMARK VINA RESULT:      -7.6      2.523      4.052
REMARK  5 active torsions:
REMARK  status: ('A' for Active; 'I' for Inactive)
REMARK    1  A    between atoms: C5_7  and  N3_8 
REMARK    2  A    between atoms: N3_8  and  C6_9 
REMARK    3  A    between atoms: C9_12  and  O1_13 
REMARK    4  A    between atoms: O1_13  and  C10_14 
REMARK    5  A    between atoms: C10_14  and  C11_15 
ROOT
HETATM    1  N1  UNL     1      26.794   3.350  50.060  1.00  0.00    -0.191 NA
HETATM    2  C1  UNL     1      26.779   2.702  51.031  1.00  0.00     0.101 C 
HETATM    3  C2  UNL     1      26.757   1.921  52.248  1.00  0.00     0.064 A 
HETATM    4  C3  UNL     1      27.749   2.163  53.171  1.00  0.00     0.138 A 
HETATM    5  N2  UNL     1      27.708   1.415  54.310  1.00  0.00    -0.269 NA
HETATM    6  C4  UNL     1      26.735   0.512  54.466  1.00  0.00     0.145 A 
HETATM    7  C5  UNL     1      25.724   0.226  53.590  1.00  0.00     0.051 A 
HETATM    8  C19 UNL     1      25.774   0.978  52.456  1.00  0.00     0.055 A 
ENDROOT
BRANCH   7   9
HETATM    9  N3  UNL     1      24.710  -0.720  53.804  1.00  0.00    -0.355 N 
HETATM   10  H3  UNL     1      25.077  -1.683  54.083  1.00  0.00     0.166 HD
BRANCH   9  11
HETATM   11  C6  UNL     1      23.295  -0.649  53.724  1.00  0.00     0.034 A 
HETATM   12  C7  UNL     1      22.508  -1.173  54.730  1.00  0.00     0.032 A 
HETATM   13  C8  UNL     1      21.137  -1.116  54.640  1.00  0.00     0.041 A 
HETATM   14  C9  UNL     1      20.482  -0.549  53.572  1.00  0.00     0.090 A 
HETATM   15  C17 UNL     1      21.249  -0.007  52.531  1.00  0.00     0.069 A 
HETATM   16 CL2  UNL     1      20.520   0.746  51.110  1.00  0.00    -0.081 Cl
HETATM   17  C18 UNL     1      22.634  -0.081  52.652  1.00  0.00     0.056 A 
BRANCH  14  18
HETATM   18  O1  UNL     1      19.126  -0.430  53.364  1.00  0.00    -0.345 OA
BRANCH  18  19
HETATM   19  C10 UNL     1      18.162  -1.430  53.415  1.00  0.00     0.210 C 
BRANCH  19  20
HETATM   20  C11 UNL     1      17.111  -1.355  52.383  1.00  0.00    -0.051 A 
HETATM   21  C12 UNL     1      16.837  -0.553  51.346  1.00  0.00     0.006 A 
HETATM   22  C13 UNL     1      15.689  -0.722  50.465  1.00  0.00     0.014 A 
HETATM   23  C14 UNL     1      14.846  -1.677  50.674  1.00  0.00    -0.006 A 
HETATM   24  C15 UNL     1      15.064  -2.506  51.653  1.00  0.00     0.027 A 
HETATM   25 CL1  UNL     1      13.953  -3.832  51.901  1.00  0.00    -0.088 Cl
HETATM   26  C16 UNL     1      16.175  -2.504  52.656  1.00  0.00     0.088 A 
ENDBRANCH  19  20
ENDBRANCH  18  19
ENDBRANCH  14  18
ENDBRANCH   9  11
ENDBRANCH   7   9
TORSDOF 5
ENDMDL
MODEL 6
REMARK VINA RESULT:      -7.5      5.054      6.539
REMARK  5 active torsions:
REMARK  status: ('A' for Active; 'I' for Inactive)
REMARK    1  A    between atoms: C5_7  and  N3_8 
REMARK    2  A    between atoms: N3_8  and  C6_9 
REMARK    3  A    between atoms: C9_12  and  O1_13 
REMARK    4  A    between atoms: O1_13  and  C10_14 
REMARK    5  A    between atoms: C10_14  and  C11_15 
ROOT
HETATM    1  N1  UNL     1      32.440   6.711  45.904  1.00  0.00    -0.191 NA
HETATM    2  C1  UNL     1      31.591   7.094  46.607  1.00  0.00     0.101 C 
HETATM    3  C2  UNL     1      30.539   7.592  47.466  1.00  0.00     0.064 A 
HETATM    4  C3  UNL     1      30.827   8.689  48.246  1.00  0.00     0.138 A 
HETATM    5  N2  UNL     1      29.820   9.140  49.047  1.00  0.00    -0.269 NA
HETATM    6  C4  UNL     1      28.641   8.512  49.034  1.00  0.00     0.145 A 
HETATM    7  C5  UNL     1      28.293   7.421  48.284  1.00  0.00     0.051 A 
HETATM    8  C19 UNL     1      29.306   6.979  47.488  1.00  0.00     0.055 A 
ENDROOT
BRANCH   7   9
HETATM    9  N3  UNL     1      27.033   6.804  48.288  1.00  0.00    -0.355 N 
HETATM   10  H3  UNL     1      26.332   7.261  47.624  1.00  0.00     0.166 HD
BRANCH   9  11
HETATM   11  C6  UNL     1      26.507   5.693  48.997  1.00  0.00     0.034 A 
HETATM   12  C7  UNL     1      27.118   4.457  48.919  1.00  0.00     0.032 A 
HETATM   13  C8  UNL     1      26.595   3.381  49.596  1.00  0.00     0.041 A 
HETATM   14  C9  UNL     1      25.463   3.465  50.373  1.00  0.00     0.090 A 
HETATM   15  C17 UNL     1      24.816   4.704  50.475  1.00  0.00     0.069 A 
HETATM   16 CL2  UNL     1      23.356   4.934  51.442  1.00  0.00    -0.081 Cl
HETATM   17  C18 UNL     1      25.370   5.774  49.777  1.00  0.00     0.056 A 
BRANCH  14  18
HETATM   18  O1  UNL     1      24.843   2.469  51.095  1.00  0.00    -0.345 OA
BRANCH  18  19
HETATM   19  C10 UNL     1      25.210   1.956  52.333  1.00  0.00     0.210 C 
BRANCH  19  20
HETATM   20  C11 UNL     1      24.244   1.030  52.951  1.00  0.00    -0.051 A 
HETATM   21  C12 UNL     1      24.315  -0.124  53.627  1.00  0.00     0.006 A 
HETATM   22  C13 UNL     1      23.155  -0.843  54.137  1.00  0.00     0.014 A 
HETATM   23  C14 UNL     1      21.965  -0.389  53.926  1.00  0.00    -0.006 A 
HETATM   24  C15 UNL     1      21.826   0.739  53.293  1.00  0.00     0.027 A 
HETATM   25 CL1  UNL     1      20.218   1.384  53.058  1.00  0.00    -0.088 Cl
HETATM   26  C16 UNL     1      22.880   1.621  52.701  1.00  0.00     0.088 A 
ENDBRANCH  19  20
ENDBRANCH  18  19
ENDBRANCH  14  18
ENDBRANCH   9  11
ENDBRANCH   7   9
TORSDOF 5
ENDMDL
MODEL 7
REMARK VINA RESULT:      -7.5      2.580      5.202
REMARK  5 active torsions:
REMARK  status: ('A' for Active; 'I' for Inactive)
REMARK    1  A    between atoms: C5_7  and  N3_8 
REMARK    2  A    between atoms: N3_8  and  C6_9 
REMARK    3  A    between atoms: C9_12  and  O1_13 
REMARK    4  A    between atoms: O1_13  and  C10_14 
REMARK    5  A    between atoms: C10_14  and  C11_15 
ROOT
HETATM    1  N1  UNL     1      29.756   2.272  55.008  1.00  0.00    -0.191 NA
HETATM    2  C1  UNL     1      29.164   1.377  54.549  1.00  0.00     0.101 C 
HETATM    3  C2  UNL     1      28.439   0.254  53.997  1.00  0.00     0.064 A 
HETATM    4  C3  UNL     1      29.180  -0.811  53.537  1.00  0.00     0.138 A 
HETATM    5  N2  UNL     1      28.476  -1.859  53.022  1.00  0.00    -0.269 NA
HETATM    6  C4  UNL     1      27.141  -1.798  52.991  1.00  0.00     0.145 A 
HETATM    7  C5  UNL     1      26.349  -0.773  53.430  1.00  0.00     0.051 A 
HETATM    8  C19 UNL     1      27.062   0.268  53.943  1.00  0.00     0.055 A 
ENDROOT
BRANCH   7   9
HETATM    9  N3  UNL     1      24.946  -0.761  53.396  1.00  0.00    -0.355 N 
HETATM   10  H3  UNL     1      24.505  -1.697  53.660  1.00  0.00     0.166 HD
BRANCH   9  11
HETATM   11  C6  UNL     1      24.000   0.248  53.080  1.00  0.00     0.034 A 
HETATM   12  C7  UNL     1      24.404   1.554  52.887  1.00  0.00     0.032 A 
HETATM   13  C8  UNL     1      23.482   2.532  52.597  1.00  0.00     0.041 A 
HETATM   14  C9  UNL     1      22.135   2.276  52.481  1.00  0.00     0.090 A 
HETATM   15  C17 UNL     1      21.688   0.961  52.670  1.00  0.00     0.069 A 
HETATM   16 CL2  UNL     1      19.984   0.513  52.547  1.00  0.00    -0.081 Cl
HETATM   17  C18 UNL     1      22.647  -0.005  52.963  1.00  0.00     0.056 A 
BRANCH  14  18
HETATM   18  O1  UNL     1      21.117   3.159  52.196  1.00  0.00    -0.345 OA
BRANCH  18  19
HETATM   19  C10 UNL     1      20.759   3.680  50.959  1.00  0.00     0.210 C 
BRANCH  19  20
HETATM   20  C11 UNL     1      21.851   4.300  50.188  1.00  0.00    -0.051 A 
HETATM   21  C12 UNL     1      22.583   3.966  49.117  1.00  0.00     0.006 A 
HETATM   22  C13 UNL     1      23.634   4.802  48.554  1.00  0.00     0.014 A 
HETATM   23  C14 UNL     1      23.929   5.932  49.103  1.00  0.00    -0.006 A 
HETATM   24  C15 UNL     1      23.242   6.327  50.135  1.00  0.00     0.027 A 
HETATM   25 CL1  UNL     1      23.603   7.884  50.844  1.00  0.00    -0.088 Cl
HETATM   26  C16 UNL     1      22.134   5.623  50.852  1.00  0.00     0.088 A 
ENDBRANCH  19  20
ENDBRANCH  18  19
ENDBRANCH  14  18
ENDBRANCH   9  11
ENDBRANCH   7   9
TORSDOF 5
ENDMDL
MODEL 8
REMARK VINA RESULT:      -7.5      3.290      6.417
REMARK  5 active torsions:
REMARK  status: ('A' for Active; 'I' for Inactive)
REMARK    1  A    between atoms: C5_7  and  N3_8 
REMARK    2  A    between atoms: N3_8  and  C6_9 
REMARK    3  A    between atoms: C9_12  and  O1_13 
REMARK    4  A    between atoms: O1_13  and  C10_14 
REMARK    5  A    between atoms: C10_14  and  C11_15 
ROOT
HETATM    1  N1  UNL     1      26.978   0.038  54.375  1.00  0.00    -0.191 NA
HETATM    2  C1  UNL     1      25.854  -0.278  54.407  1.00  0.00     0.101 C 
HETATM    3  C2  UNL     1      24.460  -0.655  54.466  1.00  0.00     0.064 A 
HETATM    4  C3  UNL     1      24.045  -1.364  55.571  1.00  0.00     0.138 A 
HETATM    5  N2  UNL     1      22.726  -1.709  55.605  1.00  0.00    -0.269 NA
HETATM    6  C4  UNL     1      21.928  -1.351  54.594  1.00  0.00     0.145 A 
HETATM    7  C5  UNL     1      22.278  -0.649  53.473  1.00  0.00     0.051 A 
HETATM    8  C19 UNL     1      23.597  -0.310  53.449  1.00  0.00     0.055 A 
ENDROOT
BRANCH   7   9
HETATM    9  N3  UNL     1      21.402  -0.278  52.443  1.00  0.00    -0.355 N 
HETATM   10  H3  UNL     1      20.593  -0.962  52.304  1.00  0.00     0.166 HD
BRANCH   9  11
HETATM   11  C6  UNL     1      21.376   0.824  51.550  1.00  0.00     0.034 A 
HETATM   12  C7  UNL     1      21.234   0.624  50.191  1.00  0.00     0.032 A 
HETATM   13  C8  UNL     1      21.226   1.694  49.328  1.00  0.00     0.041 A 
HETATM   14  C9  UNL     1      21.354   2.997  49.753  1.00  0.00     0.090 A 
HETATM   15  C17 UNL     1      21.500   3.238  51.126  1.00  0.00     0.069 A 
HETATM   16 CL2  UNL     1      21.673   4.866  51.789  1.00  0.00    -0.081 Cl
HETATM   17  C18 UNL     1      21.505   2.133  51.973  1.00  0.00     0.056 A 
BRANCH  14  18
HETATM   18  O1  UNL     1      21.361   4.148  48.997  1.00  0.00    -0.345 OA
BRANCH  18  19
HETATM   19  C10 UNL     1      22.219   4.482  47.956  1.00  0.00     0.210 C 
BRANCH  19  20
HETATM   20  C11 UNL     1      23.473   5.147  48.353  1.00  0.00    -0.051 A 
HETATM   21  C12 UNL     1      23.961   6.393  48.295  1.00  0.00     0.006 A 
HETATM   22  C13 UNL     1      25.280   6.776  48.780  1.00  0.00     0.014 A 
HETATM   23  C14 UNL     1      26.071   5.887  49.281  1.00  0.00    -0.006 A 
HETATM   24  C15 UNL     1      25.651   4.660  49.386  1.00  0.00     0.027 A 
HETATM   25 CL1  UNL     1      26.699   3.468  50.118  1.00  0.00    -0.088 Cl
HETATM   26  C16 UNL     1      24.344   4.074  48.956  1.00  0.00     0.088 A 
ENDBRANCH  19  20
ENDBRANCH  18  19
ENDBRANCH  14  18
ENDBRANCH   9  11
ENDBRANCH   7   9
TORSDOF 5
ENDMDL
MODEL 9
REMARK VINA RESULT:      -7.5      5.294      7.162
REMARK  5 active torsions:
REMARK  status: ('A' for Active; 'I' for Inactive)
REMARK    1  A    between atoms: C5_7  and  N3_8 
REMARK    2  A    between atoms: N3_8  and  C6_9 
REMARK    3  A    between atoms: C9_12  and  O1_13 
REMARK    4  A    between atoms: O1_13  and  C10_14 
REMARK    5  A    between atoms: C10_14  and  C11_15 
ROOT
HETATM    1  N1  UNL     1      28.115  12.282  48.990  1.00  0.00    -0.191 NA
HETATM    2  C1  UNL     1      28.564  11.209  48.883  1.00  0.00     0.101 C 
HETATM    3  C2  UNL     1      29.127   9.882  48.775  1.00  0.00     0.064 A 
HETATM    4  C3  UNL     1      30.477   9.748  49.005  1.00  0.00     0.138 A 
HETATM    5  N2  UNL     1      30.985   8.487  48.897  1.00  0.00    -0.269 NA
HETATM    6  C4  UNL     1      30.169   7.477  48.583  1.00  0.00     0.145 A 
HETATM    7  C5  UNL     1      28.824   7.543  48.344  1.00  0.00     0.051 A 
HETATM    8  C19 UNL     1      28.327   8.807  48.453  1.00  0.00     0.055 A 
ENDROOT
BRANCH   7   9
HETATM    9  N3  UNL     1      28.000   6.450  48.035  1.00  0.00    -0.355 N 
HETATM   10  H3  UNL     1      28.122   6.094  47.035  1.00  0.00     0.166 HD
BRANCH   9  11
HETATM   11  C6  UNL     1      27.039   5.726  48.786  1.00  0.00     0.034 A 
HETATM   12  C7  UNL     1      27.166   4.361  48.957  1.00  0.00     0.032 A 
HETATM   13  C8  UNL     1      26.224   3.661  49.673  1.00  0.00     0.041 A 
HETATM   14  C9  UNL     1      25.127   4.259  50.249  1.00  0.00     0.090 A 
HETATM   15  C17 UNL     1      24.966   5.643  50.096  1.00  0.00     0.069 A 
HETATM   16 CL2  UNL     1      23.599   6.520  50.790  1.00  0.00    -0.081 Cl
HETATM   17  C18 UNL     1      25.937   6.323  49.365  1.00  0.00     0.056 A 
BRANCH  14  18
HETATM   18  O1  UNL     1      24.120   3.675  50.985  1.00  0.00    -0.345 OA
BRANCH  18  19
HETATM   19  C10 UNL     1      24.090   3.434  52.353  1.00  0.00     0.210 C 
BRANCH  19  20
HETATM   20  C11 UNL     1      23.975   2.019  52.749  1.00  0.00    -0.051 A 
HETATM   21  C12 UNL     1      24.826   1.048  53.105  1.00  0.00     0.006 A 
HETATM   22  C13 UNL     1      24.419  -0.306  53.456  1.00  0.00     0.014 A 
HETATM   23  C14 UNL     1      23.173  -0.641  53.411  1.00  0.00    -0.006 A 
HETATM   24  C15 UNL     1      22.291   0.261  53.093  1.00  0.00     0.027 A 
HETATM   25 CL1  UNL     1      20.598  -0.177  53.089  1.00  0.00    -0.088 Cl
HETATM   26  C16 UNL     1      22.505   1.690  52.708  1.00  0.00     0.088 A 
ENDBRANCH  19  20
ENDBRANCH  18  19
ENDBRANCH  14  18
ENDBRANCH   9  11
ENDBRANCH   7   9
TORSDOF 5
ENDMDL
