MODEL 1
REMARK VINA RESULT:      -7.9      0.000      0.000
REMARK  5 active torsions:
REMARK  status: ('A' for Active; 'I' for Inactive)
REMARK    1  A    between atoms: C4_5  and  C5_6 
REMARK    2  A    between atoms: C5_6  and  N1_7 
REMARK    3  A    between atoms: C7_10  and  N3_11 
REMARK    4  A    between atoms: N3_11  and  N4_12 
REMARK    5  A    between atoms: N4_12  and  C8_13 
ROOT
HETATM    1  N1  UNL     1      23.349   0.662  53.028  1.00  0.00    -0.265 N 
HETATM    2  C6  UNL     1      23.450  -0.415  53.961  1.00  0.00     0.248 A 
HETATM    3  N2  UNL     1      22.414  -1.124  54.326  1.00  0.00    -0.053 NA
HETATM    4  C7  UNL     1      21.110  -0.833  53.785  1.00  0.00     0.760 A 
HETATM    5  N5  UNL     1      20.951   0.136  52.930  1.00  0.00     0.036 NA
HETATM    6  N6  UNL     1      22.047   0.914  52.522  1.00  0.00    -0.201 N 
HETATM    7  H12 UNL     1      21.947   1.713  51.824  1.00  0.00     0.211 HD
ENDROOT
BRANCH   4   8
HETATM    8  N3  UNL     1      19.986  -1.611  54.175  1.00  0.00    -0.127 N 
HETATM    9  H6  UNL     1      20.189  -2.465  54.781  1.00  0.00     0.206 HD
BRANCH   8  10
HETATM   10  N4  UNL     1      18.707  -1.211  53.740  1.00  0.00    -0.286 N 
HETATM   11  H7  UNL     1      18.351  -0.243  53.606  1.00  0.00     0.187 HD
BRANCH  10  12
HETATM   12  C8  UNL     1      17.660  -2.105  53.410  1.00  0.00     0.050 A 
HETATM   13  C9  UNL     1      17.623  -3.421  53.766  1.00  0.00     0.031 A 
HETATM   14  C10 UNL     1      16.536  -4.169  53.358  1.00  0.00     0.004 A 
HETATM   15  C11 UNL     1      15.520  -3.599  52.613  1.00  0.00     0.019 A 
HETATM   16  C12 UNL     1      15.575  -2.261  52.260  1.00  0.00     0.013 A 
HETATM   17 BR1  UNL     1      14.144  -1.556  51.234  1.00  0.00    -0.051 Br
HETATM   18  C13 UNL     1      16.654  -1.486  52.656  1.00  0.00     0.050 A 
ENDBRANCH  10  12
ENDBRANCH   8  10
ENDBRANCH   4   8
BRANCH   1  19
HETATM   19  C5  UNL     1      24.506   1.404  52.627  1.00  0.00     0.190 C 
BRANCH  19  20
HETATM   20  C4  UNL     1      25.799   0.858  53.035  1.00  0.00    -0.038 A 
HETATM   21  C3  UNL     1      26.204  -0.253  52.284  1.00  0.00     0.010 A 
HETATM   22  C2  UNL     1      27.366  -0.949  52.460  1.00  0.00     0.024 A 
HETATM   23  C1  UNL     1      28.220  -0.518  53.466  1.00  0.00     0.034 A 
HETATM   24 CL1  UNL     1      29.722  -1.315  53.788  1.00  0.00    -0.084 Cl
HETATM   25  C15 UNL     1      27.865   0.557  54.220  1.00  0.00     0.024 A 
HETATM   26  C14 UNL     1      26.677   1.273  54.044  1.00  0.00     0.010 A 
ENDBRANCH  19  20
ENDBRANCH   1  19
TORSDOF 5
ENDMDL
MODEL 2
REMARK VINA RESULT:      -7.9      6.207      9.017
REMARK  5 active torsions:
REMARK  status: ('A' for Active; 'I' for Inactive)
REMARK    1  A    between atoms: C4_5  and  C5_6 
REMARK    2  A    between atoms: C5_6  and  N1_7 
REMARK    3  A    between atoms: C7_10  and  N3_11 
REMARK    4  A    between atoms: N3_11  and  N4_12 
REMARK    5  A    between atoms: N4_12  and  C8_13 
ROOT
HETATM    1  N1  UNL     1      24.230   1.812  52.688  1.00  0.00    -0.265 N 
HETATM    2  C6  UNL     1      24.107   1.781  51.266  1.00  0.00     0.248 A 
HETATM    3  N2  UNL     1      23.946   2.867  50.554  1.00  0.00    -0.053 NA
HETATM    4  C7  UNL     1      23.887   4.154  51.200  1.00  0.00     0.760 A 
HETATM    5  N5  UNL     1      23.993   4.249  52.494  1.00  0.00     0.036 NA
HETATM    6  N6  UNL     1      24.166   3.099  53.282  1.00  0.00    -0.201 N 
HETATM    7  H12 UNL     1      24.257   3.146  54.342  1.00  0.00     0.211 HD
ENDROOT
BRANCH   4   8
HETATM    8  N3  UNL     1      23.721   5.334  50.424  1.00  0.00    -0.127 N 
HETATM    9  H6  UNL     1      23.200   6.139  50.891  1.00  0.00     0.206 HD
BRANCH   8  10
HETATM   10  N4  UNL     1      24.244   5.357  49.116  1.00  0.00    -0.286 N 
HETATM   11  H7  UNL     1      23.735   5.200  48.222  1.00  0.00     0.187 HD
BRANCH  10  12
HETATM   12  C8  UNL     1      25.602   5.603  48.803  1.00  0.00     0.050 A 
HETATM   13  C9  UNL     1      26.614   4.707  48.985  1.00  0.00     0.031 A 
HETATM   14  C10 UNL     1      27.893   5.099  48.640  1.00  0.00     0.004 A 
HETATM   15  C11 UNL     1      28.135   6.361  48.128  1.00  0.00     0.019 A 
HETATM   16  C12 UNL     1      27.096   7.258  47.950  1.00  0.00     0.013 A 
HETATM   17 BR1  UNL     1      27.511   8.969  47.246  1.00  0.00    -0.051 Br
HETATM   18  C13 UNL     1      25.801   6.890  48.287  1.00  0.00     0.050 A 
ENDBRANCH  10  12
ENDBRANCH   8  10
ENDBRANCH   4   8
BRANCH   1  19
HETATM   19  C5  UNL     1      24.433   0.609  53.438  1.00  0.00     0.190 C 
BRANCH  19  20
HETATM   20  C4  UNL     1      25.782   0.048  53.413  1.00  0.00    -0.038 A 
HETATM   21  C3  UNL     1      26.671   0.681  54.291  1.00  0.00     0.010 A 
HETATM   22  C2  UNL     1      27.986   0.353  54.461  1.00  0.00     0.024 A 
HETATM   23  C1  UNL     1      28.485  -0.696  53.701  1.00  0.00     0.034 A 
HETATM   24 CL1  UNL     1      30.133  -1.207  53.825  1.00  0.00    -0.084 Cl
HETATM   25  C15 UNL     1      27.655  -1.338  52.834  1.00  0.00     0.024 A 
HETATM   26  C14 UNL     1      26.308  -1.006  52.656  1.00  0.00     0.010 A 
ENDBRANCH  19  20
ENDBRANCH   1  19
TORSDOF 5
ENDMDL
MODEL 3
REMARK VINA RESULT:      -7.8      5.435      8.268
REMARK  5 active torsions:
REMARK  status: ('A' for Active; 'I' for Inactive)
REMARK    1  A    between atoms: C4_5  and  C5_6 
REMARK    2  A    between atoms: C5_6  and  N1_7 
REMARK    3  A    between atoms: C7_10  and  N3_11 
REMARK    4  A    between atoms: N3_11  and  N4_12 
REMARK    5  A    between atoms: N4_12  and  C8_13 
ROOT
HETATM    1  N1  UNL     1      23.616   1.610  53.058  1.00  0.00    -0.265 N 
HETATM    2  C6  UNL     1      22.410   1.848  52.332  1.00  0.00     0.248 A 
HETATM    3  N2  UNL     1      22.044   3.047  51.958  1.00  0.00    -0.053 NA
HETATM    4  C7  UNL     1      22.865   4.188  52.276  1.00  0.00     0.760 A 
HETATM    5  N5  UNL     1      23.977   4.037  52.936  1.00  0.00     0.036 NA
HETATM    6  N6  UNL     1      24.394   2.761  53.350  1.00  0.00    -0.201 N 
HETATM    7  H12 UNL     1      25.299   2.607  53.890  1.00  0.00     0.211 HD
ENDROOT
BRANCH   4   8
HETATM    8  N3  UNL     1      22.470   5.488  51.861  1.00  0.00    -0.127 N 
HETATM    9  H6  UNL     1      21.424   5.645  51.726  1.00  0.00     0.206 HD
BRANCH   8  10
HETATM   10  N4  UNL     1      23.469   6.462  51.658  1.00  0.00    -0.286 N 
HETATM   11  H7  UNL     1      23.890   7.102  52.362  1.00  0.00     0.187 HD
BRANCH  10  12
HETATM   12  C8  UNL     1      24.074   6.735  50.408  1.00  0.00     0.050 A 
HETATM   13  C9  UNL     1      23.579   7.603  49.480  1.00  0.00     0.031 A 
HETATM   14  C10 UNL     1      24.281   7.754  48.300  1.00  0.00     0.004 A 
HETATM   15  C11 UNL     1      25.447   7.048  48.071  1.00  0.00     0.019 A 
HETATM   16  C12 UNL     1      25.935   6.170  49.024  1.00  0.00     0.013 A 
HETATM   17 BR1  UNL     1      27.539   5.236  48.632  1.00  0.00    -0.051 Br
HETATM   18  C13 UNL     1      25.252   5.999  50.219  1.00  0.00     0.050 A 
ENDBRANCH  10  12
ENDBRANCH   8  10
ENDBRANCH   4   8
BRANCH   1  19
HETATM   19  C5  UNL     1      24.005   0.283  53.430  1.00  0.00     0.190 C 
BRANCH  19  20
HETATM   20  C4  UNL     1      25.432   0.066  53.660  1.00  0.00    -0.038 A 
HETATM   21  C3  UNL     1      26.095  -0.518  52.574  1.00  0.00     0.010 A 
HETATM   22  C2  UNL     1      27.425  -0.826  52.529  1.00  0.00     0.024 A 
HETATM   23  C1  UNL     1      28.185  -0.535  53.653  1.00  0.00     0.034 A 
HETATM   24 CL1  UNL     1      29.880  -0.876  53.720  1.00  0.00    -0.084 Cl
HETATM   25  C15 UNL     1      27.580   0.033  54.731  1.00  0.00     0.024 A 
HETATM   26  C14 UNL     1      26.219   0.351  54.783  1.00  0.00     0.010 A 
ENDBRANCH  19  20
ENDBRANCH   1  19
TORSDOF 5
ENDMDL
MODEL 4
REMARK VINA RESULT:      -7.8      7.387     11.233
REMARK  5 active torsions:
REMARK  status: ('A' for Active; 'I' for Inactive)
REMARK    1  A    between atoms: C4_5  and  C5_6 
REMARK    2  A    between atoms: C5_6  and  N1_7 
REMARK    3  A    between atoms: C7_10  and  N3_11 
REMARK    4  A    between atoms: N3_11  and  N4_12 
REMARK    5  A    between atoms: N4_12  and  C8_13 
ROOT
HETATM    1  N1  UNL     1      25.554   3.075  51.120  1.00  0.00    -0.265 N 
HETATM    2  C6  UNL     1      26.535   2.864  50.104  1.00  0.00     0.248 A 
HETATM    3  N2  UNL     1      26.908   3.813  49.284  1.00  0.00    -0.053 NA
HETATM    4  C7  UNL     1      26.326   5.128  49.385  1.00  0.00     0.760 A 
HETATM    5  N5  UNL     1      25.427   5.385  50.291  1.00  0.00     0.036 NA
HETATM    6  N6  UNL     1      25.007   4.384  51.184  1.00  0.00    -0.201 N 
HETATM    7  H12 UNL     1      24.274   4.564  51.935  1.00  0.00     0.211 HD
ENDROOT
BRANCH   4   8
HETATM    8  N3  UNL     1      26.740   6.160  48.500  1.00  0.00    -0.127 N 
HETATM    9  H6  UNL     1      26.150   6.297  47.622  1.00  0.00     0.206 HD
BRANCH   8  10
HETATM   10  N4  UNL     1      27.882   6.916  48.835  1.00  0.00    -0.286 N 
HETATM   11  H7  UNL     1      28.025   7.523  49.667  1.00  0.00     0.187 HD
BRANCH  10  12
HETATM   12  C8  UNL     1      29.060   6.972  48.052  1.00  0.00     0.050 A 
HETATM   13  C9  UNL     1      29.382   7.993  47.207  1.00  0.00     0.031 A 
HETATM   14  C10 UNL     1      30.564   7.896  46.500  1.00  0.00     0.004 A 
HETATM   15  C11 UNL     1      31.393   6.799  46.648  1.00  0.00     0.019 A 
HETATM   16  C12 UNL     1      31.051   5.771  47.510  1.00  0.00     0.013 A 
HETATM   17 BR1  UNL     1      32.239   4.300  47.653  1.00  0.00    -0.051 Br
HETATM   18  C13 UNL     1      29.869   5.842  48.233  1.00  0.00     0.050 A 
ENDBRANCH  10  12
ENDBRANCH   8  10
ENDBRANCH   4   8
BRANCH   1  19
HETATM   19  C5  UNL     1      25.185   2.025  52.020  1.00  0.00     0.190 C 
BRANCH  19  20
HETATM   20  C4  UNL     1      26.254   1.115  52.428  1.00  0.00    -0.038 A 
HETATM   21  C3  UNL     1      27.350   1.761  53.014  1.00  0.00     0.010 A 
HETATM   22  C2  UNL     1      28.477   1.145  53.480  1.00  0.00     0.024 A 
HETATM   23  C1  UNL     1      28.542  -0.236  53.365  1.00  0.00     0.034 A 
HETATM   24 CL1  UNL     1      29.916  -1.132  53.917  1.00  0.00    -0.084 Cl
HETATM   25  C15 UNL     1      27.499  -0.904  52.801  1.00  0.00     0.024 A 
HETATM   26  C14 UNL     1      26.343  -0.278  52.322  1.00  0.00     0.010 A 
ENDBRANCH  19  20
ENDBRANCH   1  19
TORSDOF 5
ENDMDL
MODEL 5
REMARK VINA RESULT:      -7.7      7.468     11.091
REMARK  5 active torsions:
REMARK  status: ('A' for Active; 'I' for Inactive)
REMARK    1  A    between atoms: C4_5  and  C5_6 
REMARK    2  A    between atoms: C5_6  and  N1_7 
REMARK    3  A    between atoms: C7_10  and  N3_11 
REMARK    4  A    between atoms: N3_11  and  N4_12 
REMARK    5  A    between atoms: N4_12  and  C8_13 
ROOT
HETATM    1  N1  UNL     1      25.314   2.983  51.264  1.00  0.00    -0.265 N 
HETATM    2  C6  UNL     1      26.272   3.093  50.210  1.00  0.00     0.248 A 
HETATM    3  N2  UNL     1      26.458   4.205  49.548  1.00  0.00    -0.053 NA
HETATM    4  C7  UNL     1      25.685   5.379  49.870  1.00  0.00     0.760 A 
HETATM    5  N5  UNL     1      24.797   5.344  50.820  1.00  0.00     0.036 NA
HETATM    6  N6  UNL     1      24.575   4.162  51.548  1.00  0.00    -0.201 N 
HETATM    7  H12 UNL     1      23.856   4.103  52.331  1.00  0.00     0.211 HD
ENDROOT
BRANCH   4   8
HETATM    8  N3  UNL     1      25.896   6.589  49.155  1.00  0.00    -0.127 N 
HETATM    9  H6  UNL     1      25.221   6.791  48.355  1.00  0.00     0.206 HD
BRANCH   8  10
HETATM   10  N4  UNL     1      26.966   7.421  49.543  1.00  0.00    -0.286 N 
HETATM   11  H7  UNL     1      27.089   7.923  50.446  1.00  0.00     0.187 HD
BRANCH  10  12
HETATM   12  C8  UNL     1      28.081   7.721  48.726  1.00  0.00     0.050 A 
HETATM   13  C9  UNL     1      28.538   6.927  47.715  1.00  0.00     0.031 A 
HETATM   14  C10 UNL     1      29.648   7.352  47.013  1.00  0.00     0.004 A 
HETATM   15  C11 UNL     1      30.274   8.545  47.326  1.00  0.00     0.019 A 
HETATM   16  C12 UNL     1      29.797   9.338  48.356  1.00  0.00     0.013 A 
HETATM   17 BR1  UNL     1      30.714  10.957  48.725  1.00  0.00    -0.051 Br
HETATM   18  C13 UNL     1      28.683   8.936  49.078  1.00  0.00     0.050 A 
ENDBRANCH  10  12
ENDBRANCH   8  10
ENDBRANCH   4   8
BRANCH   1  19
HETATM   19  C5  UNL     1      25.151   1.759  51.990  1.00  0.00     0.190 C 
BRANCH  19  20
HETATM   20  C4  UNL     1      26.373   1.135  52.491  1.00  0.00    -0.038 A 
HETATM   21  C3  UNL     1      26.398  -0.257  52.341  1.00  0.00     0.010 A 
HETATM   22  C2  UNL     1      27.419  -1.079  52.725  1.00  0.00     0.024 A 
HETATM   23  C1  UNL     1      28.527  -0.486  53.314  1.00  0.00     0.034 A 
HETATM   24 CL1  UNL     1      29.885  -1.418  53.844  1.00  0.00    -0.084 Cl
HETATM   25  C15 UNL     1      28.544   0.865  53.480  1.00  0.00     0.024 A 
HETATM   26  C14 UNL     1      27.502   1.711  53.088  1.00  0.00     0.010 A 
ENDBRANCH  19  20
ENDBRANCH   1  19
TORSDOF 5
ENDMDL
MODEL 6
REMARK VINA RESULT:      -7.6      4.516      9.019
REMARK  5 active torsions:
REMARK  status: ('A' for Active; 'I' for Inactive)
REMARK    1  A    between atoms: C4_5  and  C5_6 
REMARK    2  A    between atoms: C5_6  and  N1_7 
REMARK    3  A    between atoms: C7_10  and  N3_11 
REMARK    4  A    between atoms: N3_11  and  N4_12 
REMARK    5  A    between atoms: N4_12  and  C8_13 
ROOT
HETATM    1  N1  UNL     1      21.130   2.416  51.421  1.00  0.00    -0.265 N 
HETATM    2  C6  UNL     1      21.453   3.564  52.206  1.00  0.00     0.248 A 
HETATM    3  N2  UNL     1      22.685   3.967  52.381  1.00  0.00    -0.053 NA
HETATM    4  C7  UNL     1      23.776   3.248  51.773  1.00  0.00     0.760 A 
HETATM    5  N5  UNL     1      23.548   2.193  51.046  1.00  0.00     0.036 NA
HETATM    6  N6  UNL     1      22.234   1.737  50.841  1.00  0.00    -0.201 N 
HETATM    7  H12 UNL     1      22.017   0.878  50.250  1.00  0.00     0.211 HD
ENDROOT
BRANCH   4   8
HETATM    8  N3  UNL     1      25.113   3.693  51.957  1.00  0.00    -0.127 N 
HETATM    9  H6  UNL     1      25.239   4.607  52.492  1.00  0.00     0.206 HD
BRANCH   8  10
HETATM   10  N4  UNL     1      26.161   2.914  51.427  1.00  0.00    -0.286 N 
HETATM   11  H7  UNL     1      26.496   2.879  50.442  1.00  0.00     0.187 HD
BRANCH  10  12
HETATM   12  C8  UNL     1      26.950   2.016  52.184  1.00  0.00     0.050 A 
HETATM   13  C9  UNL     1      27.955   2.387  53.028  1.00  0.00     0.031 A 
HETATM   14  C10 UNL     1      28.642   1.389  53.691  1.00  0.00     0.004 A 
HETATM   15  C11 UNL     1      28.320   0.058  53.502  1.00  0.00     0.019 A 
HETATM   16  C12 UNL     1      27.297  -0.301  52.641  1.00  0.00     0.013 A 
HETATM   17 BR1  UNL     1      26.918  -2.148  52.435  1.00  0.00    -0.051 Br
HETATM   18  C13 UNL     1      26.589   0.680  51.963  1.00  0.00     0.050 A 
ENDBRANCH  10  12
ENDBRANCH   8  10
ENDBRANCH   4   8
BRANCH   1  19
HETATM   19  C5  UNL     1      19.770   2.013  51.224  1.00  0.00     0.190 C 
BRANCH  19  20
HETATM   20  C4  UNL     1      19.341   0.809  51.934  1.00  0.00    -0.038 A 
HETATM   21  C3  UNL     1      18.094   0.324  51.519  1.00  0.00     0.010 A 
HETATM   22  C2  UNL     1      17.467  -0.781  52.019  1.00  0.00     0.024 A 
HETATM   23  C1  UNL     1      18.119  -1.485  53.021  1.00  0.00     0.034 A 
HETATM   24 CL1  UNL     1      17.429  -2.902  53.736  1.00  0.00    -0.084 Cl
HETATM   25  C15 UNL     1      19.333  -1.049  53.455  1.00  0.00     0.024 A 
HETATM   26  C14 UNL     1      19.980   0.083  52.947  1.00  0.00     0.010 A 
ENDBRANCH  19  20
ENDBRANCH   1  19
TORSDOF 5
ENDMDL
MODEL 7
REMARK VINA RESULT:      -7.6      6.367     10.448
REMARK  5 active torsions:
REMARK  status: ('A' for Active; 'I' for Inactive)
REMARK    1  A    between atoms: C4_5  and  C5_6 
REMARK    2  A    between atoms: C5_6  and  N1_7 
REMARK    3  A    between atoms: C7_10  and  N3_11 
REMARK    4  A    between atoms: N3_11  and  N4_12 
REMARK    5  A    between atoms: N4_12  and  C8_13 
ROOT
HETATM    1  N1  UNL     1      24.751   1.472  52.488  1.00  0.00    -0.265 N 
HETATM    2  C6  UNL     1      25.964   1.414  51.737  1.00  0.00     0.248 A 
HETATM    3  N2  UNL     1      26.384   2.415  51.008  1.00  0.00    -0.053 NA
HETATM    4  C7  UNL     1      25.617   3.634  50.940  1.00  0.00     0.760 A 
HETATM    5  N5  UNL     1      24.502   3.750  51.601  1.00  0.00     0.036 NA
HETATM    6  N6  UNL     1      24.027   2.690  52.391  1.00  0.00    -0.201 N 
HETATM    7  H12 UNL     1      23.119   2.756  52.944  1.00  0.00     0.211 HD
ENDROOT
BRANCH   4   8
HETATM    8  N3  UNL     1      26.081   4.724  50.155  1.00  0.00    -0.127 N 
HETATM    9  H6  UNL     1      25.526   5.632  50.231  1.00  0.00     0.206 HD
BRANCH   8  10
HETATM   10  N4  UNL     1      27.217   4.533  49.343  1.00  0.00    -0.286 N 
HETATM   11  H7  UNL     1      27.763   3.659  49.203  1.00  0.00     0.187 HD
BRANCH  10  12
HETATM   12  C8  UNL     1      27.820   5.549  48.563  1.00  0.00     0.050 A 
HETATM   13  C9  UNL     1      29.123   5.546  48.159  1.00  0.00     0.031 A 
HETATM   14  C10 UNL     1      29.568   6.617  47.410  1.00  0.00     0.004 A 
HETATM   15  C11 UNL     1      28.718   7.657  47.082  1.00  0.00     0.019 A 
HETATM   16  C12 UNL     1      27.399   7.644  47.501  1.00  0.00     0.013 A 
HETATM   17 BR1  UNL     1      26.299   9.110  47.013  1.00  0.00    -0.051 Br
HETATM   18  C13 UNL     1      26.924   6.581  48.254  1.00  0.00     0.050 A 
ENDBRANCH  10  12
ENDBRANCH   8  10
ENDBRANCH   4   8
BRANCH   1  19
HETATM   19  C5  UNL     1      24.329   0.369  53.298  1.00  0.00     0.190 C 
BRANCH  19  20
HETATM   20  C4  UNL     1      22.917   0.002  53.209  1.00  0.00    -0.038 A 
HETATM   21  C3  UNL     1      22.443  -0.691  54.330  1.00  0.00     0.010 A 
HETATM   22  C2  UNL     1      21.167  -1.148  54.500  1.00  0.00     0.024 A 
HETATM   23  C1  UNL     1      20.262  -0.904  53.476  1.00  0.00     0.034 A 
HETATM   24 CL1  UNL     1      18.617  -1.431  53.571  1.00  0.00    -0.084 Cl
HETATM   25  C15 UNL     1      20.681  -0.234  52.368  1.00  0.00     0.024 A 
HETATM   26  C14 UNL     1      21.986   0.235  52.189  1.00  0.00     0.010 A 
ENDBRANCH  19  20
ENDBRANCH   1  19
TORSDOF 5
ENDMDL
MODEL 8
REMARK VINA RESULT:      -7.5      6.709      8.969
REMARK  5 active torsions:
REMARK  status: ('A' for Active; 'I' for Inactive)
REMARK    1  A    between atoms: C4_5  and  C5_6 
REMARK    2  A    between atoms: C5_6  and  N1_7 
REMARK    3  A    between atoms: C7_10  and  N3_11 
REMARK    4  A    between atoms: N3_11  and  N4_12 
REMARK    5  A    between atoms: N4_12  and  C8_13 
ROOT
HETATM    1  N1  UNL     1      27.580   6.073  48.449  1.00  0.00    -0.265 N 
HETATM    2  C6  UNL     1      26.510   6.708  49.149  1.00  0.00     0.248 A 
HETATM    3  N2  UNL     1      25.651   6.036  49.872  1.00  0.00    -0.053 NA
HETATM    4  C7  UNL     1      25.763   4.603  49.984  1.00  0.00     0.760 A 
HETATM    5  N5  UNL     1      26.716   3.965  49.369  1.00  0.00     0.036 NA
HETATM    6  N6  UNL     1      27.652   4.662  48.586  1.00  0.00    -0.201 N 
HETATM    7  H12 UNL     1      28.443   4.166  48.073  1.00  0.00     0.211 HD
ENDROOT
BRANCH   4   8
HETATM    8  N3  UNL     1      24.834   3.876  50.777  1.00  0.00    -0.127 N 
HETATM    9  H6  UNL     1      23.850   3.772  50.379  1.00  0.00     0.206 HD
BRANCH   8  10
HETATM   10  N4  UNL     1      25.268   3.356  52.014  1.00  0.00    -0.286 N 
HETATM   11  H7  UNL     1      25.527   3.884  52.873  1.00  0.00     0.187 HD
BRANCH  10  12
HETATM   12  C8  UNL     1      25.431   1.977  52.287  1.00  0.00     0.050 A 
HETATM   13  C9  UNL     1      26.527   1.243  51.943  1.00  0.00     0.031 A 
HETATM   14  C10 UNL     1      26.533  -0.099  52.271  1.00  0.00     0.004 A 
HETATM   15  C11 UNL     1      25.460  -0.675  52.926  1.00  0.00     0.019 A 
HETATM   16  C12 UNL     1      24.355   0.086  53.267  1.00  0.00     0.013 A 
HETATM   17 BR1  UNL     1      22.924  -0.780  54.161  1.00  0.00    -0.051 Br
HETATM   18  C13 UNL     1      24.322   1.436  52.952  1.00  0.00     0.050 A 
ENDBRANCH  10  12
ENDBRANCH   8  10
ENDBRANCH   4   8
BRANCH   1  19
HETATM   19  C5  UNL     1      28.521   6.837  47.687  1.00  0.00     0.190 C 
BRANCH  19  20
HETATM   20  C4  UNL     1      29.920   6.743  48.101  1.00  0.00    -0.038 A 
HETATM   21  C3  UNL     1      30.560   5.577  47.661  1.00  0.00     0.010 A 
HETATM   22  C2  UNL     1      31.861   5.244  47.910  1.00  0.00     0.024 A 
HETATM   23  C1  UNL     1      32.614   6.137  48.661  1.00  0.00     0.034 A 
HETATM   24 CL1  UNL     1      34.273   5.831  49.044  1.00  0.00    -0.084 Cl
HETATM   25  C15 UNL     1      32.031   7.282  49.108  1.00  0.00     0.024 A 
HETATM   26  C14 UNL     1      30.699   7.627  48.856  1.00  0.00     0.010 A 
ENDBRANCH  19  20
ENDBRANCH   1  19
TORSDOF 5
ENDMDL
MODEL 9
REMARK VINA RESULT:      -7.5      6.549      9.311
REMARK  5 active torsions:
REMARK  status: ('A' for Active; 'I' for Inactive)
REMARK    1  A    between atoms: C4_5  and  C5_6 
REMARK    2  A    between atoms: C5_6  and  N1_7 
REMARK    3  A    between atoms: C7_10  and  N3_11 
REMARK    4  A    between atoms: N3_11  and  N4_12 
REMARK    5  A    between atoms: N4_12  and  C8_13 
ROOT
HETATM    1  N1  UNL     1      24.230   2.420  51.890  1.00  0.00    -0.265 N 
HETATM    2  C6  UNL     1      24.086   3.256  53.039  1.00  0.00     0.248 A 
HETATM    3  N2  UNL     1      23.768   4.521  52.948  1.00  0.00    -0.053 NA
HETATM    4  C7  UNL     1      23.549   5.122  51.656  1.00  0.00     0.760 A 
HETATM    5  N5  UNL     1      23.664   4.413  50.570  1.00  0.00     0.036 NA
HETATM    6  N6  UNL     1      24.006   3.052  50.639  1.00  0.00    -0.201 N 
HETATM    7  H12 UNL     1      24.107   2.448  49.768  1.00  0.00     0.211 HD
ENDROOT
BRANCH   4   8
HETATM    8  N3  UNL     1      23.193   6.495  51.560  1.00  0.00    -0.127 N 
HETATM    9  H6  UNL     1      22.152   6.720  51.614  1.00  0.00     0.206 HD
BRANCH   8  10
HETATM   10  N4  UNL     1      24.221   7.446  51.398  1.00  0.00    -0.286 N 
HETATM   11  H7  UNL     1      24.645   8.058  52.125  1.00  0.00     0.187 HD
BRANCH  10  12
HETATM   12  C8  UNL     1      24.857   7.732  50.167  1.00  0.00     0.050 A 
HETATM   13  C9  UNL     1      24.286   7.561  48.940  1.00  0.00     0.031 A 
HETATM   14  C10 UNL     1      25.042   7.875  47.828  1.00  0.00     0.004 A 
HETATM   15  C11 UNL     1      26.335   8.348  47.957  1.00  0.00     0.019 A 
HETATM   16  C12 UNL     1      26.899   8.516  49.210  1.00  0.00     0.013 A 
HETATM   17 BR1  UNL     1      28.678   9.166  49.302  1.00  0.00    -0.051 Br
HETATM   18  C13 UNL     1      26.163   8.208  50.345  1.00  0.00     0.050 A 
ENDBRANCH  10  12
ENDBRANCH   8  10
ENDBRANCH   4   8
BRANCH   1  19
HETATM   19  C5  UNL     1      24.554   1.031  52.022  1.00  0.00     0.190 C 
BRANCH  19  20
HETATM   20  C4  UNL     1      25.919   0.721  52.441  1.00  0.00    -0.038 A 
HETATM   21  C3  UNL     1      26.149  -0.645  52.647  1.00  0.00     0.010 A 
HETATM   22  C2  UNL     1      27.333  -1.201  53.041  1.00  0.00     0.024 A 
HETATM   23  C1  UNL     1      28.400  -0.339  53.254  1.00  0.00     0.034 A 
HETATM   24 CL1  UNL     1      29.952  -0.919  53.754  1.00  0.00    -0.084 Cl
HETATM   25  C15 UNL     1      28.221   0.996  53.066  1.00  0.00     0.024 A 
HETATM   26  C14 UNL     1      27.010   1.570  52.663  1.00  0.00     0.010 A 
ENDBRANCH  19  20
ENDBRANCH   1  19
TORSDOF 5
ENDMDL
