MODEL 1
REMARK VINA RESULT:      -7.7      0.000      0.000
REMARK  7 active torsions:
REMARK  status: ('A' for Active; 'I' for Inactive)
REMARK    1  A    between atoms: C2_2  and  C3_3 
REMARK    2  A    between atoms: C4_4  and  C5_5 
REMARK    3  A    between atoms: C5_5  and  N1_6 
REMARK    4  A    between atoms: C7_8  and  C8_9 
REMARK    5  A    between atoms: C12_14  and  N2_15 
REMARK    6  A    between atoms: N2_15  and  C13_16 
REMARK    7  A    between atoms: C15_18  and  C16_19 
ROOT
HETATM    1  N1  UNL     1      27.326   0.732  54.208  1.00  0.00    -0.368 N 
HETATM    2  C6  UNL     1      26.398  -0.137  54.861  1.00  0.00     0.098 C 
HETATM    3  C7  UNL     1      25.147  -0.279  54.473  1.00  0.00    -0.002 C 
HETATM    4  C9  UNL     1      24.402   0.334  53.380  1.00  0.00     0.005 A 
HETATM    5  C10 UNL     1      23.167   0.146  52.999  1.00  0.00     0.017 A 
HETATM    6  C11 UNL     1      22.862   0.990  51.848  1.00  0.00     0.033 A 
HETATM    7  C12 UNL     1      23.933   1.693  51.538  1.00  0.00     0.062 A 
HETATM    8  C18 UNL     1      24.979   1.327  52.484  1.00  0.00     0.090 A 
HETATM    9  N3  UNL     1      26.145   1.867  52.418  1.00  0.00    -0.267 NA
HETATM   10  C19 UNL     1      27.334   1.718  53.180  1.00  0.00     0.273 C 
ENDROOT
BRANCH   7  11
HETATM   11  N2  UNL     1      23.903   2.601  50.447  1.00  0.00    -0.358 N 
HETATM   12  H13 UNL     1      23.497   2.283  49.530  1.00  0.00     0.166 HD
BRANCH  11  13
HETATM   13  C13 UNL     1      24.321   3.945  50.265  1.00  0.00     0.005 C 
HETATM   14  C14 UNL     1      23.887   4.758  51.427  1.00  0.00     0.068 C 
HETATM   15  C15 UNL     1      24.994   4.401  49.226  1.00  0.00     0.022 C 
BRANCH  15  16
HETATM   16  C16 UNL     1      25.442   5.760  48.994  1.00  0.00    -0.003 C 
HETATM   17  C17 UNL     1      26.664   6.114  48.706  1.00  0.00     0.259 C 
HETATM   18 CL1  UNL     1      27.745   4.723  48.627  1.00  0.00    -0.251 Cl
ENDBRANCH  15  16
ENDBRANCH  11  13
ENDBRANCH   7  11
BRANCH   3  19
HETATM   19  C8  UNL     1      24.333  -1.229  55.278  1.00  0.00     0.263 C 
HETATM   20  F1  UNL     1      24.763  -1.047  56.595  1.00  0.00    -0.251 F 
ENDBRANCH   3  19
BRANCH   1  21
HETATM   21  C5  UNL     1      28.674   0.541  54.771  1.00  0.00     0.151 C 
BRANCH  21  22
HETATM   22  C4  UNL     1      29.665   0.177  53.729  1.00  0.00    -0.007 C 
HETATM   23  C3  UNL     1      29.937  -0.969  53.129  1.00  0.00    -0.006 C 
BRANCH  23  24
HETATM   24  C2  UNL     1      29.215  -2.191  53.443  1.00  0.00    -0.027 C 
HETATM   25  C1  UNL     1      28.154  -2.569  52.738  1.00  0.00     0.031 C 
ENDBRANCH  23  24
ENDBRANCH  21  22
ENDBRANCH   1  21
TORSDOF 7
ENDMDL
MODEL 2
REMARK VINA RESULT:      -7.5      2.613      6.441
REMARK  7 active torsions:
REMARK  status: ('A' for Active; 'I' for Inactive)
REMARK    1  A    between atoms: C2_2  and  C3_3 
REMARK    2  A    between atoms: C4_4  and  C5_5 
REMARK    3  A    between atoms: C5_5  and  N1_6 
REMARK    4  A    between atoms: C7_8  and  C8_9 
REMARK    5  A    between atoms: C12_14  and  N2_15 
REMARK    6  A    between atoms: N2_15  and  C13_16 
REMARK    7  A    between atoms: C15_18  and  C16_19 
ROOT
HETATM    1  N1  UNL     1      25.066   3.886  50.189  1.00  0.00    -0.368 N 
HETATM    2  C6  UNL     1      23.670   4.184  50.257  1.00  0.00     0.098 C 
HETATM    3  C7  UNL     1      22.818   3.491  50.986  1.00  0.00    -0.002 C 
HETATM    4  C9  UNL     1      23.011   2.336  51.855  1.00  0.00     0.005 A 
HETATM    5  C10 UNL     1      22.149   1.691  52.593  1.00  0.00     0.017 A 
HETATM    6  C11 UNL     1      22.809   0.593  53.293  1.00  0.00     0.033 A 
HETATM    7  C12 UNL     1      24.086   0.584  52.966  1.00  0.00     0.062 A 
HETATM    8  C18 UNL     1      24.302   1.684  52.035  1.00  0.00     0.090 A 
HETATM    9  N3  UNL     1      25.469   1.913  51.544  1.00  0.00    -0.267 NA
HETATM   10  C19 UNL     1      25.973   2.884  50.638  1.00  0.00     0.273 C 
ENDROOT
BRANCH   7  11
HETATM   11  N2  UNL     1      24.960  -0.392  53.513  1.00  0.00    -0.358 N 
HETATM   12  H13 UNL     1      24.554  -1.288  53.886  1.00  0.00     0.166 HD
BRANCH  11  13
HETATM   13  C13 UNL     1      26.364  -0.470  53.701  1.00  0.00     0.005 C 
HETATM   14  C14 UNL     1      26.941  -1.428  52.726  1.00  0.00     0.068 C 
HETATM   15  C15 UNL     1      27.053   0.207  54.600  1.00  0.00     0.022 C 
BRANCH  15  16
HETATM   16  C16 UNL     1      28.483   0.163  54.831  1.00  0.00    -0.003 C 
HETATM   17  C17 UNL     1      29.337   1.078  54.464  1.00  0.00     0.259 C 
HETATM   18 CL1  UNL     1      28.543   2.415  53.632  1.00  0.00    -0.251 Cl
ENDBRANCH  15  16
ENDBRANCH  11  13
ENDBRANCH   7  11
BRANCH   3  19
HETATM   19  C8  UNL     1      21.405   3.953  50.928  1.00  0.00     0.263 C 
HETATM   20  F1  UNL     1      21.451   5.303  51.284  1.00  0.00    -0.251 F 
ENDBRANCH   3  19
BRANCH   1  21
HETATM   21  C5  UNL     1      25.767   4.935  49.430  1.00  0.00     0.151 C 
BRANCH  21  22
HETATM   22  C4  UNL     1      27.135   4.517  49.038  1.00  0.00    -0.007 C 
HETATM   23  C3  UNL     1      28.127   5.167  48.455  1.00  0.00    -0.006 C 
BRANCH  23  24
HETATM   24  C2  UNL     1      28.005   6.563  48.064  1.00  0.00    -0.027 C 
HETATM   25  C1  UNL     1      29.072   7.293  47.762  1.00  0.00     0.031 C 
ENDBRANCH  23  24
ENDBRANCH  21  22
ENDBRANCH   1  21
TORSDOF 7
ENDMDL
MODEL 3
REMARK VINA RESULT:      -7.4      4.607      7.281
REMARK  7 active torsions:
REMARK  status: ('A' for Active; 'I' for Inactive)
REMARK    1  A    between atoms: C2_2  and  C3_3 
REMARK    2  A    between atoms: C4_4  and  C5_5 
REMARK    3  A    between atoms: C5_5  and  N1_6 
REMARK    4  A    between atoms: C7_8  and  C8_9 
REMARK    5  A    between atoms: C12_14  and  N2_15 
REMARK    6  A    between atoms: N2_15  and  C13_16 
REMARK    7  A    between atoms: C15_18  and  C16_19 
ROOT
HETATM    1  N1  UNL     1      23.953   2.454  51.980  1.00  0.00    -0.368 N 
HETATM    2  C6  UNL     1      24.942   1.551  52.478  1.00  0.00     0.098 C 
HETATM    3  C7  UNL     1      24.648   0.461  53.158  1.00  0.00    -0.002 C 
HETATM    4  C9  UNL     1      23.367  -0.102  53.566  1.00  0.00     0.005 A 
HETATM    5  C10 UNL     1      23.106  -1.206  54.212  1.00  0.00     0.017 A 
HETATM    6  C11 UNL     1      21.665  -1.353  54.395  1.00  0.00     0.033 A 
HETATM    7  C12 UNL     1      21.058  -0.319  53.849  1.00  0.00     0.062 A 
HETATM    8  C18 UNL     1      22.090   0.542  53.288  1.00  0.00     0.090 A 
HETATM    9  N3  UNL     1      21.780   1.639  52.689  1.00  0.00    -0.267 NA
HETATM   10  C19 UNL     1      22.545   2.656  52.060  1.00  0.00     0.273 C 
ENDROOT
BRANCH   7  11
HETATM   11  N2  UNL     1      19.642  -0.216  53.888  1.00  0.00    -0.358 N 
HETATM   12  H13 UNL     1      19.191   0.311  54.679  1.00  0.00     0.166 HD
BRANCH  11  13
HETATM   13  C13 UNL     1      18.592  -0.686  53.058  1.00  0.00     0.005 C 
HETATM   14  C14 UNL     1      18.742  -0.110  51.699  1.00  0.00     0.068 C 
HETATM   15  C15 UNL     1      17.632  -1.509  53.433  1.00  0.00     0.022 C 
BRANCH  15  16
HETATM   16  C16 UNL     1      16.540  -2.017  52.626  1.00  0.00    -0.003 C 
HETATM   17  C17 UNL     1      16.067  -3.231  52.673  1.00  0.00     0.259 C 
HETATM   18 CL1  UNL     1      16.921  -4.220  53.857  1.00  0.00    -0.251 Cl
ENDBRANCH  15  16
ENDBRANCH  11  13
ENDBRANCH   7  11
BRANCH   3  19
HETATM   19  C8  UNL     1      25.814  -0.354  53.594  1.00  0.00     0.263 C 
HETATM   20  F1  UNL     1      26.138  -1.142  52.487  1.00  0.00    -0.251 F 
ENDBRANCH   3  19
BRANCH   1  21
HETATM   21  C5  UNL     1      24.588   3.474  51.128  1.00  0.00     0.151 C 
BRANCH  21  22
HETATM   22  C4  UNL     1      25.807   2.958  50.458  1.00  0.00    -0.007 C 
HETATM   23  C3  UNL     1      26.627   3.498  49.574  1.00  0.00    -0.006 C 
BRANCH  23  24
HETATM   24  C2  UNL     1      26.427   4.845  49.064  1.00  0.00    -0.027 C 
HETATM   25  C1  UNL     1      27.434   5.553  48.564  1.00  0.00     0.031 C 
ENDBRANCH  23  24
ENDBRANCH  21  22
ENDBRANCH   1  21
TORSDOF 7
ENDMDL
MODEL 4
REMARK VINA RESULT:      -7.4      1.860      2.681
REMARK  7 active torsions:
REMARK  status: ('A' for Active; 'I' for Inactive)
REMARK    1  A    between atoms: C2_2  and  C3_3 
REMARK    2  A    between atoms: C4_4  and  C5_5 
REMARK    3  A    between atoms: C5_5  and  N1_6 
REMARK    4  A    between atoms: C7_8  and  C8_9 
REMARK    5  A    between atoms: C12_14  and  N2_15 
REMARK    6  A    between atoms: N2_15  and  C13_16 
REMARK    7  A    between atoms: C15_18  and  C16_19 
ROOT
HETATM    1  N1  UNL     1      24.963   0.625  53.450  1.00  0.00    -0.368 N 
HETATM    2  C6  UNL     1      23.713  -0.065  53.425  1.00  0.00     0.098 C 
HETATM    3  C7  UNL     1      22.575   0.513  53.095  1.00  0.00    -0.002 C 
HETATM    4  C9  UNL     1      22.270   1.882  52.697  1.00  0.00     0.005 A 
HETATM    5  C10 UNL     1      21.134   2.417  52.342  1.00  0.00     0.017 A 
HETATM    6  C11 UNL     1      21.320   3.831  52.029  1.00  0.00     0.033 A 
HETATM    7  C12 UNL     1      22.589   4.143  52.201  1.00  0.00     0.062 A 
HETATM    8  C18 UNL     1      23.277   2.934  52.635  1.00  0.00     0.090 A 
HETATM    9  N3  UNL     1      24.540   2.946  52.881  1.00  0.00    -0.267 NA
HETATM   10  C19 UNL     1      25.460   1.953  53.309  1.00  0.00     0.273 C 
ENDROOT
BRANCH   7  11
HETATM   11  N2  UNL     1      23.041   5.468  51.962  1.00  0.00    -0.358 N 
HETATM   12  H13 UNL     1      22.672   6.248  52.564  1.00  0.00     0.166 HD
BRANCH  11  13
HETATM   13  C13 UNL     1      23.941   6.055  51.037  1.00  0.00     0.005 C 
HETATM   14  C14 UNL     1      23.641   7.502  50.905  1.00  0.00     0.068 C 
HETATM   15  C15 UNL     1      24.900   5.416  50.394  1.00  0.00     0.022 C 
BRANCH  15  16
HETATM   16  C16 UNL     1      25.843   5.968  49.442  1.00  0.00    -0.003 C 
HETATM   17  C17 UNL     1      26.792   5.303  48.845  1.00  0.00     0.259 C 
HETATM   18 CL1  UNL     1      26.808   3.608  49.333  1.00  0.00    -0.251 Cl
ENDBRANCH  15  16
ENDBRANCH  11  13
ENDBRANCH   7  11
BRANCH   3  19
HETATM   19  C8  UNL     1      21.377  -0.369  53.127  1.00  0.00     0.263 C 
HETATM   20  F1  UNL     1      21.868  -1.632  53.467  1.00  0.00    -0.251 F 
ENDBRANCH   3  19
BRANCH   1  21
HETATM   21  C5  UNL     1      26.058  -0.329  53.693  1.00  0.00     0.151 C 
BRANCH  21  22
HETATM   22  C4  UNL     1      26.940   0.108  54.803  1.00  0.00    -0.007 C 
HETATM   23  C3  UNL     1      28.252   0.233  54.895  1.00  0.00    -0.006 C 
BRANCH  23  24
HETATM   24  C2  UNL     1      29.133  -0.081  53.781  1.00  0.00    -0.027 C 
HETATM   25  C1  UNL     1      29.977  -1.106  53.832  1.00  0.00     0.031 C 
ENDBRANCH  23  24
ENDBRANCH  21  22
ENDBRANCH   1  21
TORSDOF 7
ENDMDL
MODEL 5
REMARK VINA RESULT:      -7.3      1.496      2.134
REMARK  7 active torsions:
REMARK  status: ('A' for Active; 'I' for Inactive)
REMARK    1  A    between atoms: C2_2  and  C3_3 
REMARK    2  A    between atoms: C4_4  and  C5_5 
REMARK    3  A    between atoms: C5_5  and  N1_6 
REMARK    4  A    between atoms: C7_8  and  C8_9 
REMARK    5  A    between atoms: C12_14  and  N2_15 
REMARK    6  A    between atoms: N2_15  and  C13_16 
REMARK    7  A    between atoms: C15_18  and  C16_19 
ROOT
HETATM    1  N1  UNL     1      25.162   0.083  53.392  1.00  0.00    -0.368 N 
HETATM    2  C6  UNL     1      24.058  -0.574  54.017  1.00  0.00     0.098 C 
HETATM    3  C7  UNL     1      22.803  -0.231  53.809  1.00  0.00    -0.002 C 
HETATM    4  C9  UNL     1      22.214   0.807  52.970  1.00  0.00     0.005 A 
HETATM    5  C10 UNL     1      20.959   1.100  52.759  1.00  0.00     0.017 A 
HETATM    6  C11 UNL     1      20.855   2.226  51.836  1.00  0.00     0.033 A 
HETATM    7  C12 UNL     1      22.068   2.611  51.493  1.00  0.00     0.062 A 
HETATM    8  C18 UNL     1      23.010   1.740  52.186  1.00  0.00     0.090 A 
HETATM    9  N3  UNL     1      24.279   1.891  52.035  1.00  0.00    -0.267 NA
HETATM   10  C19 UNL     1      25.411   1.217  52.566  1.00  0.00     0.273 C 
ENDROOT
BRANCH   7  11
HETATM   11  N2  UNL     1      22.250   3.697  50.597  1.00  0.00    -0.358 N 
HETATM   12  H13 UNL     1      21.467   3.954  49.943  1.00  0.00     0.166 HD
BRANCH  11  13
HETATM   13  C13 UNL     1      23.312   4.601  50.339  1.00  0.00     0.005 C 
HETATM   14  C14 UNL     1      23.424   5.566  51.461  1.00  0.00     0.068 C 
HETATM   15  C15 UNL     1      24.085   4.586  49.270  1.00  0.00     0.022 C 
BRANCH  15  16
HETATM   16  C16 UNL     1      25.180   5.484  48.961  1.00  0.00    -0.003 C 
HETATM   17  C17 UNL     1      26.446   5.171  48.993  1.00  0.00     0.259 C 
HETATM   18 CL1  UNL     1      26.692   3.490  49.466  1.00  0.00    -0.251 Cl
ENDBRANCH  15  16
ENDBRANCH  11  13
ENDBRANCH   7  11
BRANCH   3  19
HETATM   19  C8  UNL     1      21.791  -1.031  54.550  1.00  0.00     0.263 C 
HETATM   20  F1  UNL     1      22.534  -1.936  55.311  1.00  0.00    -0.251 F 
ENDBRANCH   3  19
BRANCH   1  21
HETATM   21  C5  UNL     1      26.411  -0.635  53.697  1.00  0.00     0.151 C 
BRANCH  21  22
HETATM   22  C4  UNL     1      27.231   0.079  54.705  1.00  0.00    -0.007 C 
HETATM   23  C3  UNL     1      28.517   0.382  54.748  1.00  0.00    -0.006 C 
BRANCH  23  24
HETATM   24  C2  UNL     1      29.429   0.012  53.676  1.00  0.00    -0.027 C 
HETATM   25  C1  UNL     1      30.008  -1.183  53.642  1.00  0.00     0.031 C 
ENDBRANCH  23  24
ENDBRANCH  21  22
ENDBRANCH   1  21
TORSDOF 7
ENDMDL
MODEL 6
REMARK VINA RESULT:      -7.2      1.833      2.302
REMARK  7 active torsions:
REMARK  status: ('A' for Active; 'I' for Inactive)
REMARK    1  A    between atoms: C2_2  and  C3_3 
REMARK    2  A    between atoms: C4_4  and  C5_5 
REMARK    3  A    between atoms: C5_5  and  N1_6 
REMARK    4  A    between atoms: C7_8  and  C8_9 
REMARK    5  A    between atoms: C12_14  and  N2_15 
REMARK    6  A    between atoms: N2_15  and  C13_16 
REMARK    7  A    between atoms: C15_18  and  C16_19 
ROOT
HETATM    1  N1  UNL     1      26.847   0.994  53.530  1.00  0.00    -0.368 N 
HETATM    2  C6  UNL     1      25.574   0.436  53.859  1.00  0.00     0.098 C 
HETATM    3  C7  UNL     1      24.480   0.672  53.162  1.00  0.00    -0.002 C 
HETATM    4  C9  UNL     1      24.253   1.483  51.971  1.00  0.00     0.005 A 
HETATM    5  C10 UNL     1      23.161   1.669  51.282  1.00  0.00     0.017 A 
HETATM    6  C11 UNL     1      23.420   2.570  50.163  1.00  0.00     0.033 A 
HETATM    7  C12 UNL     1      24.689   2.926  50.187  1.00  0.00     0.062 A 
HETATM    8  C18 UNL     1      25.303   2.264  51.331  1.00  0.00     0.090 A 
HETATM    9  N3  UNL     1      26.550   2.435  51.600  1.00  0.00    -0.267 NA
HETATM   10  C19 UNL     1      27.404   1.937  52.620  1.00  0.00     0.273 C 
ENDROOT
BRANCH   7  11
HETATM   11  N2  UNL     1      25.206   3.806  49.199  1.00  0.00    -0.358 N 
HETATM   12  H13 UNL     1      25.036   3.589  48.184  1.00  0.00     0.166 HD
BRANCH  11  13
HETATM   13  C13 UNL     1      25.960   5.007  49.240  1.00  0.00     0.005 C 
HETATM   14  C14 UNL     1      27.353   4.731  48.812  1.00  0.00     0.068 C 
HETATM   15  C15 UNL     1      25.496   6.188  49.601  1.00  0.00     0.022 C 
BRANCH  15  16
HETATM   16  C16 UNL     1      26.222   7.441  49.659  1.00  0.00    -0.003 C 
HETATM   17  C17 UNL     1      25.725   8.587  50.033  1.00  0.00     0.259 C 
HETATM   18 CL1  UNL     1      24.023   8.447  50.474  1.00  0.00    -0.251 Cl
ENDBRANCH  15  16
ENDBRANCH  11  13
ENDBRANCH   7  11
BRANCH   3  19
HETATM   19  C8  UNL     1      23.248   0.003  53.660  1.00  0.00     0.263 C 
HETATM   20  F1  UNL     1      23.148  -1.172  52.911  1.00  0.00    -0.251 F 
ENDBRANCH   3  19
BRANCH   1  21
HETATM   21  C5  UNL     1      27.888   0.411  54.394  1.00  0.00     0.151 C 
BRANCH  21  22
HETATM   22  C4  UNL     1      29.220   0.419  53.740  1.00  0.00    -0.007 C 
HETATM   23  C3  UNL     1      30.042  -0.555  53.393  1.00  0.00    -0.006 C 
BRANCH  23  24
HETATM   24  C2  UNL     1      29.719  -1.953  53.632  1.00  0.00    -0.027 C 
HETATM   25  C1  UNL     1      28.771  -2.573  52.939  1.00  0.00     0.031 C 
ENDBRANCH  23  24
ENDBRANCH  21  22
ENDBRANCH   1  21
TORSDOF 7
ENDMDL
MODEL 7
REMARK VINA RESULT:      -7.0      3.305      5.616
REMARK  7 active torsions:
REMARK  status: ('A' for Active; 'I' for Inactive)
REMARK    1  A    between atoms: C2_2  and  C3_3 
REMARK    2  A    between atoms: C4_4  and  C5_5 
REMARK    3  A    between atoms: C5_5  and  N1_6 
REMARK    4  A    between atoms: C7_8  and  C8_9 
REMARK    5  A    between atoms: C12_14  and  N2_15 
REMARK    6  A    between atoms: N2_15  and  C13_16 
REMARK    7  A    between atoms: C15_18  and  C16_19 
ROOT
HETATM    1  N1  UNL     1      26.336   2.059  51.810  1.00  0.00    -0.368 N 
HETATM    2  C6  UNL     1      26.587   3.111  50.876  1.00  0.00     0.098 C 
HETATM    3  C7  UNL     1      25.683   3.552  50.024  1.00  0.00    -0.002 C 
HETATM    4  C9  UNL     1      24.300   3.152  49.795  1.00  0.00     0.005 A 
HETATM    5  C10 UNL     1      23.416   3.633  48.964  1.00  0.00     0.017 A 
HETATM    6  C11 UNL     1      22.157   2.906  49.092  1.00  0.00     0.033 A 
HETATM    7  C12 UNL     1      22.294   1.975  50.015  1.00  0.00     0.062 A 
HETATM    8  C18 UNL     1      23.656   2.066  50.523  1.00  0.00     0.090 A 
HETATM    9  N3  UNL     1      24.071   1.267  51.442  1.00  0.00    -0.267 NA
HETATM   10  C19 UNL     1      25.312   1.118  52.117  1.00  0.00     0.273 C 
ENDROOT
BRANCH   7  11
HETATM   11  N2  UNL     1      21.207   1.120  50.337  1.00  0.00    -0.358 N 
HETATM   12  H13 UNL     1      20.647   0.691  49.556  1.00  0.00     0.166 HD
BRANCH  11  13
HETATM   13  C13 UNL     1      20.635   0.659  51.551  1.00  0.00     0.005 C 
HETATM   14  C14 UNL     1      19.213   1.075  51.617  1.00  0.00     0.068 C 
HETATM   15  C15 UNL     1      21.268  -0.034  52.478  1.00  0.00     0.022 C 
BRANCH  15  16
HETATM   16  C16 UNL     1      20.732  -0.526  53.732  1.00  0.00    -0.003 C 
HETATM   17  C17 UNL     1      21.438  -0.961  54.738  1.00  0.00     0.259 C 
HETATM   18 CL1  UNL     1      23.168  -0.885  54.402  1.00  0.00    -0.251 Cl
ENDBRANCH  15  16
ENDBRANCH  11  13
ENDBRANCH   7  11
BRANCH   3  19
HETATM   19  C8  UNL     1      26.132   4.653  49.130  1.00  0.00     0.263 C 
HETATM   20  F1  UNL     1      27.364   4.229  48.626  1.00  0.00    -0.251 F 
ENDBRANCH   3  19
BRANCH   1  21
HETATM   21  C5  UNL     1      27.481   1.916  52.724  1.00  0.00     0.151 C 
BRANCH  21  22
HETATM   22  C4  UNL     1      27.163   1.042  53.880  1.00  0.00    -0.007 C 
HETATM   23  C3  UNL     1      27.881   0.149  54.539  1.00  0.00    -0.006 C 
BRANCH  23  24
HETATM   24  C2  UNL     1      29.260  -0.142  54.182  1.00  0.00    -0.027 C 
HETATM   25  C1  UNL     1      29.574  -1.189  53.428  1.00  0.00     0.031 C 
ENDBRANCH  23  24
ENDBRANCH  21  22
ENDBRANCH   1  21
TORSDOF 7
ENDMDL
MODEL 8
REMARK VINA RESULT:      -7.0      2.994      5.422
REMARK  7 active torsions:
REMARK  status: ('A' for Active; 'I' for Inactive)
REMARK    1  A    between atoms: C2_2  and  C3_3 
REMARK    2  A    between atoms: C4_4  and  C5_5 
REMARK    3  A    between atoms: C5_5  and  N1_6 
REMARK    4  A    between atoms: C7_8  and  C8_9 
REMARK    5  A    between atoms: C12_14  and  N2_15 
REMARK    6  A    between atoms: N2_15  and  C13_16 
REMARK    7  A    between atoms: C15_18  and  C16_19 
ROOT
HETATM    1  N1  UNL     1      25.615   2.258  51.234  1.00  0.00    -0.368 N 
HETATM    2  C6  UNL     1      26.253   1.155  51.880  1.00  0.00     0.098 C 
HETATM    3  C7  UNL     1      25.612   0.300  52.650  1.00  0.00    -0.002 C 
HETATM    4  C9  UNL     1      24.208   0.218  53.039  1.00  0.00     0.005 A 
HETATM    5  C10 UNL     1      23.595  -0.665  53.778  1.00  0.00     0.017 A 
HETATM    6  C11 UNL     1      22.179  -0.330  53.891  1.00  0.00     0.033 A 
HETATM    7  C12 UNL     1      21.945   0.772  53.206  1.00  0.00     0.062 A 
HETATM    8  C18 UNL     1      23.211   1.194  52.621  1.00  0.00     0.090 A 
HETATM    9  N3  UNL     1      23.280   2.255  51.895  1.00  0.00    -0.267 NA
HETATM   10  C19 UNL     1      24.344   2.900  51.210  1.00  0.00     0.273 C 
ENDROOT
BRANCH   7  11
HETATM   11  N2  UNL     1      20.635   1.318  53.151  1.00  0.00    -0.358 N 
HETATM   12  H13 UNL     1      20.065   1.365  54.034  1.00  0.00     0.166 HD
BRANCH  11  13
HETATM   13  C13 UNL     1      19.832   1.862  52.116  1.00  0.00     0.005 C 
HETATM   14  C14 UNL     1      19.427   0.781  51.185  1.00  0.00     0.068 C 
HETATM   15  C15 UNL     1      19.495   3.132  51.999  1.00  0.00     0.022 C 
BRANCH  15  16
HETATM   16  C16 UNL     1      18.679   3.736  50.964  1.00  0.00    -0.003 C 
HETATM   17  C17 UNL     1      19.114   4.535  50.029  1.00  0.00     0.259 C 
HETATM   18 CL1  UNL     1      20.851   4.812  50.161  1.00  0.00    -0.251 Cl
ENDBRANCH  15  16
ENDBRANCH  11  13
ENDBRANCH   7  11
BRANCH   3  19
HETATM   19  C8  UNL     1      26.447  -0.783  53.236  1.00  0.00     0.263 C 
HETATM   20  F1  UNL     1      26.550  -1.745  52.229  1.00  0.00    -0.251 F 
ENDBRANCH   3  19
BRANCH   1  21
HETATM   21  C5  UNL     1      26.561   2.921  50.320  1.00  0.00     0.151 C 
BRANCH  21  22
HETATM   22  C4  UNL     1      26.005   4.176  49.760  1.00  0.00    -0.007 C 
HETATM   23  C3  UNL     1      26.535   5.117  48.997  1.00  0.00    -0.006 C 
BRANCH  23  24
HETATM   24  C2  UNL     1      27.914   5.048  48.540  1.00  0.00    -0.027 C 
HETATM   25  C1  UNL     1      28.563   6.131  48.128  1.00  0.00     0.031 C 
ENDBRANCH  23  24
ENDBRANCH  21  22
ENDBRANCH   1  21
TORSDOF 7
ENDMDL
MODEL 9
REMARK VINA RESULT:      -6.9      2.276      2.917
REMARK  7 active torsions:
REMARK  status: ('A' for Active; 'I' for Inactive)
REMARK    1  A    between atoms: C2_2  and  C3_3 
REMARK    2  A    between atoms: C4_4  and  C5_5 
REMARK    3  A    between atoms: C5_5  and  N1_6 
REMARK    4  A    between atoms: C7_8  and  C8_9 
REMARK    5  A    between atoms: C12_14  and  N2_15 
REMARK    6  A    between atoms: N2_15  and  C13_16 
REMARK    7  A    between atoms: C15_18  and  C16_19 
ROOT
HETATM    1  N1  UNL     1      25.123   0.030  53.155  1.00  0.00    -0.368 N 
HETATM    2  C6  UNL     1      24.104  -0.540  53.979  1.00  0.00     0.098 C 
HETATM    3  C7  UNL     1      22.827  -0.233  53.864  1.00  0.00    -0.002 C 
HETATM    4  C9  UNL     1      22.133   0.679  52.963  1.00  0.00     0.005 A 
HETATM    5  C10 UNL     1      20.858   0.937  52.851  1.00  0.00     0.017 A 
HETATM    6  C11 UNL     1      20.636   1.928  51.802  1.00  0.00     0.033 A 
HETATM    7  C12 UNL     1      21.798   2.266  51.281  1.00  0.00     0.062 A 
HETATM    8  C18 UNL     1      22.824   1.501  51.978  1.00  0.00     0.090 A 
HETATM    9  N3  UNL     1      24.067   1.635  51.672  1.00  0.00    -0.267 NA
HETATM   10  C19 UNL     1      25.261   1.042  52.162  1.00  0.00     0.273 C 
ENDROOT
BRANCH   7  11
HETATM   11  N2  UNL     1      21.863   3.222  50.233  1.00  0.00    -0.358 N 
HETATM   12  H13 UNL     1      21.243   3.100  49.393  1.00  0.00     0.166 HD
BRANCH  11  13
HETATM   13  C13 UNL     1      22.620   4.402  50.015  1.00  0.00     0.005 C 
HETATM   14  C14 UNL     1      22.954   4.515  48.573  1.00  0.00     0.068 C 
HETATM   15  C15 UNL     1      22.971   5.268  50.946  1.00  0.00     0.022 C 
BRANCH  15  16
HETATM   16  C16 UNL     1      23.741   6.484  50.775  1.00  0.00    -0.003 C 
HETATM   17  C17 UNL     1      23.243   7.682  50.645  1.00  0.00     0.259 C 
HETATM   18 CL1  UNL     1      21.480   7.666  50.700  1.00  0.00    -0.251 Cl
ENDBRANCH  15  16
ENDBRANCH  11  13
ENDBRANCH   7  11
BRANCH   3  19
HETATM   19  C8  UNL     1      21.915  -0.929  54.811  1.00  0.00     0.263 C 
HETATM   20  F1  UNL     1      22.682  -1.961  55.358  1.00  0.00    -0.251 F 
ENDBRANCH   3  19
BRANCH   1  21
HETATM   21  C5  UNL     1      26.410  -0.637  53.417  1.00  0.00     0.151 C 
BRANCH  21  22
HETATM   22  C4  UNL     1      27.133  -0.021  54.556  1.00  0.00    -0.007 C 
HETATM   23  C3  UNL     1      28.408   0.278  54.738  1.00  0.00    -0.006 C 
BRANCH  23  24
HETATM   24  C2  UNL     1      29.412   0.012  53.719  1.00  0.00    -0.027 C 
HETATM   25  C1  UNL     1      30.108  -1.119  53.712  1.00  0.00     0.031 C 
ENDBRANCH  23  24
ENDBRANCH  21  22
ENDBRANCH   1  21
TORSDOF 7
ENDMDL
