MODEL 1
REMARK VINA RESULT:      -8.4      0.000      0.000
REMARK  6 active torsions:
REMARK  status: ('A' for Active; 'I' for Inactive)
REMARK       I    between atoms: C1_2  and  N1_3 
REMARK    1  A    between atoms: C1_2  and  C5_9 
REMARK    2  A    between atoms: N1_3  and  C2_4 
REMARK    3  A    between atoms: C2_4  and  C3_5 
REMARK    4  A    between atoms: C3_5  and  O2_6 
REMARK    5  A    between atoms: C3_5  and  C4_7 
REMARK    6  A    between atoms: C4_7  and  O3_8 
ROOT
HETATM    1  C5  UNL     1      25.195   2.517  52.081  1.00  0.00     0.013 C 
HETATM    2  C6  UNL     1      24.181   3.295  52.416  1.00  0.00     0.013 C 
HETATM    3  C7  UNL     1      23.722   4.594  51.894  1.00  0.00    -0.003 C 
HETATM    4  C8  UNL     1      23.827   5.224  50.749  1.00  0.00    -0.017 C 
HETATM    5  C9  UNL     1      24.050   4.835  49.359  1.00  0.00     0.046 C 
HETATM    6  C10 UNL     1      24.412   3.383  49.193  1.00  0.00     0.048 C 
HETATM    7  C11 UNL     1      25.732   3.173  49.845  1.00  0.00    -0.074 C 
HETATM    8  C12 UNL     1      26.797   3.836  49.439  1.00  0.00     0.015 C 
HETATM    9  C13 UNL     1      26.518   5.184  48.903  1.00  0.00    -0.029 A 
HETATM   10  C14 UNL     1      27.617   5.890  48.468  1.00  0.00     0.013 A 
HETATM   11  C15 UNL     1      27.406   7.157  47.954  1.00  0.00     0.024 A 
HETATM   12  C16 UNL     1      26.101   7.625  47.913  1.00  0.00     0.034 A 
HETATM   13 CL1  UNL     1      25.775   9.233  47.267  1.00  0.00    -0.084 Cl
HETATM   14  C17 UNL     1      25.003   6.886  48.362  1.00  0.00     0.032 A 
HETATM   15  C18 UNL     1      25.214   5.630  48.872  1.00  0.00    -0.038 A 
HETATM   16  C19 UNL     1      26.150   2.295  50.966  1.00  0.00     0.078 C 
ENDROOT
BRANCH   1  17
HETATM   17  C1  UNL     1      25.482   1.559  53.144  1.00  0.00     0.247 C 
HETATM   18  O1  UNL     1      24.514   0.837  53.538  1.00  0.00    -0.268 OA
HETATM   19  N1  UNL     1      26.717   1.358  53.773  1.00  0.00    -0.355 N 
HETATM   20  H1  UNL     1      27.436   2.022  53.350  1.00  0.00     0.162 HD
BRANCH  19  21
HETATM   21  C2  UNL     1      27.143   0.472  54.819  1.00  0.00     0.156 C 
BRANCH  21  22
HETATM   22  C3  UNL     1      28.574   0.042  54.743  1.00  0.00     0.159 C 
BRANCH  22  23
HETATM   23  O2  UNL     1      28.692  -1.154  54.087  1.00  0.00    -0.392 OA
HETATM   24  H5  UNL     1      28.533  -1.915  54.693  1.00  0.00     0.210 HD
ENDBRANCH  22  23
BRANCH  22  25
HETATM   25  C4  UNL     1      29.433   1.056  54.012  1.00  0.00     0.197 C 
BRANCH  25  26
HETATM   26  O3  UNL     1      29.442   2.277  54.671  1.00  0.00    -0.398 OA
HETATM   27  H8  UNL     1      29.629   2.060  55.626  1.00  0.00     0.209 HD
ENDBRANCH  25  26
ENDBRANCH  22  25
ENDBRANCH  21  22
ENDBRANCH  19  21
ENDBRANCH   1  17
TORSDOF 6
ENDMDL
MODEL 2
REMARK VINA RESULT:      -8.4      4.380      5.543
REMARK  6 active torsions:
REMARK  status: ('A' for Active; 'I' for Inactive)
REMARK       I    between atoms: C1_2  and  N1_3 
REMARK    1  A    between atoms: C1_2  and  C5_9 
REMARK    2  A    between atoms: N1_3  and  C2_4 
REMARK    3  A    between atoms: C2_4  and  C3_5 
REMARK    4  A    between atoms: C3_5  and  O2_6 
REMARK    5  A    between atoms: C3_5  and  C4_7 
REMARK    6  A    between atoms: C4_7  and  O3_8 
ROOT
HETATM    1  C5  UNL     1      24.181  -0.091  53.820  1.00  0.00     0.013 C 
HETATM    2  C6  UNL     1      23.197  -0.653  54.501  1.00  0.00     0.013 C 
HETATM    3  C7  UNL     1      21.743  -0.414  54.509  1.00  0.00    -0.003 C 
HETATM    4  C8  UNL     1      20.876   0.062  53.650  1.00  0.00    -0.017 C 
HETATM    5  C9  UNL     1      20.808   0.191  52.196  1.00  0.00     0.046 C 
HETATM    6  C10 UNL     1      22.100  -0.149  51.503  1.00  0.00     0.048 C 
HETATM    7  C11 UNL     1      23.107   0.866  51.910  1.00  0.00    -0.074 C 
HETATM    8  C12 UNL     1      22.914   2.146  51.658  1.00  0.00     0.015 C 
HETATM    9  C13 UNL     1      21.499   2.567  51.652  1.00  0.00    -0.029 A 
HETATM   10  C14 UNL     1      21.276   3.899  51.385  1.00  0.00     0.013 A 
HETATM   11  C15 UNL     1      19.964   4.341  51.365  1.00  0.00     0.024 A 
HETATM   12  C16 UNL     1      18.968   3.410  51.616  1.00  0.00     0.034 A 
HETATM   13 CL1  UNL     1      17.280   3.919  51.603  1.00  0.00    -0.084 Cl
HETATM   14  C17 UNL     1      19.223   2.062  51.886  1.00  0.00     0.032 A 
HETATM   15  C18 UNL     1      20.524   1.625  51.905  1.00  0.00    -0.038 A 
HETATM   16  C19 UNL     1      24.410   0.738  52.610  1.00  0.00     0.078 C 
ENDROOT
BRANCH   1  17
HETATM   17  C1  UNL     1      25.467  -0.367  54.451  1.00  0.00     0.247 C 
HETATM   18  O1  UNL     1      25.446  -1.083  55.500  1.00  0.00    -0.268 OA
HETATM   19  N1  UNL     1      26.721   0.079  54.016  1.00  0.00    -0.355 N 
HETATM   20  H1  UNL     1      26.596   0.664  53.133  1.00  0.00     0.162 HD
BRANCH  19  21
HETATM   21  C2  UNL     1      28.050  -0.104  54.527  1.00  0.00     0.156 C 
BRANCH  21  22
HETATM   22  C3  UNL     1      29.009   1.000  54.214  1.00  0.00     0.159 C 
BRANCH  22  23
HETATM   23  O2  UNL     1      30.088   0.529  53.515  1.00  0.00    -0.392 OA
HETATM   24  H5  UNL     1      29.813   0.113  52.665  1.00  0.00     0.210 HD
ENDBRANCH  22  23
BRANCH  22  25
HETATM   25  C4  UNL     1      28.364   2.093  53.383  1.00  0.00     0.197 C 
BRANCH  25  26
HETATM   26  O3  UNL     1      27.545   2.900  54.161  1.00  0.00    -0.398 OA
HETATM   27  H8  UNL     1      26.616   2.706  53.856  1.00  0.00     0.209 HD
ENDBRANCH  25  26
ENDBRANCH  22  25
ENDBRANCH  21  22
ENDBRANCH  19  21
ENDBRANCH   1  17
TORSDOF 6
ENDMDL
MODEL 3
REMARK VINA RESULT:      -8.1      5.540      7.712
REMARK  6 active torsions:
REMARK  status: ('A' for Active; 'I' for Inactive)
REMARK       I    between atoms: C1_2  and  N1_3 
REMARK    1  A    between atoms: C1_2  and  C5_9 
REMARK    2  A    between atoms: N1_3  and  C2_4 
REMARK    3  A    between atoms: C2_4  and  C3_5 
REMARK    4  A    between atoms: C3_5  and  O2_6 
REMARK    5  A    between atoms: C3_5  and  C4_7 
REMARK    6  A    between atoms: C4_7  and  O3_8 
ROOT
HETATM    1  C5  UNL     1      23.489   0.352  52.729  1.00  0.00     0.013 C 
HETATM    2  C6  UNL     1      23.211   0.886  51.552  1.00  0.00     0.013 C 
HETATM    3  C7  UNL     1      21.958   0.974  50.782  1.00  0.00    -0.003 C 
HETATM    4  C8  UNL     1      20.682   0.971  51.082  1.00  0.00    -0.017 C 
HETATM    5  C9  UNL     1      19.885   1.296  52.263  1.00  0.00     0.046 C 
HETATM    6  C10 UNL     1      20.713   1.539  53.496  1.00  0.00     0.048 C 
HETATM    7  C11 UNL     1      21.378   0.256  53.849  1.00  0.00    -0.074 C 
HETATM    8  C12 UNL     1      20.666  -0.818  54.125  1.00  0.00     0.015 C 
HETATM    9  C13 UNL     1      19.376  -0.904  53.412  1.00  0.00    -0.029 A 
HETATM   10  C14 UNL     1      18.615  -2.017  53.692  1.00  0.00     0.013 A 
HETATM   11  C15 UNL     1      17.395  -2.141  53.050  1.00  0.00     0.024 A 
HETATM   12  C16 UNL     1      17.026  -1.133  52.171  1.00  0.00     0.034 A 
HETATM   13 CL1  UNL     1      15.481  -1.240  51.327  1.00  0.00    -0.084 Cl
HETATM   14  C17 UNL     1      17.819  -0.013  51.905  1.00  0.00     0.032 A 
HETATM   15  C18 UNL     1      19.028   0.108  52.542  1.00  0.00    -0.038 A 
HETATM   16  C19 UNL     1      22.811  -0.111  53.966  1.00  0.00     0.078 C 
ENDROOT
BRANCH   1  17
HETATM   17  C1  UNL     1      24.926   0.146  52.874  1.00  0.00     0.247 C 
HETATM   18  O1  UNL     1      25.292  -0.874  53.536  1.00  0.00    -0.268 OA
HETATM   19  N1  UNL     1      25.940   0.962  52.358  1.00  0.00    -0.355 N 
HETATM   20  H1  UNL     1      25.499   1.775  51.828  1.00  0.00     0.162 HD
BRANCH  19  21
HETATM   21  C2  UNL     1      27.373   0.891  52.421  1.00  0.00     0.156 C 
BRANCH  21  22
HETATM   22  C3  UNL     1      28.001   1.698  53.513  1.00  0.00     0.159 C 
BRANCH  22  23
HETATM   23  O2  UNL     1      27.101   2.580  54.049  1.00  0.00    -0.392 OA
HETATM   24  H5  UNL     1      26.664   2.206  54.850  1.00  0.00     0.210 HD
ENDBRANCH  22  23
BRANCH  22  25
HETATM   25  C4  UNL     1      28.518   0.823  54.639  1.00  0.00     0.197 C 
BRANCH  25  26
HETATM   26  O3  UNL     1      27.852  -0.392  54.679  1.00  0.00    -0.398 OA
HETATM   27  H8  UNL     1      28.554  -1.073  54.872  1.00  0.00     0.209 HD
ENDBRANCH  25  26
ENDBRANCH  22  25
ENDBRANCH  21  22
ENDBRANCH  19  21
ENDBRANCH   1  17
TORSDOF 6
ENDMDL
MODEL 4
REMARK VINA RESULT:      -7.6      7.210     10.277
REMARK  6 active torsions:
REMARK  status: ('A' for Active; 'I' for Inactive)
REMARK       I    between atoms: C1_2  and  N1_3 
REMARK    1  A    between atoms: C1_2  and  C5_9 
REMARK    2  A    between atoms: N1_3  and  C2_4 
REMARK    3  A    between atoms: C2_4  and  C3_5 
REMARK    4  A    between atoms: C3_5  and  O2_6 
REMARK    5  A    between atoms: C3_5  and  C4_7 
REMARK    6  A    between atoms: C4_7  and  O3_8 
ROOT
HETATM    1  C5  UNL     1      18.607   2.846  51.543  1.00  0.00     0.013 C 
HETATM    2  C6  UNL     1      19.612   3.695  51.409  1.00  0.00     0.013 C 
HETATM    3  C7  UNL     1      21.041   3.590  51.755  1.00  0.00    -0.003 C 
HETATM    4  C8  UNL     1      21.893   2.604  51.896  1.00  0.00    -0.017 C 
HETATM    5  C9  UNL     1      21.994   1.232  51.402  1.00  0.00     0.046 C 
HETATM    6  C10 UNL     1      20.756   0.758  50.690  1.00  0.00     0.048 C 
HETATM    7  C11 UNL     1      19.657   0.703  51.692  1.00  0.00    -0.074 C 
HETATM    8  C12 UNL     1      19.753  -0.070  52.755  1.00  0.00     0.015 C 
HETATM    9  C13 UNL     1      21.129  -0.263  53.256  1.00  0.00    -0.029 A 
HETATM   10  C14 UNL     1      21.251  -1.072  54.363  1.00  0.00     0.013 A 
HETATM   11  C15 UNL     1      22.522  -1.287  54.867  1.00  0.00     0.024 A 
HETATM   12  C16 UNL     1      23.583  -0.671  54.220  1.00  0.00     0.034 A 
HETATM   13 CL1  UNL     1      25.223  -0.910  54.820  1.00  0.00    -0.084 Cl
HETATM   14  C17 UNL     1      23.430   0.147  53.096  1.00  0.00     0.032 A 
HETATM   15  C18 UNL     1      22.169   0.358  52.598  1.00  0.00    -0.038 A 
HETATM   16  C19 UNL     1      18.349   1.401  51.759  1.00  0.00     0.078 C 
ENDROOT
BRANCH   1  17
HETATM   17  C1  UNL     1      17.329   3.544  51.449  1.00  0.00     0.247 C 
HETATM   18  O1  UNL     1      17.303   4.594  50.735  1.00  0.00    -0.268 OA
HETATM   19  N1  UNL     1      16.130   3.172  52.069  1.00  0.00    -0.355 N 
HETATM   20  H1  UNL     1      16.290   2.280  52.632  1.00  0.00     0.162 HD
BRANCH  19  21
HETATM   21  C2  UNL     1      14.817   3.751  52.074  1.00  0.00     0.156 C 
BRANCH  21  22
HETATM   22  C3  UNL     1      14.216   3.952  53.429  1.00  0.00     0.159 C 
BRANCH  22  23
HETATM   23  O2  UNL     1      15.007   4.761  54.200  1.00  0.00    -0.392 OA
HETATM   24  H5  UNL     1      15.631   5.288  53.647  1.00  0.00     0.210 HD
ENDBRANCH  22  23
BRANCH  22  25
HETATM   25  C4  UNL     1      12.841   4.589  53.352  1.00  0.00     0.197 C 
BRANCH  25  26
HETATM   26  O3  UNL     1      12.054   3.972  52.390  1.00  0.00    -0.398 OA
HETATM   27  H8  UNL     1      12.570   4.043  51.540  1.00  0.00     0.209 HD
ENDBRANCH  25  26
ENDBRANCH  22  25
ENDBRANCH  21  22
ENDBRANCH  19  21
ENDBRANCH   1  17
TORSDOF 6
ENDMDL
MODEL 5
REMARK VINA RESULT:      -7.6      4.810      7.492
REMARK  6 active torsions:
REMARK  status: ('A' for Active; 'I' for Inactive)
REMARK       I    between atoms: C1_2  and  N1_3 
REMARK    1  A    between atoms: C1_2  and  C5_9 
REMARK    2  A    between atoms: N1_3  and  C2_4 
REMARK    3  A    between atoms: C2_4  and  C3_5 
REMARK    4  A    between atoms: C3_5  and  O2_6 
REMARK    5  A    between atoms: C3_5  and  C4_7 
REMARK    6  A    between atoms: C4_7  and  O3_8 
ROOT
HETATM    1  C5  UNL     1      24.680   3.193  50.313  1.00  0.00     0.013 C 
HETATM    2  C6  UNL     1      23.740   3.102  49.388  1.00  0.00     0.013 C 
HETATM    3  C7  UNL     1      22.435   2.419  49.374  1.00  0.00    -0.003 C 
HETATM    4  C8  UNL     1      21.571   2.049  50.288  1.00  0.00    -0.017 C 
HETATM    5  C9  UNL     1      21.248   2.465  51.650  1.00  0.00     0.046 C 
HETATM    6  C10 UNL     1      22.236   3.442  52.229  1.00  0.00     0.048 C 
HETATM    7  C11 UNL     1      23.538   2.736  52.364  1.00  0.00    -0.074 C 
HETATM    8  C12 UNL     1      23.645   1.659  53.118  1.00  0.00     0.015 C 
HETATM    9  C13 UNL     1      22.422   0.836  53.196  1.00  0.00    -0.029 A 
HETATM   10  C14 UNL     1      22.512  -0.290  53.983  1.00  0.00     0.013 A 
HETATM   11  C15 UNL     1      21.389  -1.093  54.090  1.00  0.00     0.024 A 
HETATM   12  C16 UNL     1      20.253  -0.704  53.396  1.00  0.00     0.034 A 
HETATM   13 CL1  UNL     1      18.794  -1.689  53.498  1.00  0.00    -0.084 Cl
HETATM   14  C17 UNL     1      20.189   0.445  52.603  1.00  0.00     0.032 A 
HETATM   15  C18 UNL     1      21.303   1.239  52.498  1.00  0.00    -0.038 A 
HETATM   16  C19 UNL     1      24.873   3.006  51.773  1.00  0.00     0.078 C 
ENDROOT
BRANCH   1  17
HETATM   17  C1  UNL     1      25.946   3.612  49.722  1.00  0.00     0.247 C 
HETATM   18  O1  UNL     1      26.880   2.751  49.703  1.00  0.00    -0.268 OA
HETATM   19  N1  UNL     1      26.234   4.868  49.174  1.00  0.00    -0.355 N 
HETATM   20  H1  UNL     1      25.371   5.489  49.253  1.00  0.00     0.162 HD
BRANCH  19  21
HETATM   21  C2  UNL     1      27.414   5.419  48.570  1.00  0.00     0.156 C 
BRANCH  21  22
HETATM   22  C3  UNL     1      27.525   6.909  48.638  1.00  0.00     0.159 C 
BRANCH  22  23
HETATM   23  O2  UNL     1      27.639   7.449  47.385  1.00  0.00    -0.392 OA
HETATM   24  H5  UNL     1      26.756   7.681  47.011  1.00  0.00     0.210 HD
ENDBRANCH  22  23
BRANCH  22  25
HETATM   25  C4  UNL     1      26.316   7.539  49.304  1.00  0.00     0.197 C 
BRANCH  25  26
HETATM   26  O3  UNL     1      26.422   7.494  50.686  1.00  0.00    -0.398 OA
HETATM   27  H8  UNL     1      26.263   6.541  50.932  1.00  0.00     0.209 HD
ENDBRANCH  25  26
ENDBRANCH  22  25
ENDBRANCH  21  22
ENDBRANCH  19  21
ENDBRANCH   1  17
TORSDOF 6
ENDMDL
MODEL 6
REMARK VINA RESULT:      -7.6      3.437      4.264
REMARK  6 active torsions:
REMARK  status: ('A' for Active; 'I' for Inactive)
REMARK       I    between atoms: C1_2  and  N1_3 
REMARK    1  A    between atoms: C1_2  and  C5_9 
REMARK    2  A    between atoms: N1_3  and  C2_4 
REMARK    3  A    between atoms: C2_4  and  C3_5 
REMARK    4  A    between atoms: C3_5  and  O2_6 
REMARK    5  A    between atoms: C3_5  and  C4_7 
REMARK    6  A    between atoms: C4_7  and  O3_8 
ROOT
HETATM    1  C5  UNL     1      21.683   3.402  51.406  1.00  0.00     0.013 C 
HETATM    2  C6  UNL     1      21.394   4.688  51.521  1.00  0.00     0.013 C 
HETATM    3  C7  UNL     1      22.108   5.900  51.082  1.00  0.00    -0.003 C 
HETATM    4  C8  UNL     1      22.971   6.178  50.135  1.00  0.00    -0.017 C 
HETATM    5  C9  UNL     1      23.326   5.598  48.842  1.00  0.00     0.046 C 
HETATM    6  C10 UNL     1      22.673   4.266  48.582  1.00  0.00     0.048 C 
HETATM    7  C11 UNL     1      23.216   3.300  49.574  1.00  0.00    -0.074 C 
HETATM    8  C12 UNL     1      24.507   3.040  49.624  1.00  0.00     0.015 C 
HETATM    9  C13 UNL     1      25.380   4.167  49.236  1.00  0.00    -0.029 A 
HETATM   10  C14 UNL     1      26.732   3.913  49.276  1.00  0.00     0.013 A 
HETATM   11  C15 UNL     1      27.591   4.938  48.918  1.00  0.00     0.024 A 
HETATM   12  C16 UNL     1      27.026   6.148  48.543  1.00  0.00     0.034 A 
HETATM   13 CL1  UNL     1      28.073   7.487  48.076  1.00  0.00    -0.084 Cl
HETATM   14  C17 UNL     1      25.648   6.379  48.511  1.00  0.00     0.032 A 
HETATM   15  C18 UNL     1      24.798   5.361  48.867  1.00  0.00    -0.038 A 
HETATM   16  C19 UNL     1      22.553   2.488  50.625  1.00  0.00     0.078 C 
ENDROOT
BRANCH   1  17
HETATM   17  C1  UNL     1      20.898   2.613  52.349  1.00  0.00     0.247 C 
HETATM   18  O1  UNL     1      19.872   3.173  52.847  1.00  0.00    -0.268 OA
HETATM   19  N1  UNL     1      21.163   1.301  52.760  1.00  0.00    -0.355 N 
HETATM   20  H1  UNL     1      22.043   0.953  52.270  1.00  0.00     0.162 HD
BRANCH  19  21
HETATM   21  C2  UNL     1      20.496   0.412  53.669  1.00  0.00     0.156 C 
BRANCH  21  22
HETATM   22  C3  UNL     1      21.388  -0.286  54.645  1.00  0.00     0.159 C 
BRANCH  22  23
HETATM   23  O2  UNL     1      20.895  -1.524  54.960  1.00  0.00    -0.392 OA
HETATM   24  H5  UNL     1      21.039  -2.167  54.227  1.00  0.00     0.210 HD
ENDBRANCH  22  23
BRANCH  22  25
HETATM   25  C4  UNL     1      22.790  -0.474  54.097  1.00  0.00     0.197 C 
BRANCH  25  26
HETATM   26  O3  UNL     1      22.779  -1.222  52.929  1.00  0.00    -0.398 OA
HETATM   27  H8  UNL     1      23.676  -1.085  52.518  1.00  0.00     0.209 HD
ENDBRANCH  25  26
ENDBRANCH  22  25
ENDBRANCH  21  22
ENDBRANCH  19  21
ENDBRANCH   1  17
TORSDOF 6
ENDMDL
MODEL 7
REMARK VINA RESULT:      -7.5      1.689      2.087
REMARK  6 active torsions:
REMARK  status: ('A' for Active; 'I' for Inactive)
REMARK       I    between atoms: C1_2  and  N1_3 
REMARK    1  A    between atoms: C1_2  and  C5_9 
REMARK    2  A    between atoms: N1_3  and  C2_4 
REMARK    3  A    between atoms: C2_4  and  C3_5 
REMARK    4  A    between atoms: C3_5  and  O2_6 
REMARK    5  A    between atoms: C3_5  and  C4_7 
REMARK    6  A    between atoms: C4_7  and  O3_8 
ROOT
HETATM    1  C5  UNL     1      23.865   2.805  51.718  1.00  0.00     0.013 C 
HETATM    2  C6  UNL     1      23.376   3.939  52.190  1.00  0.00     0.013 C 
HETATM    3  C7  UNL     1      23.687   5.347  51.885  1.00  0.00    -0.003 C 
HETATM    4  C8  UNL     1      24.175   5.987  50.850  1.00  0.00    -0.017 C 
HETATM    5  C9  UNL     1      24.255   5.742  49.412  1.00  0.00     0.046 C 
HETATM    6  C10 UNL     1      23.828   4.354  49.016  1.00  0.00     0.048 C 
HETATM    7  C11 UNL     1      24.806   3.399  49.602  1.00  0.00    -0.074 C 
HETATM    8  C12 UNL     1      26.084   3.464  49.284  1.00  0.00     0.015 C 
HETATM    9  C13 UNL     1      26.574   4.821  48.969  1.00  0.00    -0.029 A 
HETATM   10  C14 UNL     1      27.905   4.908  48.629  1.00  0.00     0.013 A 
HETATM   11  C15 UNL     1      28.411   6.160  48.322  1.00  0.00     0.024 A 
HETATM   12  C16 UNL     1      27.539   7.237  48.380  1.00  0.00     0.034 A 
HETATM   13 CL1  UNL     1      28.129   8.854  47.998  1.00  0.00    -0.084 Cl
HETATM   14  C17 UNL     1      26.190   7.120  48.729  1.00  0.00     0.032 A 
HETATM   15  C18 UNL     1      25.691   5.878  49.033  1.00  0.00    -0.038 A 
HETATM   16  C19 UNL     1      24.639   2.282  50.565  1.00  0.00     0.078 C 
ENDROOT
BRANCH   1  17
HETATM   17  C1  UNL     1      23.548   1.697  52.613  1.00  0.00     0.247 C 
HETATM   18  O1  UNL     1      22.338   1.592  52.986  1.00  0.00    -0.268 OA
HETATM   19  N1  UNL     1      24.445   0.739  53.103  1.00  0.00    -0.355 N 
HETATM   20  H1  UNL     1      25.417   0.941  52.715  1.00  0.00     0.162 HD
BRANCH  19  21
HETATM   21  C2  UNL     1      24.284  -0.387  53.979  1.00  0.00     0.156 C 
BRANCH  21  22
HETATM   22  C3  UNL     1      25.181  -0.394  55.175  1.00  0.00     0.159 C 
BRANCH  22  23
HETATM   23  O2  UNL     1      25.134  -1.603  55.816  1.00  0.00    -0.392 OA
HETATM   24  H5  UNL     1      25.975  -2.104  55.703  1.00  0.00     0.210 HD
ENDBRANCH  22  23
BRANCH  22  25
HETATM   25  C4  UNL     1      26.627  -0.126  54.802  1.00  0.00     0.197 C 
BRANCH  25  26
HETATM   26  O3  UNL     1      27.057  -0.988  53.803  1.00  0.00    -0.398 OA
HETATM   27  H8  UNL     1      26.723  -0.593  52.951  1.00  0.00     0.209 HD
ENDBRANCH  25  26
ENDBRANCH  22  25
ENDBRANCH  21  22
ENDBRANCH  19  21
ENDBRANCH   1  17
TORSDOF 6
ENDMDL
MODEL 8
REMARK VINA RESULT:      -7.5      4.179      6.087
REMARK  6 active torsions:
REMARK  status: ('A' for Active; 'I' for Inactive)
REMARK       I    between atoms: C1_2  and  N1_3 
REMARK    1  A    between atoms: C1_2  and  C5_9 
REMARK    2  A    between atoms: N1_3  and  C2_4 
REMARK    3  A    between atoms: C2_4  and  C3_5 
REMARK    4  A    between atoms: C3_5  and  O2_6 
REMARK    5  A    between atoms: C3_5  and  C4_7 
REMARK    6  A    between atoms: C4_7  and  O3_8 
ROOT
HETATM    1  C5  UNL     1      24.755   2.552  51.429  1.00  0.00     0.013 C 
HETATM    2  C6  UNL     1      24.483   2.883  50.179  1.00  0.00     0.013 C 
HETATM    3  C7  UNL     1      23.257   2.754  49.371  1.00  0.00    -0.003 C 
HETATM    4  C8  UNL     1      21.975   2.691  49.633  1.00  0.00    -0.017 C 
HETATM    5  C9  UNL     1      21.110   3.118  50.731  1.00  0.00     0.046 C 
HETATM    6  C10 UNL     1      21.868   3.606  51.936  1.00  0.00     0.048 C 
HETATM    7  C11 UNL     1      22.616   2.448  52.494  1.00  0.00    -0.074 C 
HETATM    8  C12 UNL     1      21.980   1.370  52.907  1.00  0.00     0.015 C 
HETATM    9  C13 UNL     1      20.728   1.075  52.181  1.00  0.00    -0.029 A 
HETATM   10  C14 UNL     1      20.046  -0.044  52.602  1.00  0.00     0.013 A 
HETATM   11  C15 UNL     1      18.864  -0.360  51.953  1.00  0.00     0.024 A 
HETATM   12  C16 UNL     1      18.453   0.475  50.924  1.00  0.00     0.034 A 
HETATM   13 CL1  UNL     1      16.955   0.119  50.064  1.00  0.00    -0.084 Cl
HETATM   14  C17 UNL     1      19.167   1.605  50.516  1.00  0.00     0.032 A 
HETATM   15  C18 UNL     1      20.338   1.917  51.161  1.00  0.00    -0.038 A 
HETATM   16  C19 UNL     1      24.068   2.220  52.703  1.00  0.00     0.078 C 
ENDROOT
BRANCH   1  17
HETATM   17  C1  UNL     1      26.197   2.488  51.642  1.00  0.00     0.247 C 
HETATM   18  O1  UNL     1      26.926   2.443  50.603  1.00  0.00    -0.268 OA
HETATM   19  N1  UNL     1      26.857   2.470  52.877  1.00  0.00    -0.355 N 
HETATM   20  H1  UNL     1      26.133   2.513  53.660  1.00  0.00     0.162 HD
BRANCH  19  21
HETATM   21  C2  UNL     1      28.245   2.405  53.239  1.00  0.00     0.156 C 
BRANCH  21  22
HETATM   22  C3  UNL     1      28.643   1.189  54.012  1.00  0.00     0.159 C 
BRANCH  22  23
HETATM   23  O2  UNL     1      29.135   1.531  55.243  1.00  0.00    -0.392 OA
HETATM   24  H5  UNL     1      30.117   1.450  55.275  1.00  0.00     0.210 HD
ENDBRANCH  22  23
BRANCH  22  25
HETATM   25  C4  UNL     1      27.476   0.245  54.227  1.00  0.00     0.197 C 
BRANCH  25  26
HETATM   26  O3  UNL     1      26.589   0.747  55.168  1.00  0.00    -0.398 OA
HETATM   27  H8  UNL     1      27.062   0.675  56.043  1.00  0.00     0.209 HD
ENDBRANCH  25  26
ENDBRANCH  22  25
ENDBRANCH  21  22
ENDBRANCH  19  21
ENDBRANCH   1  17
TORSDOF 6
ENDMDL
MODEL 9
REMARK VINA RESULT:      -7.4      2.336      2.870
REMARK  6 active torsions:
REMARK  status: ('A' for Active; 'I' for Inactive)
REMARK       I    between atoms: C1_2  and  N1_3 
REMARK    1  A    between atoms: C1_2  and  C5_9 
REMARK    2  A    between atoms: N1_3  and  C2_4 
REMARK    3  A    between atoms: C2_4  and  C3_5 
REMARK    4  A    between atoms: C3_5  and  O2_6 
REMARK    5  A    between atoms: C3_5  and  C4_7 
REMARK    6  A    between atoms: C4_7  and  O3_8 
ROOT
HETATM    1  C5  UNL     1      24.402   1.465  52.422  1.00  0.00     0.013 C 
HETATM    2  C6  UNL     1      23.117   1.241  52.637  1.00  0.00     0.013 C 
HETATM    3  C7  UNL     1      21.919   2.059  52.379  1.00  0.00    -0.003 C 
HETATM    4  C8  UNL     1      21.611   3.016  51.538  1.00  0.00    -0.017 C 
HETATM    5  C9  UNL     1      22.092   3.451  50.228  1.00  0.00     0.046 C 
HETATM    6  C10 UNL     1      23.348   2.749  49.787  1.00  0.00     0.048 C 
HETATM    7  C11 UNL     1      24.435   3.146  50.722  1.00  0.00    -0.074 C 
HETATM    8  C12 UNL     1      24.781   4.411  50.853  1.00  0.00     0.015 C 
HETATM    9  C13 UNL     1      23.683   5.377  50.651  1.00  0.00    -0.029 A 
HETATM   10  C14 UNL     1      24.027   6.704  50.778  1.00  0.00     0.013 A 
HETATM   11  C15 UNL     1      23.031   7.648  50.593  1.00  0.00     0.024 A 
HETATM   12  C16 UNL     1      21.758   7.188  50.292  1.00  0.00     0.034 A 
HETATM   13 CL1  UNL     1      20.452   8.347  50.046  1.00  0.00    -0.084 Cl
HETATM   14  C17 UNL     1      21.436   5.833  50.169  1.00  0.00     0.032 A 
HETATM   15  C18 UNL     1      22.424   4.899  50.353  1.00  0.00    -0.038 A 
HETATM   16  C19 UNL     1      25.295   2.347  51.630  1.00  0.00     0.078 C 
ENDROOT
BRANCH   1  17
HETATM   17  C1  UNL     1      25.222   0.555  53.215  1.00  0.00     0.247 C 
HETATM   18  O1  UNL     1      25.060  -0.687  53.008  1.00  0.00    -0.268 OA
HETATM   19  N1  UNL     1      26.169   0.916  54.182  1.00  0.00    -0.355 N 
HETATM   20  H1  UNL     1      26.205   1.980  54.255  1.00  0.00     0.162 HD
BRANCH  19  21
HETATM   21  C2  UNL     1      27.033   0.148  55.032  1.00  0.00     0.156 C 
BRANCH  21  22
HETATM   22  C3  UNL     1      28.458   0.070  54.585  1.00  0.00     0.159 C 
BRANCH  22  23
HETATM   23  O2  UNL     1      28.688  -1.081  53.880  1.00  0.00    -0.392 OA
HETATM   24  H5  UNL     1      29.553  -1.487  54.125  1.00  0.00     0.210 HD
ENDBRANCH  22  23
BRANCH  22  25
HETATM   25  C4  UNL     1      28.839   1.239  53.696  1.00  0.00     0.197 C 
BRANCH  25  26
HETATM   26  O3  UNL     1      28.620   2.450  54.336  1.00  0.00    -0.398 OA
HETATM   27  H8  UNL     1      28.930   2.315  55.274  1.00  0.00     0.209 HD
ENDBRANCH  25  26
ENDBRANCH  22  25
ENDBRANCH  21  22
ENDBRANCH  19  21
ENDBRANCH   1  17
TORSDOF 6
ENDMDL
