MODEL 1
REMARK VINA RESULT:      -7.8      0.000      0.000
REMARK  9 active torsions:
REMARK  status: ('A' for Active; 'I' for Inactive)
REMARK    1  A    between atoms: N1_1  and  C1_2 
REMARK    2  A    between atoms: C2_4  and  N3_5 
REMARK    3  A    between atoms: N3_5  and  C3_6 
REMARK    4  A    between atoms: C6_9  and  S1_10 
REMARK    5  A    between atoms: S1_10  and  N4_11 
REMARK    6  A    between atoms: N6_17  and  C9_18 
REMARK    7  A    between atoms: C9_18  and  C10_19 
REMARK    8  A    between atoms: C11_20  and  C12_21 
REMARK    9  A    between atoms: C13_22  and  C14_23 
ROOT
HETATM    1  C1  UNL     1      23.703  -1.256  55.172  1.00  0.00     0.733 A 
HETATM    2  N2  UNL     1      22.456  -1.602  55.527  1.00  0.00     0.131 NA
HETATM    3  C2  UNL     1      21.640  -1.346  54.466  1.00  0.00     0.760 A 
HETATM    4  N5  UNL     1      22.448  -0.855  53.521  1.00  0.00     0.037 NA
HETATM    5  N6  UNL     1      23.707  -0.787  53.915  1.00  0.00    -0.080 N 
ENDROOT
BRANCH   3   6
HETATM    6  N3  UNL     1      20.237  -1.576  54.441  1.00  0.00    -0.186 N 
HETATM    7  H3  UNL     1      19.831  -2.155  55.235  1.00  0.00     0.184 HD
BRANCH   6   8
HETATM    8  C3  UNL     1      19.317  -1.121  53.480  1.00  0.00     0.049 A 
HETATM    9  C4  UNL     1      18.035  -1.643  53.407  1.00  0.00     0.031 A 
HETATM   10  C5  UNL     1      17.110  -1.224  52.480  1.00  0.00     0.027 A 
HETATM   11  C6  UNL     1      17.419  -0.246  51.562  1.00  0.00     0.074 A 
HETATM   12  C7  UNL     1      18.678   0.302  51.594  1.00  0.00     0.027 A 
HETATM   13  C8  UNL     1      19.560  -0.157  52.543  1.00  0.00     0.031 A 
BRANCH  11  14
HETATM   14  S1  UNL     1      16.174   0.206  50.439  1.00  0.00     0.239 S 
HETATM   15  O1  UNL     1      16.153   1.710  50.268  1.00  0.00    -0.206 OA
HETATM   16  O2  UNL     1      14.811  -0.229  50.845  1.00  0.00    -0.206 OA
BRANCH  14  17
HETATM   17  N4  UNL     1      16.607  -0.484  48.894  1.00  0.00    -0.225 NA
HETATM   18  H6  UNL     1      15.933  -1.292  48.739  1.00  0.00     0.136 HD
HETATM   19  H7  UNL     1      16.374   0.205  48.147  1.00  0.00     0.136 HD
ENDBRANCH  14  17
ENDBRANCH  11  14
ENDBRANCH   6   8
ENDBRANCH   3   6
BRANCH   1  20
HETATM   20  N1  UNL     1      24.864  -1.367  55.999  1.00  0.00    -0.231 N 
HETATM   21  H1  UNL     1      25.761  -1.853  55.720  1.00  0.00     0.174 HD
HETATM   22  H2  UNL     1      24.960  -0.986  56.965  1.00  0.00     0.174 HD
ENDBRANCH   1  20
BRANCH   5  23
HETATM   23  C9  UNL     1      24.883  -0.317  53.197  1.00  0.00     0.198 C 
BRANCH  23  24
HETATM   24  C10 UNL     1      25.072   1.134  53.331  1.00  0.00    -0.005 C 
HETATM   25  C11 UNL     1      26.152   1.740  53.792  1.00  0.00    -0.002 C 
BRANCH  25  26
HETATM   26  C12 UNL     1      27.326   1.019  54.236  1.00  0.00    -0.000 C 
HETATM   27  C13 UNL     1      28.324   0.723  53.388  1.00  0.00     0.002 C 
BRANCH  27  28
HETATM   28  C14 UNL     1      29.526   0.001  53.780  1.00  0.00     0.029 C 
HETATM   29  C15 UNL     1      29.644  -1.305  53.520  1.00  0.00     0.188 C 
HETATM   30  F1  UNL     1      28.441  -1.471  52.914  1.00  0.00    -0.219 F 
ENDBRANCH  27  28
ENDBRANCH  25  26
ENDBRANCH  23  24
ENDBRANCH   5  23
TORSDOF 9
ENDMDL
MODEL 2
REMARK VINA RESULT:      -7.8      5.772      8.138
REMARK  9 active torsions:
REMARK  status: ('A' for Active; 'I' for Inactive)
REMARK    1  A    between atoms: N1_1  and  C1_2 
REMARK    2  A    between atoms: C2_4  and  N3_5 
REMARK    3  A    between atoms: N3_5  and  C3_6 
REMARK    4  A    between atoms: C6_9  and  S1_10 
REMARK    5  A    between atoms: S1_10  and  N4_11 
REMARK    6  A    between atoms: N6_17  and  C9_18 
REMARK    7  A    between atoms: C9_18  and  C10_19 
REMARK    8  A    between atoms: C11_20  and  C12_21 
REMARK    9  A    between atoms: C13_22  and  C14_23 
ROOT
HETATM    1  C1  UNL     1      20.179   0.423  52.000  1.00  0.00     0.733 A 
HETATM    2  N2  UNL     1      20.849  -0.282  52.924  1.00  0.00     0.131 NA
HETATM    3  C2  UNL     1      22.180  -0.141  52.665  1.00  0.00     0.760 A 
HETATM    4  N5  UNL     1      22.238   0.650  51.588  1.00  0.00     0.037 NA
HETATM    5  N6  UNL     1      21.043   1.010  51.158  1.00  0.00    -0.080 N 
ENDROOT
BRANCH   3   6
HETATM    6  N3  UNL     1      23.227  -0.736  53.421  1.00  0.00    -0.186 N 
HETATM    7  H3  UNL     1      22.999  -1.645  53.923  1.00  0.00     0.184 HD
BRANCH   6   8
HETATM    8  C3  UNL     1      24.540  -0.257  53.580  1.00  0.00     0.049 A 
HETATM    9  C4  UNL     1      25.133   0.550  52.622  1.00  0.00     0.031 A 
HETATM   10  C5  UNL     1      26.413   1.035  52.744  1.00  0.00     0.027 A 
HETATM   11  C6  UNL     1      27.182   0.739  53.845  1.00  0.00     0.074 A 
HETATM   12  C7  UNL     1      26.639  -0.059  54.823  1.00  0.00     0.027 A 
HETATM   13  C8  UNL     1      25.354  -0.515  54.647  1.00  0.00     0.031 A 
BRANCH  11  14
HETATM   14  S1  UNL     1      28.784   1.406  53.894  1.00  0.00     0.239 S 
HETATM   15  O1  UNL     1      29.770   0.430  53.284  1.00  0.00    -0.206 OA
HETATM   16  O2  UNL     1      29.256   1.738  55.264  1.00  0.00    -0.206 OA
BRANCH  14  17
HETATM   17  N4  UNL     1      28.774   2.830  52.882  1.00  0.00    -0.225 NA
HETATM   18  H6  UNL     1      27.864   3.335  53.102  1.00  0.00     0.136 HD
HETATM   19  H7  UNL     1      29.524   3.476  53.212  1.00  0.00     0.136 HD
ENDBRANCH  14  17
ENDBRANCH  11  14
ENDBRANCH   6   8
ENDBRANCH   3   6
BRANCH   1  20
HETATM   20  N1  UNL     1      18.757   0.540  51.915  1.00  0.00    -0.231 N 
HETATM   21  H1  UNL     1      18.087  -0.276  51.836  1.00  0.00     0.174 HD
HETATM   22  H2  UNL     1      18.219   1.433  51.918  1.00  0.00     0.174 HD
ENDBRANCH   1  20
BRANCH   5  23
HETATM   23  C9  UNL     1      20.674   1.854  50.030  1.00  0.00     0.198 C 
BRANCH  23  24
HETATM   24  C10 UNL     1      21.249   1.372  48.767  1.00  0.00    -0.005 C 
HETATM   25  C11 UNL     1      22.282   1.896  48.130  1.00  0.00    -0.002 C 
BRANCH  25  26
HETATM   26  C12 UNL     1      23.001   3.052  48.622  1.00  0.00    -0.000 C 
HETATM   27  C13 UNL     1      23.941   2.935  49.573  1.00  0.00     0.002 C 
BRANCH  27  28
HETATM   28  C14 UNL     1      24.694   4.063  50.105  1.00  0.00     0.029 C 
HETATM   29  C15 UNL     1      26.008   4.160  49.883  1.00  0.00     0.188 C 
HETATM   30  F1  UNL     1      26.147   3.023  49.156  1.00  0.00    -0.219 F 
ENDBRANCH  27  28
ENDBRANCH  25  26
ENDBRANCH  23  24
ENDBRANCH   5  23
TORSDOF 9
ENDMDL
MODEL 3
REMARK VINA RESULT:      -7.7      4.805      7.644
REMARK  9 active torsions:
REMARK  status: ('A' for Active; 'I' for Inactive)
REMARK    1  A    between atoms: N1_1  and  C1_2 
REMARK    2  A    between atoms: C2_4  and  N3_5 
REMARK    3  A    between atoms: N3_5  and  C3_6 
REMARK    4  A    between atoms: C6_9  and  S1_10 
REMARK    5  A    between atoms: S1_10  and  N4_11 
REMARK    6  A    between atoms: N6_17  and  C9_18 
REMARK    7  A    between atoms: C9_18  and  C10_19 
REMARK    8  A    between atoms: C11_20  and  C12_21 
REMARK    9  A    between atoms: C13_22  and  C14_23 
ROOT
HETATM    1  C1  UNL     1      24.760  -0.881  54.785  1.00  0.00     0.733 A 
HETATM    2  N2  UNL     1      25.763  -0.295  54.113  1.00  0.00     0.131 NA
HETATM    3  C2  UNL     1      25.253   0.173  52.939  1.00  0.00     0.760 A 
HETATM    4  N5  UNL     1      23.958  -0.160  52.969  1.00  0.00     0.037 NA
HETATM    5  N6  UNL     1      23.625  -0.800  54.075  1.00  0.00    -0.080 N 
ENDROOT
BRANCH   3   6
HETATM    6  N3  UNL     1      25.998   0.860  51.941  1.00  0.00    -0.186 N 
HETATM    7  H3  UNL     1      26.828   0.345  51.522  1.00  0.00     0.184 HD
BRANCH   6   8
HETATM    8  C3  UNL     1      25.760   2.153  51.441  1.00  0.00     0.049 A 
HETATM    9  C4  UNL     1      26.544   2.690  50.432  1.00  0.00     0.031 A 
HETATM   10  C5  UNL     1      26.341   3.949  49.920  1.00  0.00     0.027 A 
HETATM   11  C6  UNL     1      25.329   4.753  50.393  1.00  0.00     0.074 A 
HETATM   12  C7  UNL     1      24.525   4.266  51.393  1.00  0.00     0.027 A 
HETATM   13  C8  UNL     1      24.775   2.999  51.867  1.00  0.00     0.031 A 
BRANCH  11  14
HETATM   14  S1  UNL     1      25.166   6.325  49.672  1.00  0.00     0.239 S 
HETATM   15  O1  UNL     1      23.711   6.749  49.682  1.00  0.00    -0.206 OA
HETATM   16  O2  UNL     1      25.656   6.397  48.270  1.00  0.00    -0.206 OA
BRANCH  14  17
HETATM   17  N4  UNL     1      26.037   7.445  50.690  1.00  0.00    -0.225 NA
HETATM   18  H6  UNL     1      26.225   8.299  50.084  1.00  0.00     0.136 HD
HETATM   19  H7  UNL     1      25.394   7.785  51.436  1.00  0.00     0.136 HD
ENDBRANCH  14  17
ENDBRANCH  11  14
ENDBRANCH   6   8
ENDBRANCH   3   6
BRANCH   1  20
HETATM   20  N1  UNL     1      24.871  -1.501  56.068  1.00  0.00    -0.231 N 
HETATM   21  H1  UNL     1      24.155  -2.158  56.486  1.00  0.00     0.174 HD
HETATM   22  H2  UNL     1      25.663  -1.379  56.736  1.00  0.00     0.174 HD
ENDBRANCH   1  20
BRANCH   5  23
HETATM   23  C9  UNL     1      22.334  -1.329  54.491  1.00  0.00     0.198 C 
BRANCH  23  24
HETATM   24  C10 UNL     1      21.414  -0.268  54.922  1.00  0.00    -0.005 C 
HETATM   25  C11 UNL     1      20.526   0.351  54.163  1.00  0.00    -0.002 C 
BRANCH  25  26
HETATM   26  C12 UNL     1      20.348   0.044  52.760  1.00  0.00    -0.000 C 
HETATM   27  C13 UNL     1      20.712   0.914  51.804  1.00  0.00     0.002 C 
BRANCH  27  28
HETATM   28  C14 UNL     1      20.555   0.658  50.379  1.00  0.00     0.029 C 
HETATM   29  C15 UNL     1      21.555   0.922  49.533  1.00  0.00     0.188 C 
HETATM   30  F1  UNL     1      22.441   1.386  50.449  1.00  0.00    -0.219 F 
ENDBRANCH  27  28
ENDBRANCH  25  26
ENDBRANCH  23  24
ENDBRANCH   5  23
TORSDOF 9
ENDMDL
MODEL 4
REMARK VINA RESULT:      -7.6      5.478      8.475
REMARK  9 active torsions:
REMARK  status: ('A' for Active; 'I' for Inactive)
REMARK    1  A    between atoms: N1_1  and  C1_2 
REMARK    2  A    between atoms: C2_4  and  N3_5 
REMARK    3  A    between atoms: N3_5  and  C3_6 
REMARK    4  A    between atoms: C6_9  and  S1_10 
REMARK    5  A    between atoms: S1_10  and  N4_11 
REMARK    6  A    between atoms: N6_17  and  C9_18 
REMARK    7  A    between atoms: C9_18  and  C10_19 
REMARK    8  A    between atoms: C11_20  and  C12_21 
REMARK    9  A    between atoms: C13_22  and  C14_23 
ROOT
HETATM    1  C1  UNL     1      20.981   4.032  50.508  1.00  0.00     0.733 A 
HETATM    2  N2  UNL     1      22.277   4.379  50.499  1.00  0.00     0.131 NA
HETATM    3  C2  UNL     1      22.873   3.774  51.565  1.00  0.00     0.760 A 
HETATM    4  N5  UNL     1      21.893   3.089  52.163  1.00  0.00     0.037 NA
HETATM    5  N6  UNL     1      20.732   3.222  51.549  1.00  0.00    -0.080 N 
ENDROOT
BRANCH   3   6
HETATM    6  N3  UNL     1      24.248   3.892  51.906  1.00  0.00    -0.186 N 
HETATM    7  H3  UNL     1      24.663   4.871  51.895  1.00  0.00     0.184 HD
BRANCH   6   8
HETATM    8  C3  UNL     1      25.128   2.854  52.261  1.00  0.00     0.049 A 
HETATM    9  C4  UNL     1      25.427   2.585  53.588  1.00  0.00     0.031 A 
HETATM   10  C5  UNL     1      26.283   1.580  53.970  1.00  0.00     0.027 A 
HETATM   11  C6  UNL     1      26.896   0.776  53.037  1.00  0.00     0.074 A 
HETATM   12  C7  UNL     1      26.633   1.004  51.709  1.00  0.00     0.027 A 
HETATM   13  C8  UNL     1      25.769   2.023  51.385  1.00  0.00     0.031 A 
BRANCH  11  14
HETATM   14  S1  UNL     1      27.957  -0.461  53.635  1.00  0.00     0.239 S 
HETATM   15  O1  UNL     1      27.978  -0.438  55.149  1.00  0.00    -0.206 OA
HETATM   16  O2  UNL     1      29.359  -0.335  53.154  1.00  0.00    -0.206 OA
BRANCH  14  17
HETATM   17  N4  UNL     1      27.275  -1.995  53.151  1.00  0.00    -0.225 NA
HETATM   18  H6  UNL     1      28.097  -2.588  52.830  1.00  0.00     0.136 HD
HETATM   19  H7  UNL     1      26.913  -2.479  54.001  1.00  0.00     0.136 HD
ENDBRANCH  14  17
ENDBRANCH  11  14
ENDBRANCH   6   8
ENDBRANCH   3   6
BRANCH   1  20
HETATM   20  N1  UNL     1      20.000   4.453  49.556  1.00  0.00    -0.231 N 
HETATM   21  H1  UNL     1      20.045   5.353  49.001  1.00  0.00     0.174 HD
HETATM   22  H2  UNL     1      19.136   3.929  49.302  1.00  0.00     0.174 HD
ENDBRANCH   1  20
BRANCH   5  23
HETATM   23  C9  UNL     1      19.435   2.648  51.875  1.00  0.00     0.198 C 
BRANCH  23  24
HETATM   24  C10 UNL     1      19.181   1.399  51.144  1.00  0.00    -0.005 C 
HETATM   25  C11 UNL     1      19.489   0.180  51.553  1.00  0.00    -0.002 C 
BRANCH  25  26
HETATM   26  C12 UNL     1      20.137  -0.080  52.821  1.00  0.00    -0.000 C 
HETATM   27  C13 UNL     1      21.440  -0.393  52.886  1.00  0.00     0.002 C 
BRANCH  27  28
HETATM   28  C14 UNL     1      22.143  -0.663  54.133  1.00  0.00     0.029 C 
HETATM   29  C15 UNL     1      23.479  -0.666  54.168  1.00  0.00     0.188 C 
HETATM   30  F1  UNL     1      23.688  -0.379  52.858  1.00  0.00    -0.219 F 
ENDBRANCH  27  28
ENDBRANCH  25  26
ENDBRANCH  23  24
ENDBRANCH   5  23
TORSDOF 9
ENDMDL
MODEL 5
REMARK VINA RESULT:      -7.5      7.843     10.127
REMARK  9 active torsions:
REMARK  status: ('A' for Active; 'I' for Inactive)
REMARK    1  A    between atoms: N1_1  and  C1_2 
REMARK    2  A    between atoms: C2_4  and  N3_5 
REMARK    3  A    between atoms: N3_5  and  C3_6 
REMARK    4  A    between atoms: C6_9  and  S1_10 
REMARK    5  A    between atoms: S1_10  and  N4_11 
REMARK    6  A    between atoms: N6_17  and  C9_18 
REMARK    7  A    between atoms: C9_18  and  C10_19 
REMARK    8  A    between atoms: C11_20  and  C12_21 
REMARK    9  A    between atoms: C13_22  and  C14_23 
ROOT
HETATM    1  C1  UNL     1      23.674   4.669  52.010  1.00  0.00     0.733 A 
HETATM    2  N2  UNL     1      23.984   5.377  50.913  1.00  0.00     0.131 NA
HETATM    3  C2  UNL     1      24.883   4.648  50.193  1.00  0.00     0.760 A 
HETATM    4  N5  UNL     1      25.067   3.530  50.903  1.00  0.00     0.037 NA
HETATM    5  N6  UNL     1      24.349   3.509  52.011  1.00  0.00    -0.080 N 
ENDROOT
BRANCH   3   6
HETATM    6  N3  UNL     1      25.460   5.053  48.958  1.00  0.00    -0.186 N 
HETATM    7  H3  UNL     1      24.909   4.832  48.075  1.00  0.00     0.184 HD
BRANCH   6   8
HETATM    8  C3  UNL     1      26.684   5.719  48.769  1.00  0.00     0.049 A 
HETATM    9  C4  UNL     1      27.861   5.015  48.563  1.00  0.00     0.031 A 
HETATM   10  C5  UNL     1      29.075   5.632  48.376  1.00  0.00     0.027 A 
HETATM   11  C6  UNL     1      29.183   7.004  48.383  1.00  0.00     0.074 A 
HETATM   12  C7  UNL     1      28.045   7.745  48.584  1.00  0.00     0.027 A 
HETATM   13  C8  UNL     1      26.858   7.074  48.765  1.00  0.00     0.031 A 
BRANCH  11  14
HETATM   14  S1  UNL     1      30.766   7.674  48.136  1.00  0.00     0.239 S 
HETATM   15  O1  UNL     1      30.655   9.028  47.466  1.00  0.00    -0.206 OA
HETATM   16  O2  UNL     1      31.657   6.822  47.305  1.00  0.00    -0.206 OA
BRANCH  14  17
HETATM   17  N4  UNL     1      31.461   7.935  49.717  1.00  0.00    -0.225 NA
HETATM   18  H6  UNL     1      32.468   7.599  49.649  1.00  0.00     0.136 HD
HETATM   19  H7  UNL     1      31.533   8.962  49.881  1.00  0.00     0.136 HD
ENDBRANCH  14  17
ENDBRANCH  11  14
ENDBRANCH   6   8
ENDBRANCH   3   6
BRANCH   1  20
HETATM   20  N1  UNL     1      22.763   5.077  53.033  1.00  0.00    -0.231 N 
HETATM   21  H1  UNL     1      21.958   4.492  53.394  1.00  0.00     0.174 HD
HETATM   22  H2  UNL     1      22.783   5.990  53.536  1.00  0.00     0.174 HD
ENDBRANCH   1  20
BRANCH   5  23
HETATM   23  C9  UNL     1      24.264   2.488  53.046  1.00  0.00     0.198 C 
BRANCH  23  24
HETATM   24  C10 UNL     1      24.316   1.129  52.490  1.00  0.00    -0.005 C 
HETATM   25  C11 UNL     1      25.378   0.343  52.452  1.00  0.00    -0.002 C 
BRANCH  25  26
HETATM   26  C12 UNL     1      26.666   0.741  52.977  1.00  0.00    -0.000 C 
HETATM   27  C13 UNL     1      27.640  -0.158  53.191  1.00  0.00     0.002 C 
BRANCH  27  28
HETATM   28  C14 UNL     1      28.954   0.187  53.716  1.00  0.00     0.029 C 
HETATM   29  C15 UNL     1      29.969  -0.676  53.612  1.00  0.00     0.188 C 
HETATM   30  F1  UNL     1      29.293  -1.665  52.975  1.00  0.00    -0.219 F 
ENDBRANCH  27  28
ENDBRANCH  25  26
ENDBRANCH  23  24
ENDBRANCH   5  23
TORSDOF 9
ENDMDL
MODEL 6
REMARK VINA RESULT:      -7.5      7.690     10.263
REMARK  9 active torsions:
REMARK  status: ('A' for Active; 'I' for Inactive)
REMARK    1  A    between atoms: N1_1  and  C1_2 
REMARK    2  A    between atoms: C2_4  and  N3_5 
REMARK    3  A    between atoms: N3_5  and  C3_6 
REMARK    4  A    between atoms: C6_9  and  S1_10 
REMARK    5  A    between atoms: S1_10  and  N4_11 
REMARK    6  A    between atoms: N6_17  and  C9_18 
REMARK    7  A    between atoms: C9_18  and  C10_19 
REMARK    8  A    between atoms: C11_20  and  C12_21 
REMARK    9  A    between atoms: C13_22  and  C14_23 
ROOT
HETATM    1  C1  UNL     1      24.958   2.902  51.575  1.00  0.00     0.733 A 
HETATM    2  N2  UNL     1      25.138   3.561  50.420  1.00  0.00     0.131 NA
HETATM    3  C2  UNL     1      26.452   3.443  50.080  1.00  0.00     0.760 A 
HETATM    4  N5  UNL     1      26.997   2.713  51.058  1.00  0.00     0.037 NA
HETATM    5  N6  UNL     1      26.120   2.367  51.982  1.00  0.00    -0.080 N 
ENDROOT
BRANCH   3   6
HETATM    6  N3  UNL     1      27.048   4.005  48.916  1.00  0.00    -0.186 N 
HETATM    7  H3  UNL     1      27.200   3.351  48.092  1.00  0.00     0.184 HD
BRANCH   6   8
HETATM    8  C3  UNL     1      27.460   5.336  48.730  1.00  0.00     0.049 A 
HETATM    9  C4  UNL     1      26.601   6.397  48.976  1.00  0.00     0.031 A 
HETATM   10  C5  UNL     1      26.969   7.710  48.804  1.00  0.00     0.027 A 
HETATM   11  C6  UNL     1      28.232   8.042  48.371  1.00  0.00     0.074 A 
HETATM   12  C7  UNL     1      29.120   7.026  48.113  1.00  0.00     0.027 A 
HETATM   13  C8  UNL     1      28.696   5.732  48.304  1.00  0.00     0.031 A 
BRANCH  11  14
HETATM   14  S1  UNL     1      28.587   9.732  48.189  1.00  0.00     0.239 S 
HETATM   15  O1  UNL     1      27.811  10.300  47.019  1.00  0.00    -0.206 OA
HETATM   16  O2  UNL     1      30.029  10.023  47.969  1.00  0.00    -0.206 OA
BRANCH  14  17
HETATM   17  N4  UNL     1      28.009  10.532  49.630  1.00  0.00    -0.225 NA
HETATM   18  H6  UNL     1      28.315  11.547  49.540  1.00  0.00     0.136 HD
HETATM   19  H7  UNL     1      26.968  10.564  49.596  1.00  0.00     0.136 HD
ENDBRANCH  14  17
ENDBRANCH  11  14
ENDBRANCH   6   8
ENDBRANCH   3   6
BRANCH   1  20
HETATM   20  N1  UNL     1      23.719   2.779  52.278  1.00  0.00    -0.231 N 
HETATM   21  H1  UNL     1      23.619   2.419  53.268  1.00  0.00     0.174 HD
HETATM   22  H2  UNL     1      22.779   3.026  51.900  1.00  0.00     0.174 HD
ENDBRANCH   1  20
BRANCH   5  23
HETATM   23  C9  UNL     1      26.304   1.583  53.195  1.00  0.00     0.198 C 
BRANCH  23  24
HETATM   24  C10 UNL     1      26.435   0.147  52.912  1.00  0.00    -0.005 C 
HETATM   25  C11 UNL     1      25.600  -0.803  53.297  1.00  0.00    -0.002 C 
BRANCH  25  26
HETATM   26  C12 UNL     1      24.408  -0.530  54.072  1.00  0.00    -0.000 C 
HETATM   27  C13 UNL     1      23.187  -0.602  53.520  1.00  0.00     0.002 C 
BRANCH  27  28
HETATM   28  C14 UNL     1      21.955  -0.339  54.251  1.00  0.00     0.029 C 
HETATM   29  C15 UNL     1      21.074  -1.322  54.463  1.00  0.00     0.188 C 
HETATM   30  F1  UNL     1      21.758  -2.309  53.832  1.00  0.00    -0.219 F 
ENDBRANCH  27  28
ENDBRANCH  25  26
ENDBRANCH  23  24
ENDBRANCH   5  23
TORSDOF 9
ENDMDL
MODEL 7
REMARK VINA RESULT:      -7.4      2.222      3.254
REMARK  9 active torsions:
REMARK  status: ('A' for Active; 'I' for Inactive)
REMARK    1  A    between atoms: N1_1  and  C1_2 
REMARK    2  A    between atoms: C2_4  and  N3_5 
REMARK    3  A    between atoms: N3_5  and  C3_6 
REMARK    4  A    between atoms: C6_9  and  S1_10 
REMARK    5  A    between atoms: S1_10  and  N4_11 
REMARK    6  A    between atoms: N6_17  and  C9_18 
REMARK    7  A    between atoms: C9_18  and  C10_19 
REMARK    8  A    between atoms: C11_20  and  C12_21 
REMARK    9  A    between atoms: C13_22  and  C14_23 
ROOT
HETATM    1  C1  UNL     1      23.872  -1.237  55.230  1.00  0.00     0.733 A 
HETATM    2  N2  UNL     1      22.618  -1.569  55.573  1.00  0.00     0.131 NA
HETATM    3  C2  UNL     1      21.817  -1.312  54.501  1.00  0.00     0.760 A 
HETATM    4  N5  UNL     1      22.640  -0.835  53.562  1.00  0.00     0.037 NA
HETATM    5  N6  UNL     1      23.895  -0.776  53.971  1.00  0.00    -0.080 N 
ENDROOT
BRANCH   3   6
HETATM    6  N3  UNL     1      20.412  -1.530  54.462  1.00  0.00    -0.186 N 
HETATM    7  H3  UNL     1      19.996  -2.127  55.238  1.00  0.00     0.184 HD
BRANCH   6   8
HETATM    8  C3  UNL     1      19.502  -1.043  53.506  1.00  0.00     0.049 A 
HETATM    9  C4  UNL     1      18.216  -1.552  53.412  1.00  0.00     0.031 A 
HETATM   10  C5  UNL     1      17.301  -1.101  52.490  1.00  0.00     0.027 A 
HETATM   11  C6  UNL     1      17.624  -0.102  51.601  1.00  0.00     0.074 A 
HETATM   12  C7  UNL     1      18.887   0.434  51.654  1.00  0.00     0.027 A 
HETATM   13  C8  UNL     1      19.759  -0.057  52.597  1.00  0.00     0.031 A 
BRANCH  11  14
HETATM   14  S1  UNL     1      16.390   0.389  50.482  1.00  0.00     0.239 S 
HETATM   15  O1  UNL     1      16.529   1.866  50.175  1.00  0.00    -0.206 OA
HETATM   16  O2  UNL     1      15.006   0.149  50.970  1.00  0.00    -0.206 OA
BRANCH  14  17
HETATM   17  N4  UNL     1      16.678  -0.477  48.993  1.00  0.00    -0.225 NA
HETATM   18  H6  UNL     1      17.732  -0.458  48.846  1.00  0.00     0.136 HD
HETATM   19  H7  UNL     1      16.449  -1.483  49.145  1.00  0.00     0.136 HD
ENDBRANCH  14  17
ENDBRANCH  11  14
ENDBRANCH   6   8
ENDBRANCH   3   6
BRANCH   1  20
HETATM   20  N1  UNL     1      25.022  -1.353  56.072  1.00  0.00    -0.231 N 
HETATM   21  H1  UNL     1      24.994  -1.437  57.126  1.00  0.00     0.174 HD
HETATM   22  H2  UNL     1      26.013  -1.367  55.748  1.00  0.00     0.174 HD
ENDBRANCH   1  20
BRANCH   5  23
HETATM   23  C9  UNL     1      25.083  -0.321  53.264  1.00  0.00     0.198 C 
BRANCH  23  24
HETATM   24  C10 UNL     1      25.393   1.087  53.547  1.00  0.00    -0.005 C 
HETATM   25  C11 UNL     1      24.769   2.138  53.045  1.00  0.00    -0.002 C 
BRANCH  25  26
HETATM   26  C12 UNL     1      23.660   2.024  52.121  1.00  0.00    -0.000 C 
HETATM   27  C13 UNL     1      23.813   2.287  50.814  1.00  0.00     0.002 C 
BRANCH  27  28
HETATM   28  C14 UNL     1      22.734   2.188  49.841  1.00  0.00     0.029 C 
HETATM   29  C15 UNL     1      22.830   2.810  48.661  1.00  0.00     0.188 C 
HETATM   30  F1  UNL     1      24.054   3.363  48.856  1.00  0.00    -0.219 F 
ENDBRANCH  27  28
ENDBRANCH  25  26
ENDBRANCH  23  24
ENDBRANCH   5  23
TORSDOF 9
ENDMDL
MODEL 8
REMARK VINA RESULT:      -7.3      6.009      8.433
REMARK  9 active torsions:
REMARK  status: ('A' for Active; 'I' for Inactive)
REMARK    1  A    between atoms: N1_1  and  C1_2 
REMARK    2  A    between atoms: C2_4  and  N3_5 
REMARK    3  A    between atoms: N3_5  and  C3_6 
REMARK    4  A    between atoms: C6_9  and  S1_10 
REMARK    5  A    between atoms: S1_10  and  N4_11 
REMARK    6  A    between atoms: N6_17  and  C9_18 
REMARK    7  A    between atoms: C9_18  and  C10_19 
REMARK    8  A    between atoms: C11_20  and  C12_21 
REMARK    9  A    between atoms: C13_22  and  C14_23 
ROOT
HETATM    1  C1  UNL     1      20.255   0.540  52.065  1.00  0.00     0.733 A 
HETATM    2  N2  UNL     1      21.080  -0.474  52.369  1.00  0.00     0.131 NA
HETATM    3  C2  UNL     1      22.227   0.065  52.870  1.00  0.00     0.760 A 
HETATM    4  N5  UNL     1      22.029   1.387  52.839  1.00  0.00     0.037 NA
HETATM    5  N6  UNL     1      20.843   1.711  52.357  1.00  0.00    -0.080 N 
ENDROOT
BRANCH   3   6
HETATM    6  N3  UNL     1      23.354  -0.681  53.311  1.00  0.00    -0.186 N 
HETATM    7  H3  UNL     1      23.199  -1.714  53.509  1.00  0.00     0.184 HD
BRANCH   6   8
HETATM    8  C3  UNL     1      24.662  -0.205  53.517  1.00  0.00     0.049 A 
HETATM    9  C4  UNL     1      25.320   0.533  52.545  1.00  0.00     0.031 A 
HETATM   10  C5  UNL     1      26.597   1.013  52.711  1.00  0.00     0.027 A 
HETATM   11  C6  UNL     1      27.298   0.780  53.872  1.00  0.00     0.074 A 
HETATM   12  C7  UNL     1      26.689   0.052  54.865  1.00  0.00     0.027 A 
HETATM   13  C8  UNL     1      25.410  -0.402  54.643  1.00  0.00     0.031 A 
BRANCH  11  14
HETATM   14  S1  UNL     1      28.903   1.433  53.972  1.00  0.00     0.239 S 
HETATM   15  O1  UNL     1      29.900   0.447  53.398  1.00  0.00    -0.206 OA
HETATM   16  O2  UNL     1      29.332   1.767  55.356  1.00  0.00    -0.206 OA
BRANCH  14  17
HETATM   17  N4  UNL     1      28.940   2.854  52.956  1.00  0.00    -0.225 NA
HETATM   18  H6  UNL     1      28.066   3.408  53.201  1.00  0.00     0.136 HD
HETATM   19  H7  UNL     1      29.733   3.459  53.260  1.00  0.00     0.136 HD
ENDBRANCH  14  17
ENDBRANCH  11  14
ENDBRANCH   6   8
ENDBRANCH   3   6
BRANCH   1  20
HETATM   20  N1  UNL     1      18.943   0.408  51.513  1.00  0.00    -0.231 N 
HETATM   21  H1  UNL     1      18.043   0.565  52.047  1.00  0.00     0.174 HD
HETATM   22  H2  UNL     1      18.722   0.141  50.529  1.00  0.00     0.174 HD
ENDBRANCH   1  20
BRANCH   5  23
HETATM   23  C9  UNL     1      20.245   3.023  52.158  1.00  0.00     0.198 C 
BRANCH  23  24
HETATM   24  C10 UNL     1      21.192   4.112  52.437  1.00  0.00    -0.005 C 
HETATM   25  C11 UNL     1      21.940   4.742  51.548  1.00  0.00    -0.002 C 
BRANCH  25  26
HETATM   26  C12 UNL     1      21.913   4.423  50.136  1.00  0.00    -0.000 C 
HETATM   27  C13 UNL     1      22.595   3.377  49.645  1.00  0.00     0.002 C 
BRANCH  27  28
HETATM   28  C14 UNL     1      22.603   3.010  48.236  1.00  0.00     0.029 C 
HETATM   29  C15 UNL     1      22.234   1.783  47.855  1.00  0.00     0.188 C 
HETATM   30  F1  UNL     1      21.959   1.293  49.091  1.00  0.00    -0.219 F 
ENDBRANCH  27  28
ENDBRANCH  25  26
ENDBRANCH  23  24
ENDBRANCH   5  23
TORSDOF 9
ENDMDL
MODEL 9
REMARK VINA RESULT:      -7.2      7.207      9.964
REMARK  9 active torsions:
REMARK  status: ('A' for Active; 'I' for Inactive)
REMARK    1  A    between atoms: N1_1  and  C1_2 
REMARK    2  A    between atoms: C2_4  and  N3_5 
REMARK    3  A    between atoms: N3_5  and  C3_6 
REMARK    4  A    between atoms: C6_9  and  S1_10 
REMARK    5  A    between atoms: S1_10  and  N4_11 
REMARK    6  A    between atoms: N6_17  and  C9_18 
REMARK    7  A    between atoms: C9_18  and  C10_19 
REMARK    8  A    between atoms: C11_20  and  C12_21 
REMARK    9  A    between atoms: C13_22  and  C14_23 
ROOT
HETATM    1  C1  UNL     1      26.459   2.019  52.727  1.00  0.00     0.733 A 
HETATM    2  N2  UNL     1      27.118   2.529  51.675  1.00  0.00     0.131 NA
HETATM    3  C2  UNL     1      26.202   2.783  50.699  1.00  0.00     0.760 A 
HETATM    4  N5  UNL     1      25.029   2.408  51.221  1.00  0.00     0.037 NA
HETATM    5  N6  UNL     1      25.148   1.940  52.450  1.00  0.00    -0.080 N 
ENDROOT
BRANCH   3   6
HETATM    6  N3  UNL     1      26.502   3.331  49.421  1.00  0.00    -0.186 N 
HETATM    7  H3  UNL     1      26.389   2.686  48.584  1.00  0.00     0.184 HD
BRANCH   6   8
HETATM    8  C3  UNL     1      26.933   4.640  49.137  1.00  0.00     0.049 A 
HETATM    9  C4  UNL     1      26.163   5.741  49.479  1.00  0.00     0.031 A 
HETATM   10  C5  UNL     1      26.552   7.033  49.215  1.00  0.00     0.027 A 
HETATM   11  C6  UNL     1      27.747   7.301  48.588  1.00  0.00     0.074 A 
HETATM   12  C7  UNL     1      28.545   6.242  48.229  1.00  0.00     0.027 A 
HETATM   13  C8  UNL     1      28.104   4.972  48.518  1.00  0.00     0.031 A 
BRANCH  11  14
HETATM   14  S1  UNL     1      28.136   8.969  48.307  1.00  0.00     0.239 S 
HETATM   15  O1  UNL     1      26.873   9.753  48.016  1.00  0.00    -0.206 OA
HETATM   16  O2  UNL     1      29.080   9.184  47.178  1.00  0.00    -0.206 OA
BRANCH  14  17
HETATM   17  N4  UNL     1      28.801   9.596  49.795  1.00  0.00    -0.225 NA
HETATM   18  H6  UNL     1      28.053   9.440  50.535  1.00  0.00     0.136 HD
HETATM   19  H7  UNL     1      29.595   8.985  50.087  1.00  0.00     0.136 HD
ENDBRANCH  14  17
ENDBRANCH  11  14
ENDBRANCH   6   8
ENDBRANCH   3   6
BRANCH   1  20
HETATM   20  N1  UNL     1      27.052   1.616  53.964  1.00  0.00    -0.231 N 
HETATM   21  H1  UNL     1      27.215   2.254  54.792  1.00  0.00     0.174 HD
HETATM   22  H2  UNL     1      27.390   0.657  54.192  1.00  0.00     0.174 HD
ENDBRANCH   1  20
BRANCH   5  23
HETATM   23  C9  UNL     1      24.127   1.434  53.356  1.00  0.00     0.198 C 
BRANCH  23  24
HETATM   24  C10 UNL     1      23.965  -0.023  53.251  1.00  0.00    -0.005 C 
HETATM   25  C11 UNL     1      22.873  -0.661  52.868  1.00  0.00    -0.002 C 
BRANCH  25  26
HETATM   26  C12 UNL     1      21.657   0.028  52.488  1.00  0.00    -0.000 C 
HETATM   27  C13 UNL     1      21.392   0.318  51.205  1.00  0.00     0.002 C 
BRANCH  27  28
HETATM   28  C14 UNL     1      20.187   1.007  50.767  1.00  0.00     0.029 C 
HETATM   29  C15 UNL     1      19.995   1.274  49.471  1.00  0.00     0.188 C 
HETATM   30  F1  UNL     1      21.149   0.729  49.009  1.00  0.00    -0.219 F 
ENDBRANCH  27  28
ENDBRANCH  25  26
ENDBRANCH  23  24
ENDBRANCH   5  23
TORSDOF 9
ENDMDL
