MODEL 1
REMARK VINA RESULT:      -7.4      0.000      0.000
REMARK  6 active torsions:
REMARK  status: ('A' for Active; 'I' for Inactive)
REMARK    1  A    between atoms: O1_2  and  C2_3 
REMARK    2  A    between atoms: C4_5  and  C5_6 
REMARK    3  A    between atoms: C5_6  and  N1_7 
REMARK    4  A    between atoms: N1_7  and  N2_8 
REMARK    5  A    between atoms: N2_8  and  C6_9 
REMARK    6  A    between atoms: C14_19  and  O2_20 
ROOT
HETATM    1  C2  UNL     1      26.866   0.088  53.757  1.00  0.00     0.053 C 
HETATM    2  C3  UNL     1      25.676  -0.294  54.200  1.00  0.00     0.056 C 
HETATM    3  C4  UNL     1      24.493   0.064  53.429  1.00  0.00     0.061 C 
HETATM    4  C12 UNL     1      24.230   1.030  52.369  1.00  0.00     0.070 C 
HETATM    5  N3  UNL     1      23.080   1.078  51.789  1.00  0.00    -0.299 NA
HETATM    6  C13 UNL     1      25.278   1.980  51.934  1.00  0.00     0.064 C 
HETATM    7  C14 UNL     1      26.598   1.877  52.047  1.00  0.00     0.051 C 
HETATM    8  C15 UNL     1      27.451   0.836  52.618  1.00  0.00     0.128 C 
HETATM    9  H10 UNL     1      22.971   1.798  51.040  1.00  0.00     0.187 HD
ENDROOT
BRANCH   3  10
HETATM   10  C5  UNL     1      23.398  -0.617  53.745  1.00  0.00     0.019 C 
BRANCH  10  11
HETATM   11  N1  UNL     1      22.236  -1.177  53.740  1.00  0.00    -0.129 NA
BRANCH  11  12
HETATM   12  N2  UNL     1      21.150  -0.293  53.970  1.00  0.00    -0.270 N 
HETATM   13  H5  UNL     1      21.256   0.566  54.558  1.00  0.00     0.190 HD
BRANCH  12  14
HETATM   14  C6  UNL     1      19.863  -0.562  53.394  1.00  0.00     0.052 A 
HETATM   15  C7  UNL     1      19.295   0.296  52.476  1.00  0.00     0.031 A 
HETATM   16  C8  UNL     1      18.057  -0.011  51.954  1.00  0.00     0.004 A 
HETATM   17  C9  UNL     1      17.337  -1.147  52.301  1.00  0.00     0.024 A 
HETATM   18  C10 UNL     1      17.953  -1.971  53.223  1.00  0.00     0.036 A 
HETATM   19 CL1  UNL     1      17.153  -3.441  53.748  1.00  0.00    -0.084 Cl
HETATM   20  C11 UNL     1      19.192  -1.704  53.772  1.00  0.00     0.054 A 
ENDBRANCH  12  14
ENDBRANCH  11  12
ENDBRANCH  10  11
ENDBRANCH   3  10
BRANCH   1  21
HETATM   21  O1  UNL     1      27.823  -0.384  54.680  1.00  0.00    -0.360 OA
HETATM   22  C1  UNL     1      29.150  -0.428  54.162  1.00  0.00     0.209 C 
ENDBRANCH   1  21
BRANCH   7  23
HETATM   23  O2  UNL     1      27.339   2.957  51.530  1.00  0.00    -0.365 OA
HETATM   24  H12 UNL     1      28.336   3.044  51.732  1.00  0.00     0.217 HD
ENDBRANCH   7  23
TORSDOF 6
ENDMDL
MODEL 2
REMARK VINA RESULT:      -7.3      5.079      8.162
REMARK  6 active torsions:
REMARK  status: ('A' for Active; 'I' for Inactive)
REMARK    1  A    between atoms: O1_2  and  C2_3 
REMARK    2  A    between atoms: C4_5  and  C5_6 
REMARK    3  A    between atoms: C5_6  and  N1_7 
REMARK    4  A    between atoms: N1_7  and  N2_8 
REMARK    5  A    between atoms: N2_8  and  C6_9 
REMARK    6  A    between atoms: C14_19  and  O2_20 
ROOT
HETATM    1  C2  UNL     1      24.750  -0.187  53.108  1.00  0.00     0.053 C 
HETATM    2  C3  UNL     1      24.387   1.011  52.672  1.00  0.00     0.056 C 
HETATM    3  C4  UNL     1      25.419   1.939  52.228  1.00  0.00     0.061 C 
HETATM    4  C12 UNL     1      26.865   2.003  52.404  1.00  0.00     0.070 C 
HETATM    5  N3  UNL     1      27.563   2.911  51.814  1.00  0.00    -0.299 NA
HETATM    6  C13 UNL     1      27.567   1.024  53.265  1.00  0.00     0.064 C 
HETATM    7  C14 UNL     1      27.185  -0.196  53.626  1.00  0.00     0.051 C 
HETATM    8  C15 UNL     1      25.988  -0.977  53.316  1.00  0.00     0.128 C 
HETATM    9  H10 UNL     1      28.593   2.890  51.991  1.00  0.00     0.187 HD
ENDROOT
BRANCH   3  10
HETATM   10  C5  UNL     1      24.974   2.963  51.512  1.00  0.00     0.019 C 
BRANCH  10  11
HETATM   11  N1  UNL     1      24.719   3.804  50.567  1.00  0.00    -0.129 NA
BRANCH  11  12
HETATM   12  N2  UNL     1      25.584   3.719  49.446  1.00  0.00    -0.270 N 
HETATM   13  H5  UNL     1      25.694   2.832  48.903  1.00  0.00     0.190 HD
BRANCH  12  14
HETATM   14  C6  UNL     1      26.341   4.865  49.028  1.00  0.00     0.052 A 
HETATM   15  C7  UNL     1      25.768   6.117  48.961  1.00  0.00     0.031 A 
HETATM   16  C8  UNL     1      26.540   7.183  48.553  1.00  0.00     0.004 A 
HETATM   17  C9  UNL     1      27.878   7.071  48.200  1.00  0.00     0.024 A 
HETATM   18  C10 UNL     1      28.402   5.796  48.286  1.00  0.00     0.036 A 
HETATM   19 CL1  UNL     1      30.082   5.514  47.870  1.00  0.00    -0.084 Cl
HETATM   20  C11 UNL     1      27.666   4.699  48.689  1.00  0.00     0.054 A 
ENDBRANCH  12  14
ENDBRANCH  11  12
ENDBRANCH  10  11
ENDBRANCH   3  10
BRANCH   1  21
HETATM   21  O1  UNL     1      23.570  -0.871  53.469  1.00  0.00    -0.360 OA
HETATM   22  C1  UNL     1      22.463  -0.011  53.733  1.00  0.00     0.209 C 
ENDBRANCH   1  21
BRANCH   7  23
HETATM   23  O2  UNL     1      28.080  -0.891  54.461  1.00  0.00    -0.365 OA
HETATM   24  H12 UNL     1      28.687  -1.617  54.078  1.00  0.00     0.217 HD
ENDBRANCH   7  23
TORSDOF 6
ENDMDL
MODEL 3
REMARK VINA RESULT:      -7.3      4.031      7.270
REMARK  6 active torsions:
REMARK  status: ('A' for Active; 'I' for Inactive)
REMARK    1  A    between atoms: O1_2  and  C2_3 
REMARK    2  A    between atoms: C4_5  and  C5_6 
REMARK    3  A    between atoms: C5_6  and  N1_7 
REMARK    4  A    between atoms: N1_7  and  N2_8 
REMARK    5  A    between atoms: N2_8  and  C6_9 
REMARK    6  A    between atoms: C14_19  and  O2_20 
ROOT
HETATM    1  C2  UNL     1      22.447   0.963  51.797  1.00  0.00     0.053 C 
HETATM    2  C3  UNL     1      23.374   0.663  52.696  1.00  0.00     0.056 C 
HETATM    3  C4  UNL     1      23.082  -0.362  53.689  1.00  0.00     0.061 C 
HETATM    4  C12 UNL     1      21.857  -0.998  54.156  1.00  0.00     0.070 C 
HETATM    5  N3  UNL     1      21.897  -1.964  55.008  1.00  0.00    -0.299 NA
HETATM    6  C13 UNL     1      20.536  -0.550  53.663  1.00  0.00     0.064 C 
HETATM    7  C14 UNL     1      20.237   0.089  52.536  1.00  0.00     0.051 C 
HETATM    8  C15 UNL     1      21.069   0.557  51.429  1.00  0.00     0.128 C 
HETATM    9  H10 UNL     1      20.976  -2.367  55.293  1.00  0.00     0.187 HD
ENDROOT
BRANCH   3  10
HETATM   10  C5  UNL     1      24.146  -0.832  54.329  1.00  0.00     0.019 C 
BRANCH  10  11
HETATM   11  N1  UNL     1      24.965  -1.281  55.219  1.00  0.00    -0.129 NA
BRANCH  11  12
HETATM   12  N2  UNL     1      25.866  -0.315  55.737  1.00  0.00    -0.270 N 
HETATM   13  H5  UNL     1      25.893  -0.080  56.756  1.00  0.00     0.190 HD
BRANCH  12  14
HETATM   14  C6  UNL     1      26.774   0.370  54.862  1.00  0.00     0.052 A 
HETATM   15  C7  UNL     1      26.452   1.592  54.310  1.00  0.00     0.031 A 
HETATM   16  C8  UNL     1      27.361   2.207  53.476  1.00  0.00     0.004 A 
HETATM   17  C9  UNL     1      28.597   1.664  53.153  1.00  0.00     0.024 A 
HETATM   18  C10 UNL     1      28.868   0.440  53.733  1.00  0.00     0.036 A 
HETATM   19 CL1  UNL     1      30.396  -0.358  53.409  1.00  0.00    -0.084 Cl
HETATM   20  C11 UNL     1      27.988  -0.213  54.574  1.00  0.00     0.054 A 
ENDBRANCH  12  14
ENDBRANCH  11  12
ENDBRANCH  10  11
ENDBRANCH   3  10
BRANCH   1  21
HETATM   21  O1  UNL     1      22.983   1.972  50.969  1.00  0.00    -0.360 OA
HETATM   22  C1  UNL     1      24.377   2.201  51.169  1.00  0.00     0.209 C 
ENDBRANCH   1  21
BRANCH   7  23
HETATM   23  O2  UNL     1      18.873   0.382  52.347  1.00  0.00    -0.365 OA
HETATM   24  H12 UNL     1      18.404   1.068  52.942  1.00  0.00     0.217 HD
ENDBRANCH   7  23
TORSDOF 6
ENDMDL
MODEL 4
REMARK VINA RESULT:      -7.1      3.279      4.454
REMARK  6 active torsions:
REMARK  status: ('A' for Active; 'I' for Inactive)
REMARK    1  A    between atoms: O1_2  and  C2_3 
REMARK    2  A    between atoms: C4_5  and  C5_6 
REMARK    3  A    between atoms: C5_6  and  N1_7 
REMARK    4  A    between atoms: N1_7  and  N2_8 
REMARK    5  A    between atoms: N2_8  and  C6_9 
REMARK    6  A    between atoms: C14_19  and  O2_20 
ROOT
HETATM    1  C2  UNL     1      27.080   2.089  52.222  1.00  0.00     0.053 C 
HETATM    2  C3  UNL     1      26.026   1.292  52.116  1.00  0.00     0.056 C 
HETATM    3  C4  UNL     1      25.708   0.400  53.222  1.00  0.00     0.061 C 
HETATM    4  C12 UNL     1      26.449  -0.076  54.384  1.00  0.00     0.070 C 
HETATM    5  N3  UNL     1      25.880  -0.813  55.275  1.00  0.00    -0.299 NA
HETATM    6  C13 UNL     1      27.875   0.275  54.568  1.00  0.00     0.064 C 
HETATM    7  C14 UNL     1      28.553   1.302  54.068  1.00  0.00     0.051 C 
HETATM    8  C15 UNL     1      28.154   2.405  53.195  1.00  0.00     0.128 C 
HETATM    9  H10 UNL     1      26.478  -1.114  56.077  1.00  0.00     0.187 HD
ENDROOT
BRANCH   3  10
HETATM   10  C5  UNL     1      24.483  -0.112  53.187  1.00  0.00     0.019 C 
BRANCH  10  11
HETATM   11  N1  UNL     1      23.216  -0.319  53.316  1.00  0.00    -0.129 NA
BRANCH  11  12
HETATM   12  N2  UNL     1      22.424   0.857  53.355  1.00  0.00    -0.270 N 
HETATM   13  H5  UNL     1      21.881   1.126  54.208  1.00  0.00     0.190 HD
BRANCH  12  14
HETATM   14  C6  UNL     1      22.347   1.715  52.207  1.00  0.00     0.052 A 
HETATM   15  C7  UNL     1      22.524   3.078  52.318  1.00  0.00     0.031 A 
HETATM   16  C8  UNL     1      22.439   3.856  51.183  1.00  0.00     0.004 A 
HETATM   17  C9  UNL     1      22.183   3.344  49.918  1.00  0.00     0.024 A 
HETATM   18  C10 UNL     1      22.014   1.974  49.865  1.00  0.00     0.036 A 
HETATM   19 CL1  UNL     1      21.684   1.196  48.327  1.00  0.00    -0.084 Cl
HETATM   20  C11 UNL     1      22.090   1.155  50.975  1.00  0.00     0.054 A 
ENDBRANCH  12  14
ENDBRANCH  11  12
ENDBRANCH  10  11
ENDBRANCH   3  10
BRANCH   1  21
HETATM   21  O1  UNL     1      27.158   2.835  51.027  1.00  0.00    -0.360 OA
HETATM   22  C1  UNL     1      25.897   3.035  50.390  1.00  0.00     0.209 C 
ENDBRANCH   1  21
BRANCH   7  23
HETATM   23  O2  UNL     1      29.913   1.366  54.429  1.00  0.00    -0.365 OA
HETATM   24  H12 UNL     1      30.585   1.848  53.829  1.00  0.00     0.217 HD
ENDBRANCH   7  23
TORSDOF 6
ENDMDL
MODEL 5
REMARK VINA RESULT:      -7.0      5.188      8.224
REMARK  6 active torsions:
REMARK  status: ('A' for Active; 'I' for Inactive)
REMARK    1  A    between atoms: O1_2  and  C2_3 
REMARK    2  A    between atoms: C4_5  and  C5_6 
REMARK    3  A    between atoms: C5_6  and  N1_7 
REMARK    4  A    between atoms: N1_7  and  N2_8 
REMARK    5  A    between atoms: N2_8  and  C6_9 
REMARK    6  A    between atoms: C14_19  and  O2_20 
ROOT
HETATM    1  C2  UNL     1      26.376  -0.417  53.145  1.00  0.00     0.053 C 
HETATM    2  C3  UNL     1      26.783   0.346  52.140  1.00  0.00     0.056 C 
HETATM    3  C4  UNL     1      25.922   1.430  51.688  1.00  0.00     0.061 C 
HETATM    4  C12 UNL     1      24.514   1.752  51.883  1.00  0.00     0.070 C 
HETATM    5  N3  UNL     1      24.017   2.851  51.429  1.00  0.00    -0.299 NA
HETATM    6  C13 UNL     1      23.619   0.823  52.610  1.00  0.00     0.064 C 
HETATM    7  C14 UNL     1      23.931  -0.113  53.500  1.00  0.00     0.051 C 
HETATM    8  C15 UNL     1      25.213  -0.544  54.056  1.00  0.00     0.128 C 
HETATM    9  H10 UNL     1      23.001   3.008  51.610  1.00  0.00     0.187 HD
ENDROOT
BRANCH   3  10
HETATM   10  C5  UNL     1      26.523   2.334  50.923  1.00  0.00     0.019 C 
BRANCH  10  11
HETATM   11  N1  UNL     1      26.905   3.076  49.939  1.00  0.00    -0.129 NA
BRANCH  11  12
HETATM   12  N2  UNL     1      26.300   4.358  49.892  1.00  0.00    -0.270 N 
HETATM   13  H5  UNL     1      25.456   4.589  50.466  1.00  0.00     0.190 HD
BRANCH  12  14
HETATM   14  C6  UNL     1      26.838   5.381  49.042  1.00  0.00     0.052 A 
HETATM   15  C7  UNL     1      28.147   5.337  48.609  1.00  0.00     0.031 A 
HETATM   16  C8  UNL     1      28.613   6.347  47.793  1.00  0.00     0.004 A 
HETATM   17  C9  UNL     1      27.835   7.418  47.376  1.00  0.00     0.024 A 
HETATM   18  C10 UNL     1      26.533   7.412  47.839  1.00  0.00     0.036 A 
HETATM   19 CL1  UNL     1      25.441   8.708  47.387  1.00  0.00    -0.084 Cl
HETATM   20  C11 UNL     1      26.023   6.423  48.657  1.00  0.00     0.054 A 
ENDBRANCH  12  14
ENDBRANCH  11  12
ENDBRANCH  10  11
ENDBRANCH   3  10
BRANCH   1  21
HETATM   21  O1  UNL     1      27.386  -1.375  53.374  1.00  0.00    -0.360 OA
HETATM   22  C1  UNL     1      28.694  -0.817  53.481  1.00  0.00     0.209 C 
ENDBRANCH   1  21
BRANCH   7  23
HETATM   23  O2  UNL     1      22.845  -0.842  54.021  1.00  0.00    -0.365 OA
HETATM   24  H12 UNL     1      22.616  -0.789  55.015  1.00  0.00     0.217 HD
ENDBRANCH   7  23
TORSDOF 6
ENDMDL
MODEL 6
REMARK VINA RESULT:      -6.9      6.282      8.637
REMARK  6 active torsions:
REMARK  status: ('A' for Active; 'I' for Inactive)
REMARK    1  A    between atoms: O1_2  and  C2_3 
REMARK    2  A    between atoms: C4_5  and  C5_6 
REMARK    3  A    between atoms: C5_6  and  N1_7 
REMARK    4  A    between atoms: N1_7  and  N2_8 
REMARK    5  A    between atoms: N2_8  and  C6_9 
REMARK    6  A    between atoms: C14_19  and  O2_20 
ROOT
HETATM    1  C2  UNL     1      24.375   6.793  48.644  1.00  0.00     0.053 C 
HETATM    2  C3  UNL     1      24.695   5.533  48.899  1.00  0.00     0.056 C 
HETATM    3  C4  UNL     1      26.103   5.177  49.016  1.00  0.00     0.061 C 
HETATM    4  C12 UNL     1      27.347   5.831  48.631  1.00  0.00     0.070 C 
HETATM    5  N3  UNL     1      28.487   5.317  48.940  1.00  0.00    -0.299 NA
HETATM    6  C13 UNL     1      27.330   7.104  47.876  1.00  0.00     0.064 C 
HETATM    7  C14 UNL     1      26.370   8.020  47.802  1.00  0.00     0.051 C 
HETATM    8  C15 UNL     1      25.044   8.096  48.414  1.00  0.00     0.128 C 
HETATM    9  H10 UNL     1      29.333   5.846  48.629  1.00  0.00     0.187 HD
ENDROOT
BRANCH   3  10
HETATM   10  C5  UNL     1      26.332   4.000  49.587  1.00  0.00     0.019 C 
BRANCH  10  11
HETATM   11  N1  UNL     1      26.862   2.997  50.201  1.00  0.00    -0.129 NA
BRANCH  11  12
HETATM   12  N2  UNL     1      26.777   3.055  51.616  1.00  0.00    -0.270 N 
HETATM   13  H5  UNL     1      26.305   3.849  52.106  1.00  0.00     0.190 HD
BRANCH  12  14
HETATM   14  C6  UNL     1      27.347   2.010  52.418  1.00  0.00     0.052 A 
HETATM   15  C7  UNL     1      28.283   2.284  53.392  1.00  0.00     0.031 A 
HETATM   16  C8  UNL     1      28.798   1.242  54.134  1.00  0.00     0.004 A 
HETATM   17  C9  UNL     1      28.426  -0.083  53.957  1.00  0.00     0.024 A 
HETATM   18  C10 UNL     1      27.486  -0.301  52.970  1.00  0.00     0.036 A 
HETATM   19 CL1  UNL     1      26.927  -1.931  52.643  1.00  0.00    -0.084 Cl
HETATM   20  C11 UNL     1      26.942   0.711  52.202  1.00  0.00     0.054 A 
ENDBRANCH  12  14
ENDBRANCH  11  12
ENDBRANCH  10  11
ENDBRANCH   3  10
BRANCH   1  21
HETATM   21  O1  UNL     1      22.966   6.859  48.584  1.00  0.00    -0.360 OA
HETATM   22  C1  UNL     1      22.350   5.641  48.171  1.00  0.00     0.209 C 
ENDBRANCH   1  21
BRANCH   7  23
HETATM   23  O2  UNL     1      26.655   9.135  46.992  1.00  0.00    -0.365 OA
HETATM   24  H12 UNL     1      27.433   9.756  47.222  1.00  0.00     0.217 HD
ENDBRANCH   7  23
TORSDOF 6
ENDMDL
MODEL 7
REMARK VINA RESULT:      -6.9      5.202      7.042
REMARK  6 active torsions:
REMARK  status: ('A' for Active; 'I' for Inactive)
REMARK    1  A    between atoms: O1_2  and  C2_3 
REMARK    2  A    between atoms: C4_5  and  C5_6 
REMARK    3  A    between atoms: C5_6  and  N1_7 
REMARK    4  A    between atoms: N1_7  and  N2_8 
REMARK    5  A    between atoms: N2_8  and  C6_9 
REMARK    6  A    between atoms: C14_19  and  O2_20 
ROOT
HETATM    1  C2  UNL     1      26.394   4.507  49.493  1.00  0.00     0.053 C 
HETATM    2  C3  UNL     1      26.029   3.413  50.147  1.00  0.00     0.056 C 
HETATM    3  C4  UNL     1      24.795   3.438  50.921  1.00  0.00     0.061 C 
HETATM    4  C12 UNL     1      23.935   4.504  51.420  1.00  0.00     0.070 C 
HETATM    5  N3  UNL     1      22.826   4.233  52.019  1.00  0.00    -0.299 NA
HETATM    6  C13 UNL     1      24.314   5.924  51.250  1.00  0.00     0.064 C 
HETATM    7  C14 UNL     1      25.130   6.470  50.354  1.00  0.00     0.051 C 
HETATM    8  C15 UNL     1      25.911   5.890  49.263  1.00  0.00     0.128 C 
HETATM    9  H10 UNL     1      22.266   5.052  52.347  1.00  0.00     0.187 HD
ENDROOT
BRANCH   3  10
HETATM   10  C5  UNL     1      24.333   2.243  51.267  1.00  0.00     0.019 C 
BRANCH  10  11
HETATM   11  N1  UNL     1      23.853   1.232  51.909  1.00  0.00    -0.129 NA
BRANCH  11  12
HETATM   12  N2  UNL     1      24.463   0.981  53.165  1.00  0.00    -0.270 N 
HETATM   13  H5  UNL     1      23.952   1.137  54.065  1.00  0.00     0.190 HD
BRANCH  12  14
HETATM   14  C6  UNL     1      25.814   0.503  53.230  1.00  0.00     0.052 A 
HETATM   15  C7  UNL     1      26.143  -0.774  52.829  1.00  0.00     0.031 A 
HETATM   16  C8  UNL     1      27.457  -1.183  52.912  1.00  0.00     0.004 A 
HETATM   17  C9  UNL     1      28.483  -0.375  53.382  1.00  0.00     0.024 A 
HETATM   18  C10 UNL     1      28.099   0.894  53.770  1.00  0.00     0.036 A 
HETATM   19 CL1  UNL     1      29.298   2.019  54.383  1.00  0.00    -0.084 Cl
HETATM   20  C11 UNL     1      26.795   1.346  53.704  1.00  0.00     0.054 A 
ENDBRANCH  12  14
ENDBRANCH  11  12
ENDBRANCH  10  11
ENDBRANCH   3  10
BRANCH   1  21
HETATM   21  O1  UNL     1      27.608   4.212  48.837  1.00  0.00    -0.360 OA
HETATM   22  C1  UNL     1      28.323   5.366  48.402  1.00  0.00     0.209 C 
ENDBRANCH   1  21
BRANCH   7  23
HETATM   23  O2  UNL     1      25.291   7.866  50.449  1.00  0.00    -0.365 OA
HETATM   24  H12 UNL     1      24.993   8.364  51.290  1.00  0.00     0.217 HD
ENDBRANCH   7  23
TORSDOF 6
ENDMDL
MODEL 8
REMARK VINA RESULT:      -6.8      4.142      7.523
REMARK  6 active torsions:
REMARK  status: ('A' for Active; 'I' for Inactive)
REMARK    1  A    between atoms: O1_2  and  C2_3 
REMARK    2  A    between atoms: C4_5  and  C5_6 
REMARK    3  A    between atoms: C5_6  and  N1_7 
REMARK    4  A    between atoms: N1_7  and  N2_8 
REMARK    5  A    between atoms: N2_8  and  C6_9 
REMARK    6  A    between atoms: C14_19  and  O2_20 
ROOT
HETATM    1  C2  UNL     1      21.302   1.725  52.377  1.00  0.00     0.053 C 
HETATM    2  C3  UNL     1      22.612   1.730  52.577  1.00  0.00     0.056 C 
HETATM    3  C4  UNL     1      23.296   3.010  52.712  1.00  0.00     0.061 C 
HETATM    4  C12 UNL     1      22.937   4.386  52.394  1.00  0.00     0.070 C 
HETATM    5  N3  UNL     1      23.719   5.362  52.706  1.00  0.00    -0.299 NA
HETATM    6  C13 UNL     1      21.665   4.697  51.704  1.00  0.00     0.064 C 
HETATM    7  C14 UNL     1      20.546   3.982  51.652  1.00  0.00     0.051 C 
HETATM    8  C15 UNL     1      20.185   2.690  52.232  1.00  0.00     0.128 C 
HETATM    9  H10 UNL     1      23.392   6.319  52.444  1.00  0.00     0.187 HD
ENDROOT
BRANCH   3  10
HETATM   10  C5  UNL     1      24.516   2.935  53.228  1.00  0.00     0.019 C 
BRANCH  10  11
HETATM   11  N1  UNL     1      25.599   2.546  53.811  1.00  0.00    -0.129 NA
BRANCH  11  12
HETATM   12  N2  UNL     1      26.712   2.379  52.947  1.00  0.00    -0.270 N 
HETATM   13  H5  UNL     1      26.908   3.050  52.169  1.00  0.00     0.190 HD
BRANCH  12  14
HETATM   14  C6  UNL     1      27.606   1.270  53.124  1.00  0.00     0.052 A 
HETATM   15  C7  UNL     1      28.893   1.453  53.583  1.00  0.00     0.031 A 
HETATM   16  C8  UNL     1      29.709   0.352  53.735  1.00  0.00     0.004 A 
HETATM   17  C9  UNL     1      29.309  -0.946  53.449  1.00  0.00     0.024 A 
HETATM   18  C10 UNL     1      28.011  -1.071  52.994  1.00  0.00     0.036 A 
HETATM   19 CL1  UNL     1      27.376  -2.658  52.596  1.00  0.00    -0.084 Cl
HETATM   20  C11 UNL     1      27.158   0.002  52.826  1.00  0.00     0.054 A 
ENDBRANCH  12  14
ENDBRANCH  11  12
ENDBRANCH  10  11
ENDBRANCH   3  10
BRANCH   1  21
HETATM   21  O1  UNL     1      20.903   0.374  52.284  1.00  0.00    -0.360 OA
HETATM   22  C1  UNL     1      21.389  -0.445  53.345  1.00  0.00     0.209 C 
ENDBRANCH   1  21
BRANCH   7  23
HETATM   23  O2  UNL     1      19.496   4.551  50.907  1.00  0.00    -0.365 OA
HETATM   24  H12 UNL     1      19.689   5.268  50.205  1.00  0.00     0.217 HD
ENDBRANCH   7  23
TORSDOF 6
ENDMDL
MODEL 9
REMARK VINA RESULT:      -6.8      4.370      8.164
REMARK  6 active torsions:
REMARK  status: ('A' for Active; 'I' for Inactive)
REMARK    1  A    between atoms: O1_2  and  C2_3 
REMARK    2  A    between atoms: C4_5  and  C5_6 
REMARK    3  A    between atoms: C5_6  and  N1_7 
REMARK    4  A    between atoms: N1_7  and  N2_8 
REMARK    5  A    between atoms: N2_8  and  C6_9 
REMARK    6  A    between atoms: C14_19  and  O2_20 
ROOT
HETATM    1  C2  UNL     1      19.139   0.786  51.489  1.00  0.00     0.053 C 
HETATM    2  C3  UNL     1      20.386   1.237  51.487  1.00  0.00     0.056 C 
HETATM    3  C4  UNL     1      21.402   0.492  52.217  1.00  0.00     0.061 C 
HETATM    4  C12 UNL     1      21.357  -0.542  53.243  1.00  0.00     0.070 C 
HETATM    5  N3  UNL     1      22.437  -1.105  53.664  1.00  0.00    -0.299 NA
HETATM    6  C13 UNL     1      20.066  -0.971  53.828  1.00  0.00     0.064 C 
HETATM    7  C14 UNL     1      18.844  -0.879  53.315  1.00  0.00     0.051 C 
HETATM    8  C15 UNL     1      18.356  -0.343  52.045  1.00  0.00     0.128 C 
HETATM    9  H10 UNL     1      22.321  -1.836  54.401  1.00  0.00     0.187 HD
ENDROOT
BRANCH   3  10
HETATM   10  C5  UNL     1      22.653   0.807  51.905  1.00  0.00     0.019 C 
BRANCH  10  11
HETATM   11  N1  UNL     1      23.835   1.324  51.869  1.00  0.00    -0.129 NA
BRANCH  11  12
HETATM   12  N2  UNL     1      24.525   1.312  53.109  1.00  0.00    -0.270 N 
HETATM   13  H5  UNL     1      24.109   1.728  53.974  1.00  0.00     0.190 HD
BRANCH  12  14
HETATM   14  C6  UNL     1      25.830   0.722  53.205  1.00  0.00     0.052 A 
HETATM   15  C7  UNL     1      26.060  -0.578  52.805  1.00  0.00     0.031 A 
HETATM   16  C8  UNL     1      27.333  -1.095  52.919  1.00  0.00     0.004 A 
HETATM   17  C9  UNL     1      28.411  -0.378  53.418  1.00  0.00     0.024 A 
HETATM   18  C10 UNL     1      28.125   0.917  53.802  1.00  0.00     0.036 A 
HETATM   19 CL1  UNL     1      29.399   1.935  54.451  1.00  0.00    -0.084 Cl
HETATM   20  C11 UNL     1      26.866   1.478  53.707  1.00  0.00     0.054 A 
ENDBRANCH  12  14
ENDBRANCH  11  12
ENDBRANCH  10  11
ENDBRANCH   3  10
BRANCH   1  21
HETATM   21  O1  UNL     1      18.372   1.685  50.717  1.00  0.00    -0.360 OA
HETATM   22  C1  UNL     1      17.554   1.050  49.737  1.00  0.00     0.209 C 
ENDBRANCH   1  21
BRANCH   7  23
HETATM   23  O2  UNL     1      17.806  -1.382  54.122  1.00  0.00    -0.365 OA
HETATM   24  H12 UNL     1      17.793  -2.367  54.393  1.00  0.00     0.217 HD
ENDBRANCH   7  23
TORSDOF 6
ENDMDL
