MODEL 1
REMARK VINA RESULT:      -8.9      0.000      0.000
REMARK  6 active torsions:
REMARK  status: ('A' for Active; 'I' for Inactive)
REMARK    1  A    between atoms: O1_1  and  C1_2 
REMARK    2  A    between atoms: C5_8  and  N3_9 
REMARK    3  A    between atoms: N3_9  and  C6_10 
REMARK    4  A    between atoms: C14_19  and  N4_20 
REMARK    5  A    between atoms: N4_20  and  C15_21 
REMARK    6  A    between atoms: C15_21  and  C16_22 
ROOT
HETATM    1  C1  UNL     1      25.128  -0.557  55.006  1.00  0.00     0.094 A 
HETATM    2  C2  UNL     1      26.432  -0.070  55.188  1.00  0.00     0.071 A 
HETATM    3  C3  UNL     1      26.891   0.776  54.205  1.00  0.00     0.075 A 
HETATM    4  N1  UNL     1      28.129   1.248  54.357  1.00  0.00    -0.241 NA
HETATM    5  C4  UNL     1      28.706   2.081  53.479  1.00  0.00     0.236 A 
HETATM    6  N2  UNL     1      27.983   2.435  52.417  1.00  0.00    -0.224 NA
HETATM    7  C5  UNL     1      26.740   2.029  52.159  1.00  0.00     0.142 A 
HETATM    8  C12 UNL     1      26.210   1.182  53.091  1.00  0.00     0.041 A 
HETATM    9  C13 UNL     1      24.945   0.686  52.956  1.00  0.00     0.049 A 
HETATM   10  C14 UNL     1      24.396  -0.162  53.874  1.00  0.00     0.062 A 
ENDROOT
BRANCH   7  11
HETATM   11  N3  UNL     1      25.991   2.416  51.021  1.00  0.00    -0.340 N 
HETATM   12  H4  UNL     1      25.328   1.789  50.577  1.00  0.00     0.167 HD
BRANCH  11  13
HETATM   13  C6  UNL     1      26.016   3.652  50.336  1.00  0.00     0.035 A 
HETATM   14  C7  UNL     1      26.970   3.982  49.363  1.00  0.00     0.029 A 
HETATM   15  C8  UNL     1      26.977   5.184  48.704  1.00  0.00     0.004 A 
HETATM   16  C9  UNL     1      26.052   6.145  48.951  1.00  0.00     0.024 A 
HETATM   17  C10 UNL     1      25.083   5.874  49.904  1.00  0.00     0.036 A 
HETATM   18 CL1  UNL     1      23.905   7.129  50.201  1.00  0.00    -0.084 Cl
HETATM   19  C11 UNL     1      25.108   4.656  50.545  1.00  0.00     0.053 A 
ENDBRANCH  11  13
ENDBRANCH   7  11
BRANCH  10  20
HETATM   20  N4  UNL     1      23.160  -0.824  53.956  1.00  0.00    -0.384 N 
HETATM   21  H10 UNL     1      22.593   0.059  54.185  1.00  0.00     0.160 HD
BRANCH  20  22
HETATM   22  C15 UNL     1      21.923  -1.486  54.036  1.00  0.00     0.154 C 
BRANCH  22  23
HETATM   23  C16 UNL     1      20.849  -0.789  53.203  1.00  0.00    -0.059 A 
HETATM   24  C17 UNL     1      21.087   0.011  52.162  1.00  0.00     0.004 A 
HETATM   25  C18 UNL     1      19.881   0.524  51.565  1.00  0.00    -0.003 A 
HETATM   26  C19 UNL     1      18.865   0.043  52.224  1.00  0.00    -0.022 A 
HETATM   27  C20 UNL     1      19.372  -0.845  53.321  1.00  0.00     0.063 A 
ENDBRANCH  22  23
ENDBRANCH  20  22
ENDBRANCH  10  20
BRANCH   1  28
HETATM   28  O1  UNL     1      24.766  -1.398  56.054  1.00  0.00    -0.358 OA
HETATM   29  H1  UNL     1      25.152  -1.371  56.976  1.00  0.00     0.217 HD
ENDBRANCH   1  28
TORSDOF 6
ENDMDL
MODEL 2
REMARK VINA RESULT:      -8.6      1.500      2.049
REMARK  6 active torsions:
REMARK  status: ('A' for Active; 'I' for Inactive)
REMARK    1  A    between atoms: O1_1  and  C1_2 
REMARK    2  A    between atoms: C5_8  and  N3_9 
REMARK    3  A    between atoms: N3_9  and  C6_10 
REMARK    4  A    between atoms: C14_19  and  N4_20 
REMARK    5  A    between atoms: N4_20  and  C15_21 
REMARK    6  A    between atoms: C15_21  and  C16_22 
ROOT
HETATM    1  C1  UNL     1      23.605  -1.173  55.050  1.00  0.00     0.094 A 
HETATM    2  C2  UNL     1      24.988  -1.033  55.244  1.00  0.00     0.071 A 
HETATM    3  C3  UNL     1      25.647  -0.288  54.293  1.00  0.00     0.075 A 
HETATM    4  N1  UNL     1      26.963  -0.144  54.456  1.00  0.00    -0.241 NA
HETATM    5  C4  UNL     1      27.732   0.554  53.609  1.00  0.00     0.236 A 
HETATM    6  N2  UNL     1      27.124   1.117  52.566  1.00  0.00    -0.224 NA
HETATM    7  C5  UNL     1      25.820   1.044  52.299  1.00  0.00     0.142 A 
HETATM    8  C12 UNL     1      25.092   0.318  53.200  1.00  0.00     0.041 A 
HETATM    9  C13 UNL     1      23.744   0.156  53.053  1.00  0.00     0.049 A 
HETATM   10  C14 UNL     1      22.998  -0.565  53.939  1.00  0.00     0.062 A 
ENDROOT
BRANCH   7  11
HETATM   11  N3  UNL     1      25.196   1.649  51.182  1.00  0.00    -0.340 N 
HETATM   12  H4  UNL     1      24.510   1.156  50.618  1.00  0.00     0.167 HD
BRANCH  11  13
HETATM   13  C6  UNL     1      25.388   2.953  50.672  1.00  0.00     0.035 A 
HETATM   14  C7  UNL     1      24.505   4.017  50.904  1.00  0.00     0.029 A 
HETATM   15  C8  UNL     1      24.709   5.277  50.406  1.00  0.00     0.004 A 
HETATM   16  C9  UNL     1      25.790   5.584  49.645  1.00  0.00     0.024 A 
HETATM   17  C10 UNL     1      26.699   4.571  49.383  1.00  0.00     0.036 A 
HETATM   18 CL1  UNL     1      28.082   4.994  48.403  1.00  0.00    -0.084 Cl
HETATM   19  C11 UNL     1      26.461   3.318  49.901  1.00  0.00     0.053 A 
ENDBRANCH  11  13
ENDBRANCH   7  11
BRANCH  10  20
HETATM   20  N4  UNL     1      21.636  -0.902  54.001  1.00  0.00    -0.384 N 
HETATM   21  H10 UNL     1      21.460  -0.418  54.944  1.00  0.00     0.160 HD
BRANCH  20  22
HETATM   22  C15 UNL     1      20.274  -1.238  54.063  1.00  0.00     0.154 C 
BRANCH  22  23
HETATM   23  C16 UNL     1      19.487  -0.645  52.895  1.00  0.00    -0.059 A 
HETATM   24  C17 UNL     1      18.186  -0.839  52.673  1.00  0.00     0.004 A 
HETATM   25  C18 UNL     1      17.712  -0.152  51.498  1.00  0.00    -0.003 A 
HETATM   26  C19 UNL     1      18.715   0.490  50.971  1.00  0.00    -0.022 A 
HETATM   27  C20 UNL     1      19.939   0.254  51.805  1.00  0.00     0.063 A 
ENDBRANCH  22  23
ENDBRANCH  20  22
ENDBRANCH  10  20
BRANCH   1  28
HETATM   28  O1  UNL     1      23.040  -1.939  56.067  1.00  0.00    -0.358 OA
HETATM   29  H1  UNL     1      23.550  -2.394  56.797  1.00  0.00     0.217 HD
ENDBRANCH   1  28
TORSDOF 6
ENDMDL
MODEL 3
REMARK VINA RESULT:      -8.6      2.080      5.723
REMARK  6 active torsions:
REMARK  status: ('A' for Active; 'I' for Inactive)
REMARK    1  A    between atoms: O1_1  and  C1_2 
REMARK    2  A    between atoms: C5_8  and  N3_9 
REMARK    3  A    between atoms: N3_9  and  C6_10 
REMARK    4  A    between atoms: C14_19  and  N4_20 
REMARK    5  A    between atoms: N4_20  and  C15_21 
REMARK    6  A    between atoms: C15_21  and  C16_22 
ROOT
HETATM    1  C1  UNL     1      22.769  -1.090  54.792  1.00  0.00     0.094 A 
HETATM    2  C2  UNL     1      21.391  -1.136  54.526  1.00  0.00     0.071 A 
HETATM    3  C3  UNL     1      20.989  -0.510  53.369  1.00  0.00     0.075 A 
HETATM    4  N1  UNL     1      19.684  -0.540  53.098  1.00  0.00    -0.241 NA
HETATM    5  C4  UNL     1      19.151   0.028  52.007  1.00  0.00     0.236 A 
HETATM    6  N2  UNL     1      19.991   0.643  51.174  1.00  0.00    -0.224 NA
HETATM    7  C5  UNL     1      21.310   0.737  51.338  1.00  0.00     0.142 A 
HETATM    8  C12 UNL     1      21.790   0.138  52.469  1.00  0.00     0.041 A 
HETATM    9  C13 UNL     1      23.122   0.157  52.767  1.00  0.00     0.049 A 
HETATM   10  C14 UNL     1      23.623  -0.434  53.891  1.00  0.00     0.062 A 
ENDROOT
BRANCH   7  11
HETATM   11  N3  UNL     1      22.183   1.398  50.441  1.00  0.00    -0.340 N 
HETATM   12  H4  UNL     1      22.428   1.000  49.540  1.00  0.00     0.167 HD
BRANCH  11  13
HETATM   13  C6  UNL     1      22.833   2.642  50.609  1.00  0.00     0.035 A 
HETATM   14  C7  UNL     1      22.305   3.699  51.363  1.00  0.00     0.029 A 
HETATM   15  C8  UNL     1      22.950   4.898  51.519  1.00  0.00     0.004 A 
HETATM   16  C9  UNL     1      24.156   5.146  50.948  1.00  0.00     0.024 A 
HETATM   17  C10 UNL     1      24.728   4.136  50.190  1.00  0.00     0.036 A 
HETATM   18 CL1  UNL     1      26.279   4.482  49.467  1.00  0.00    -0.084 Cl
HETATM   19  C11 UNL     1      24.049   2.945  50.056  1.00  0.00     0.053 A 
ENDBRANCH  11  13
ENDBRANCH   7  11
BRANCH  10  20
HETATM   20  N4  UNL     1      24.915  -0.531  54.434  1.00  0.00    -0.384 N 
HETATM   21  H10 UNL     1      24.584  -0.692  55.443  1.00  0.00     0.160 HD
BRANCH  20  22
HETATM   22  C15 UNL     1      26.207  -0.628  54.976  1.00  0.00     0.154 C 
BRANCH  22  23
HETATM   23  C16 UNL     1      27.131   0.468  54.450  1.00  0.00    -0.059 A 
HETATM   24  C17 UNL     1      28.456   0.494  54.608  1.00  0.00     0.004 A 
HETATM   25  C18 UNL     1      29.068   1.648  54.002  1.00  0.00    -0.003 A 
HETATM   26  C19 UNL     1      28.129   2.361  53.448  1.00  0.00    -0.022 A 
HETATM   27  C20 UNL     1      26.809   1.684  53.665  1.00  0.00     0.063 A 
ENDBRANCH  22  23
ENDBRANCH  20  22
ENDBRANCH  10  20
BRANCH   1  28
HETATM   28  O1  UNL     1      23.063  -1.753  55.980  1.00  0.00    -0.358 OA
HETATM   29  H1  UNL     1      23.932  -1.698  56.471  1.00  0.00     0.217 HD
ENDBRANCH   1  28
TORSDOF 6
ENDMDL
MODEL 4
REMARK VINA RESULT:      -8.6      3.152      7.018
REMARK  6 active torsions:
REMARK  status: ('A' for Active; 'I' for Inactive)
REMARK    1  A    between atoms: O1_1  and  C1_2 
REMARK    2  A    between atoms: C5_8  and  N3_9 
REMARK    3  A    between atoms: N3_9  and  C6_10 
REMARK    4  A    between atoms: C14_19  and  N4_20 
REMARK    5  A    between atoms: N4_20  and  C15_21 
REMARK    6  A    between atoms: C15_21  and  C16_22 
ROOT
HETATM    1  C1  UNL     1      22.476   3.350  51.757  1.00  0.00     0.094 A 
HETATM    2  C2  UNL     1      21.959   2.424  52.677  1.00  0.00     0.071 A 
HETATM    3  C3  UNL     1      22.761   1.338  52.937  1.00  0.00     0.075 A 
HETATM    4  N1  UNL     1      22.288   0.443  53.807  1.00  0.00    -0.241 NA
HETATM    5  C4  UNL     1      22.960  -0.663  54.155  1.00  0.00     0.236 A 
HETATM    6  N2  UNL     1      24.152  -0.849  53.589  1.00  0.00    -0.224 NA
HETATM    7  C5  UNL     1      24.727  -0.028  52.710  1.00  0.00     0.142 A 
HETATM    8  C12 UNL     1      23.991   1.080  52.397  1.00  0.00     0.041 A 
HETATM    9  C13 UNL     1      24.454   2.008  51.509  1.00  0.00     0.049 A 
HETATM   10  C14 UNL     1      23.736   3.121  51.181  1.00  0.00     0.062 A 
ENDROOT
BRANCH   7  11
HETATM   11  N3  UNL     1      25.994  -0.248  52.119  1.00  0.00    -0.340 N 
HETATM   12  H4  UNL     1      26.101  -0.398  51.120  1.00  0.00     0.167 HD
BRANCH  11  13
HETATM   13  C6  UNL     1      27.258  -0.298  52.750  1.00  0.00     0.035 A 
HETATM   14  C7  UNL     1      28.047  -1.454  52.819  1.00  0.00     0.029 A 
HETATM   15  C8  UNL     1      29.273  -1.484  53.432  1.00  0.00     0.004 A 
HETATM   16  C9  UNL     1      29.811  -0.385  54.019  1.00  0.00     0.024 A 
HETATM   17  C10 UNL     1      29.075   0.789  53.981  1.00  0.00     0.036 A 
HETATM   18 CL1  UNL     1      29.791   2.187  54.743  1.00  0.00    -0.084 Cl
HETATM   19  C11 UNL     1      27.847   0.780  53.356  1.00  0.00     0.053 A 
ENDBRANCH  11  13
ENDBRANCH   7  11
BRANCH  10  20
HETATM   20  N4  UNL     1      23.963   4.188  50.296  1.00  0.00    -0.384 N 
HETATM   21  H10 UNL     1      24.893   4.487  50.743  1.00  0.00     0.160 HD
BRANCH  20  22
HETATM   22  C15 UNL     1      24.191   5.254  49.411  1.00  0.00     0.154 C 
BRANCH  22  23
HETATM   23  C16 UNL     1      25.663   5.364  49.017  1.00  0.00    -0.059 A 
HETATM   24  C17 UNL     1      26.228   6.436  48.459  1.00  0.00     0.004 A 
HETATM   25  C18 UNL     1      27.633   6.256  48.200  1.00  0.00    -0.003 A 
HETATM   26  C19 UNL     1      27.970   5.063  48.601  1.00  0.00    -0.022 A 
HETATM   27  C20 UNL     1      26.762   4.379  49.168  1.00  0.00     0.063 A 
ENDBRANCH  22  23
ENDBRANCH  20  22
ENDBRANCH  10  20
BRANCH   1  28
HETATM   28  O1  UNL     1      21.588   4.406  51.570  1.00  0.00    -0.358 OA
HETATM   29  H1  UNL     1      20.691   4.490  52.004  1.00  0.00     0.217 HD
ENDBRANCH   1  28
TORSDOF 6
ENDMDL
MODEL 5
REMARK VINA RESULT:      -8.4      3.505      7.611
REMARK  6 active torsions:
REMARK  status: ('A' for Active; 'I' for Inactive)
REMARK    1  A    between atoms: O1_1  and  C1_2 
REMARK    2  A    between atoms: C5_8  and  N3_9 
REMARK    3  A    between atoms: N3_9  and  C6_10 
REMARK    4  A    between atoms: C14_19  and  N4_20 
REMARK    5  A    between atoms: N4_20  and  C15_21 
REMARK    6  A    between atoms: C15_21  and  C16_22 
ROOT
HETATM    1  C1  UNL     1      25.893   3.142  50.806  1.00  0.00     0.094 A 
HETATM    2  C2  UNL     1      24.928   3.403  49.821  1.00  0.00     0.071 A 
HETATM    3  C3  UNL     1      23.623   3.178  50.196  1.00  0.00     0.075 A 
HETATM    4  N1  UNL     1      22.689   3.417  49.273  1.00  0.00    -0.241 NA
HETATM    5  C4  UNL     1      21.379   3.242  49.498  1.00  0.00     0.236 A 
HETATM    6  N2  UNL     1      21.026   2.807  50.707  1.00  0.00    -0.224 NA
HETATM    7  C5  UNL     1      21.866   2.535  51.706  1.00  0.00     0.142 A 
HETATM    8  C12 UNL     1      23.186   2.734  51.413  1.00  0.00     0.041 A 
HETATM    9  C13 UNL     1      24.159   2.494  52.340  1.00  0.00     0.049 A 
HETATM   10  C14 UNL     1      25.484   2.685  52.070  1.00  0.00     0.062 A 
ENDROOT
BRANCH   7  11
HETATM   11  N3  UNL     1      21.468   2.071  52.982  1.00  0.00    -0.340 N 
HETATM   12  H4  UNL     1      21.322   2.704  53.762  1.00  0.00     0.167 HD
BRANCH  11  13
HETATM   13  C6  UNL     1      21.215   0.741  53.391  1.00  0.00     0.035 A 
HETATM   14  C7  UNL     1      22.181  -0.089  53.977  1.00  0.00     0.029 A 
HETATM   15  C8  UNL     1      21.917  -1.375  54.371  1.00  0.00     0.004 A 
HETATM   16  C9  UNL     1      20.692  -1.938  54.220  1.00  0.00     0.024 A 
HETATM   17  C10 UNL     1      19.696  -1.163  53.646  1.00  0.00     0.036 A 
HETATM   18 CL1  UNL     1      18.129  -1.912  53.464  1.00  0.00    -0.084 Cl
HETATM   19  C11 UNL     1      19.998   0.125  53.263  1.00  0.00     0.053 A 
ENDBRANCH  11  13
ENDBRANCH   7  11
BRANCH  10  20
HETATM   20  N4  UNL     1      26.657   2.490  52.816  1.00  0.00    -0.384 N 
HETATM   21  H10 UNL     1      27.020   3.493  52.690  1.00  0.00     0.160 HD
BRANCH  20  22
HETATM   22  C15 UNL     1      27.830   2.294  53.564  1.00  0.00     0.154 C 
BRANCH  22  23
HETATM   23  C16 UNL     1      28.334   0.856  53.468  1.00  0.00    -0.059 A 
HETATM   24  C17 UNL     1      29.583   0.464  53.727  1.00  0.00     0.004 A 
HETATM   25  C18 UNL     1      29.771  -0.954  53.557  1.00  0.00    -0.003 A 
HETATM   26  C19 UNL     1      28.632  -1.473  53.193  1.00  0.00    -0.022 A 
HETATM   27  C20 UNL     1      27.604  -0.384  53.109  1.00  0.00     0.063 A 
ENDBRANCH  22  23
ENDBRANCH  20  22
ENDBRANCH  10  20
BRANCH   1  28
HETATM   28  O1  UNL     1      27.172   3.405  50.324  1.00  0.00    -0.358 OA
HETATM   29  H1  UNL     1      27.733   2.766  49.798  1.00  0.00     0.217 HD
ENDBRANCH   1  28
TORSDOF 6
ENDMDL
MODEL 6
REMARK VINA RESULT:      -8.4      2.569      6.099
REMARK  6 active torsions:
REMARK  status: ('A' for Active; 'I' for Inactive)
REMARK    1  A    between atoms: O1_1  and  C1_2 
REMARK    2  A    between atoms: C5_8  and  N3_9 
REMARK    3  A    between atoms: N3_9  and  C6_10 
REMARK    4  A    between atoms: C14_19  and  N4_20 
REMARK    5  A    between atoms: N4_20  and  C15_21 
REMARK    6  A    between atoms: C15_21  and  C16_22 
ROOT
HETATM    1  C1  UNL     1      24.317  -0.602  54.430  1.00  0.00     0.094 A 
HETATM    2  C2  UNL     1      23.085  -1.252  54.609  1.00  0.00     0.071 A 
HETATM    3  C3  UNL     1      22.012  -0.675  53.970  1.00  0.00     0.075 A 
HETATM    4  N1  UNL     1      20.832  -1.275  54.129  1.00  0.00    -0.241 NA
HETATM    5  C4  UNL     1      19.702  -0.825  53.565  1.00  0.00     0.236 A 
HETATM    6  N2  UNL     1      19.796   0.275  52.818  1.00  0.00    -0.224 NA
HETATM    7  C5  UNL     1      20.917   0.958  52.587  1.00  0.00     0.142 A 
HETATM    8  C12 UNL     1      22.032   0.448  53.190  1.00  0.00     0.041 A 
HETATM    9  C13 UNL     1      23.251   1.046  53.042  1.00  0.00     0.049 A 
HETATM   10  C14 UNL     1      24.378   0.554  53.636  1.00  0.00     0.062 A 
ENDROOT
BRANCH   7  11
HETATM   11  N3  UNL     1      20.992   2.127  51.792  1.00  0.00    -0.340 N 
HETATM   12  H4  UNL     1      20.691   3.032  52.139  1.00  0.00     0.167 HD
BRANCH  11  13
HETATM   13  C6  UNL     1      21.464   2.254  50.465  1.00  0.00     0.035 A 
HETATM   14  C7  UNL     1      21.355   1.243  49.501  1.00  0.00     0.029 A 
HETATM   15  C8  UNL     1      21.814   1.384  48.218  1.00  0.00     0.004 A 
HETATM   16  C9  UNL     1      22.412   2.524  47.789  1.00  0.00     0.024 A 
HETATM   17  C10 UNL     1      22.546   3.561  48.699  1.00  0.00     0.036 A 
HETATM   18 CL1  UNL     1      23.318   5.016  48.121  1.00  0.00    -0.084 Cl
HETATM   19  C11 UNL     1      22.073   3.381  49.980  1.00  0.00     0.053 A 
ENDBRANCH  11  13
ENDBRANCH   7  11
BRANCH  10  20
HETATM   20  N4  UNL     1      25.714   0.984  53.669  1.00  0.00    -0.384 N 
HETATM   21  H10 UNL     1      25.835   0.840  54.726  1.00  0.00     0.160 HD
BRANCH  20  22
HETATM   22  C15 UNL     1      27.051   1.413  53.701  1.00  0.00     0.154 C 
BRANCH  22  23
HETATM   23  C16 UNL     1      28.028   0.246  53.557  1.00  0.00    -0.059 A 
HETATM   24  C17 UNL     1      29.300   0.260  53.960  1.00  0.00     0.004 A 
HETATM   25  C18 UNL     1      29.981  -0.982  53.700  1.00  0.00    -0.003 A 
HETATM   26  C19 UNL     1      29.137  -1.797  53.133  1.00  0.00    -0.022 A 
HETATM   27  C20 UNL     1      27.812  -1.108  52.994  1.00  0.00     0.063 A 
ENDBRANCH  22  23
ENDBRANCH  20  22
ENDBRANCH  10  20
BRANCH   1  28
HETATM   28  O1  UNL     1      25.329  -1.269  55.115  1.00  0.00    -0.358 OA
HETATM   29  H1  UNL     1      25.242  -1.669  56.027  1.00  0.00     0.217 HD
ENDBRANCH   1  28
TORSDOF 6
ENDMDL
MODEL 7
REMARK VINA RESULT:      -7.9      2.424      5.349
REMARK  6 active torsions:
REMARK  status: ('A' for Active; 'I' for Inactive)
REMARK    1  A    between atoms: O1_1  and  C1_2 
REMARK    2  A    between atoms: C5_8  and  N3_9 
REMARK    3  A    between atoms: N3_9  and  C6_10 
REMARK    4  A    between atoms: C14_19  and  N4_20 
REMARK    5  A    between atoms: N4_20  and  C15_21 
REMARK    6  A    between atoms: C15_21  and  C16_22 
ROOT
HETATM    1  C1  UNL     1      23.325   0.981  52.776  1.00  0.00     0.094 A 
HETATM    2  C2  UNL     1      22.353   1.879  52.307  1.00  0.00     0.071 A 
HETATM    3  C3  UNL     1      22.780   2.765  51.345  1.00  0.00     0.075 A 
HETATM    4  N1  UNL     1      21.874   3.630  50.887  1.00  0.00    -0.241 NA
HETATM    5  C4  UNL     1      22.148   4.549  49.951  1.00  0.00     0.236 A 
HETATM    6  N2  UNL     1      23.393   4.575  49.477  1.00  0.00    -0.224 NA
HETATM    7  C5  UNL     1      24.381   3.764  49.856  1.00  0.00     0.142 A 
HETATM    8  C12 UNL     1      24.037   2.851  50.812  1.00  0.00     0.041 A 
HETATM    9  C13 UNL     1      24.949   1.958  51.297  1.00  0.00     0.049 A 
HETATM   10  C14 UNL     1      24.627   1.038  52.253  1.00  0.00     0.062 A 
ENDROOT
BRANCH   7  11
HETATM   11  N3  UNL     1      25.698   3.812  49.340  1.00  0.00    -0.340 N 
HETATM   12  H4  UNL     1      26.214   2.969  49.105  1.00  0.00     0.167 HD
BRANCH  11  13
HETATM   13  C6  UNL     1      26.492   4.951  49.070  1.00  0.00     0.035 A 
HETATM   14  C7  UNL     1      27.784   4.887  48.531  1.00  0.00     0.029 A 
HETATM   15  C8  UNL     1      28.539   6.001  48.271  1.00  0.00     0.004 A 
HETATM   16  C9  UNL     1      28.082   7.254  48.521  1.00  0.00     0.024 A 
HETATM   17  C10 UNL     1      26.809   7.379  49.054  1.00  0.00     0.036 A 
HETATM   18 CL1  UNL     1      26.246   9.002  49.365  1.00  0.00    -0.084 Cl
HETATM   19  C11 UNL     1      26.081   6.237  49.301  1.00  0.00     0.053 A 
ENDBRANCH  11  13
ENDBRANCH   7  11
BRANCH  10  20
HETATM   20  N4  UNL     1      25.365   0.052  52.927  1.00  0.00    -0.384 N 
HETATM   21  H10 UNL     1      26.236   0.141  52.305  1.00  0.00     0.160 HD
BRANCH  20  22
HETATM   22  C15 UNL     1      26.103  -0.934  53.602  1.00  0.00     0.154 C 
BRANCH  22  23
HETATM   23  C16 UNL     1      27.598  -0.620  53.614  1.00  0.00    -0.059 A 
HETATM   24  C17 UNL     1      28.129   0.555  53.957  1.00  0.00     0.004 A 
HETATM   25  C18 UNL     1      29.568   0.561  53.878  1.00  0.00    -0.003 A 
HETATM   26  C19 UNL     1      29.957  -0.619  53.487  1.00  0.00    -0.022 A 
HETATM   27  C20 UNL     1      28.753  -1.491  53.289  1.00  0.00     0.063 A 
ENDBRANCH  22  23
ENDBRANCH  20  22
ENDBRANCH  10  20
BRANCH   1  28
HETATM   28  O1  UNL     1      22.787   0.133  53.740  1.00  0.00    -0.358 OA
HETATM   29  H1  UNL     1      21.910  -0.342  53.666  1.00  0.00     0.217 HD
ENDBRANCH   1  28
TORSDOF 6
ENDMDL
MODEL 8
REMARK VINA RESULT:      -7.9      3.418      7.418
REMARK  6 active torsions:
REMARK  status: ('A' for Active; 'I' for Inactive)
REMARK    1  A    between atoms: O1_1  and  C1_2 
REMARK    2  A    between atoms: C5_8  and  N3_9 
REMARK    3  A    between atoms: N3_9  and  C6_10 
REMARK    4  A    between atoms: C14_19  and  N4_20 
REMARK    5  A    between atoms: N4_20  and  C15_21 
REMARK    6  A    between atoms: C15_21  and  C16_22 
ROOT
HETATM    1  C1  UNL     1      25.785   3.193  51.036  1.00  0.00     0.094 A 
HETATM    2  C2  UNL     1      25.136   3.582  49.854  1.00  0.00     0.071 A 
HETATM    3  C3  UNL     1      23.762   3.582  49.905  1.00  0.00     0.075 A 
HETATM    4  N1  UNL     1      23.125   3.946  48.791  1.00  0.00    -0.241 NA
HETATM    5  C4  UNL     1      21.788   3.992  48.696  1.00  0.00     0.236 A 
HETATM    6  N2  UNL     1      21.093   3.652  49.781  1.00  0.00    -0.224 NA
HETATM    7  C5  UNL     1      21.617   3.273  50.947  1.00  0.00     0.142 A 
HETATM    8  C12 UNL     1      22.983   3.247  50.978  1.00  0.00     0.041 A 
HETATM    9  C13 UNL     1      23.657   2.876  52.107  1.00  0.00     0.049 A 
HETATM   10  C14 UNL     1      25.020   2.842  52.160  1.00  0.00     0.062 A 
ENDROOT
BRANCH   7  11
HETATM   11  N3  UNL     1      20.858   2.913  52.086  1.00  0.00    -0.340 N 
HETATM   12  H4  UNL     1      20.624   3.587  52.809  1.00  0.00     0.167 HD
BRANCH  11  13
HETATM   13  C6  UNL     1      20.319   1.649  52.416  1.00  0.00     0.035 A 
HETATM   14  C7  UNL     1      19.076   1.191  51.957  1.00  0.00     0.029 A 
HETATM   15  C8  UNL     1      18.570  -0.041  52.283  1.00  0.00     0.004 A 
HETATM   16  C9  UNL     1      19.244  -0.909  53.079  1.00  0.00     0.024 A 
HETATM   17  C10 UNL     1      20.480  -0.510  53.561  1.00  0.00     0.036 A 
HETATM   18 CL1  UNL     1      21.326  -1.646  54.583  1.00  0.00    -0.084 Cl
HETATM   19  C11 UNL     1      20.956   0.735  53.213  1.00  0.00     0.053 A 
ENDBRANCH  11  13
ENDBRANCH   7  11
BRANCH  10  20
HETATM   20  N4  UNL     1      25.935   2.478  53.161  1.00  0.00    -0.384 N 
HETATM   21  H10 UNL     1      25.220   2.506  53.961  1.00  0.00     0.160 HD
BRANCH  20  22
HETATM   22  C15 UNL     1      26.851   2.113  54.162  1.00  0.00     0.154 C 
BRANCH  22  23
HETATM   23  C16 UNL     1      27.613   0.839  53.800  1.00  0.00    -0.059 A 
HETATM   24  C17 UNL     1      28.915   0.640  54.014  1.00  0.00     0.004 A 
HETATM   25  C18 UNL     1      29.361  -0.657  53.575  1.00  0.00    -0.003 A 
HETATM   26  C19 UNL     1      28.336  -1.293  53.082  1.00  0.00    -0.022 A 
HETATM   27  C20 UNL     1      27.123  -0.417  53.183  1.00  0.00     0.063 A 
ENDBRANCH  22  23
ENDBRANCH  20  22
ENDBRANCH  10  20
BRANCH   1  28
HETATM   28  O1  UNL     1      27.168   3.231  50.875  1.00  0.00    -0.358 OA
HETATM   29  H1  UNL     1      27.645   3.551  50.056  1.00  0.00     0.217 HD
ENDBRANCH   1  28
TORSDOF 6
ENDMDL
MODEL 9
REMARK VINA RESULT:      -7.9      2.561      5.692
REMARK  6 active torsions:
REMARK  status: ('A' for Active; 'I' for Inactive)
REMARK    1  A    between atoms: O1_1  and  C1_2 
REMARK    2  A    between atoms: C5_8  and  N3_9 
REMARK    3  A    between atoms: N3_9  and  C6_10 
REMARK    4  A    between atoms: C14_19  and  N4_20 
REMARK    5  A    between atoms: N4_20  and  C15_21 
REMARK    6  A    between atoms: C15_21  and  C16_22 
ROOT
HETATM    1  C1  UNL     1      22.602   0.027  52.956  1.00  0.00     0.094 A 
HETATM    2  C2  UNL     1      21.297   0.409  52.610  1.00  0.00     0.071 A 
HETATM    3  C3  UNL     1      21.136   1.735  52.278  1.00  0.00     0.075 A 
HETATM    4  N1  UNL     1      19.903   2.121  51.947  1.00  0.00    -0.241 NA
HETATM    5  C4  UNL     1      19.600   3.380  51.602  1.00  0.00     0.236 A 
HETATM    6  N2  UNL     1      20.598   4.263  51.599  1.00  0.00    -0.224 NA
HETATM    7  C5  UNL     1      21.866   3.996  51.910  1.00  0.00     0.142 A 
HETATM    8  C12 UNL     1      22.109   2.696  52.252  1.00  0.00     0.041 A 
HETATM    9  C13 UNL     1      23.363   2.278  52.595  1.00  0.00     0.049 A 
HETATM   10  C14 UNL     1      23.629   0.985  52.942  1.00  0.00     0.062 A 
ENDROOT
BRANCH   7  11
HETATM   11  N3  UNL     1      22.910   4.951  51.902  1.00  0.00    -0.340 N 
HETATM   12  H4  UNL     1      23.201   5.435  52.746  1.00  0.00     0.167 HD
BRANCH  11  13
HETATM   13  C6  UNL     1      23.692   5.385  50.807  1.00  0.00     0.035 A 
HETATM   14  C7  UNL     1      23.343   6.462  49.981  1.00  0.00     0.029 A 
HETATM   15  C8  UNL     1      24.115   6.872  48.926  1.00  0.00     0.004 A 
HETATM   16  C9  UNL     1      25.283   6.258  48.606  1.00  0.00     0.024 A 
HETATM   17  C10 UNL     1      25.680   5.187  49.391  1.00  0.00     0.036 A 
HETATM   18 CL1  UNL     1      27.186   4.416  48.958  1.00  0.00    -0.084 Cl
HETATM   19  C11 UNL     1      24.878   4.803  50.442  1.00  0.00     0.053 A 
ENDBRANCH  11  13
ENDBRANCH   7  11
BRANCH  10  20
HETATM   20  N4  UNL     1      24.794   0.318  53.355  1.00  0.00    -0.384 N 
HETATM   21  H10 UNL     1      24.387  -0.017  54.291  1.00  0.00     0.160 HD
BRANCH  20  22
HETATM   22  C15 UNL     1      25.959  -0.349  53.767  1.00  0.00     0.154 C 
BRANCH  22  23
HETATM   23  C16 UNL     1      27.159   0.593  53.843  1.00  0.00    -0.059 A 
HETATM   24  C17 UNL     1      28.304   0.324  54.474  1.00  0.00     0.004 A 
HETATM   25  C18 UNL     1      29.261   1.397  54.375  1.00  0.00    -0.003 A 
HETATM   26  C19 UNL     1      28.726   2.353  53.670  1.00  0.00    -0.022 A 
HETATM   27  C20 UNL     1      27.347   1.940  53.252  1.00  0.00     0.063 A 
ENDBRANCH  22  23
ENDBRANCH  20  22
ENDBRANCH  10  20
BRANCH   1  28
HETATM   28  O1  UNL     1      22.651  -1.329  53.270  1.00  0.00    -0.358 OA
HETATM   29  H1  UNL     1      21.999  -2.018  52.955  1.00  0.00     0.217 HD
ENDBRANCH   1  28
TORSDOF 6
ENDMDL
