MODEL 1
REMARK VINA RESULT:      -8.1      0.000      0.000
REMARK  5 active torsions:
REMARK  status: ('A' for Active; 'I' for Inactive)
REMARK    1  A    between atoms: C2_2  and  C3_3 
REMARK    2  A    between atoms: C2_2  and  N1_7 
REMARK    3  A    between atoms: C3_3  and  C4_4 
REMARK    4  A    between atoms: N1_7  and  C5_8 
REMARK    5  A    between atoms: C10_15  and  N4_16 
ROOT
HETATM    1  C5  UNL     1      25.882   0.694  54.168  1.00  0.00     0.033 A 
HETATM    2  C6  UNL     1      25.117  -0.401  54.563  1.00  0.00     0.032 A 
HETATM    3  C7  UNL     1      23.899  -0.745  54.014  1.00  0.00     0.035 A 
HETATM    4  C8  UNL     1      23.376   0.030  52.999  1.00  0.00     0.072 A 
HETATM    5  N2  UNL     1      22.210  -0.210  52.407  1.00  0.00    -0.241 NA
HETATM    6  C9  UNL     1      21.785   0.625  51.420  1.00  0.00     0.236 A 
HETATM    7  N3  UNL     1      22.512   1.705  51.009  1.00  0.00    -0.223 NA
HETATM    8  C10 UNL     1      23.713   1.970  51.602  1.00  0.00     0.144 A 
HETATM    9  C16 UNL     1      24.124   1.115  52.598  1.00  0.00     0.041 A 
HETATM   10  C17 UNL     1      25.333   1.447  53.153  1.00  0.00     0.047 A 
ENDROOT
BRANCH   1  11
HETATM   11  N1  UNL     1      27.113   1.011  54.750  1.00  0.00    -0.363 N 
HETATM   12  H6  UNL     1      27.119   1.188  55.783  1.00  0.00     0.165 HD
BRANCH  11  13
HETATM   13  C2  UNL     1      28.370   1.132  54.135  1.00  0.00    -0.008 C 
HETATM   14  C1  UNL     1      28.871   2.297  53.769  1.00  0.00     0.058 C 
BRANCH  13  15
HETATM   15  C3  UNL     1      29.479   0.292  53.697  1.00  0.00     0.123 C 
BRANCH  15  16
HETATM   16  C4  UNL     1      29.014  -1.120  53.417  1.00  0.00     0.358 C 
HETATM   17  F1  UNL     1      30.088  -1.822  52.906  1.00  0.00    -0.214 F 
HETATM   18  F2  UNL     1      27.949  -1.101  52.529  1.00  0.00    -0.214 F 
ENDBRANCH  15  16
ENDBRANCH  13  15
ENDBRANCH  11  13
ENDBRANCH   1  11
BRANCH   8  19
HETATM   19  N4  UNL     1      24.333   3.107  51.026  1.00  0.00    -0.336 N 
HETATM   20  C11 UNL     1      23.552   4.261  51.371  1.00  0.00     0.093 A 
HETATM   21  C12 UNL     1      23.895   5.502  50.989  1.00  0.00     0.018 A 
HETATM   22  C13 UNL     1      25.084   5.750  50.197  1.00  0.00     0.018 A 
HETATM   23  C14 UNL     1      25.776   4.664  49.897  1.00  0.00     0.007 A 
HETATM   24 BR1  UNL     1      27.389   4.733  48.859  1.00  0.00    -0.054 Br
HETATM   25  C15 UNL     1      25.518   3.250  50.231  1.00  0.00     0.176 A 
ENDBRANCH   8  19
TORSDOF 5
ENDMDL
MODEL 2
REMARK VINA RESULT:      -7.9      2.543      3.432
REMARK  5 active torsions:
REMARK  status: ('A' for Active; 'I' for Inactive)
REMARK    1  A    between atoms: C2_2  and  C3_3 
REMARK    2  A    between atoms: C2_2  and  N1_7 
REMARK    3  A    between atoms: C3_3  and  C4_4 
REMARK    4  A    between atoms: N1_7  and  C5_8 
REMARK    5  A    between atoms: C10_15  and  N4_16 
ROOT
HETATM    1  C5  UNL     1      23.744  -0.543  53.920  1.00  0.00     0.033 A 
HETATM    2  C6  UNL     1      22.912  -1.217  54.811  1.00  0.00     0.032 A 
HETATM    3  C7  UNL     1      21.538  -1.290  54.698  1.00  0.00     0.035 A 
HETATM    4  C8  UNL     1      20.917  -0.662  53.637  1.00  0.00     0.072 A 
HETATM    5  N2  UNL     1      19.602  -0.667  53.440  1.00  0.00    -0.241 NA
HETATM    6  C9  UNL     1      19.093  -0.008  52.363  1.00  0.00     0.236 A 
HETATM    7  N3  UNL     1      19.882   0.660  51.470  1.00  0.00    -0.223 NA
HETATM    8  C10 UNL     1      21.235   0.676  51.653  1.00  0.00     0.144 A 
HETATM    9  C16 UNL     1      21.729   0.006  52.748  1.00  0.00     0.041 A 
HETATM   10  C17 UNL     1      23.093   0.072  52.873  1.00  0.00     0.047 A 
ENDROOT
BRANCH   1  11
HETATM   11  N1  UNL     1      25.133  -0.491  54.069  1.00  0.00    -0.363 N 
HETATM   12  H6  UNL     1      25.506  -0.465  55.048  1.00  0.00     0.165 HD
BRANCH  11  13
HETATM   13  C2  UNL     1      26.122  -0.466  53.073  1.00  0.00    -0.008 C 
HETATM   14  C1  UNL     1      26.847  -1.527  52.766  1.00  0.00     0.058 C 
BRANCH  13  15
HETATM   15  C3  UNL     1      26.715   0.462  52.117  1.00  0.00     0.123 C 
BRANCH  15  16
HETATM   16  C4  UNL     1      26.434   1.897  52.506  1.00  0.00     0.358 C 
HETATM   17  F1  UNL     1      27.022   2.712  51.559  1.00  0.00    -0.214 F 
HETATM   18  F2  UNL     1      26.933   2.150  53.775  1.00  0.00    -0.214 F 
ENDBRANCH  15  16
ENDBRANCH  13  15
ENDBRANCH  11  13
ENDBRANCH   1  11
BRANCH   8  19
HETATM   19  N4  UNL     1      21.887   1.389  50.616  1.00  0.00    -0.336 N 
HETATM   20  C11 UNL     1      21.334   0.956  49.365  1.00  0.00     0.093 A 
HETATM   21  C12 UNL     1      21.733   1.466  48.188  1.00  0.00     0.018 A 
HETATM   22  C13 UNL     1      22.756   2.491  48.113  1.00  0.00     0.018 A 
HETATM   23  C14 UNL     1      23.243   2.863  49.285  1.00  0.00     0.007 A 
HETATM   24 BR1  UNL     1      24.605   4.205  49.448  1.00  0.00    -0.054 Br
HETATM   25  C15 UNL     1      22.915   2.388  50.644  1.00  0.00     0.176 A 
ENDBRANCH   8  19
TORSDOF 5
ENDMDL
MODEL 3
REMARK VINA RESULT:      -7.9      2.077      2.791
REMARK  5 active torsions:
REMARK  status: ('A' for Active; 'I' for Inactive)
REMARK    1  A    between atoms: C2_2  and  C3_3 
REMARK    2  A    between atoms: C2_2  and  N1_7 
REMARK    3  A    between atoms: C3_3  and  C4_4 
REMARK    4  A    between atoms: N1_7  and  C5_8 
REMARK    5  A    between atoms: C10_15  and  N4_16 
ROOT
HETATM    1  C5  UNL     1      25.208  -0.701  53.947  1.00  0.00     0.033 A 
HETATM    2  C6  UNL     1      24.605  -1.308  55.046  1.00  0.00     0.032 A 
HETATM    3  C7  UNL     1      23.264  -1.210  55.360  1.00  0.00     0.035 A 
HETATM    4  C8  UNL     1      22.437  -0.467  54.543  1.00  0.00     0.072 A 
HETATM    5  N2  UNL     1      21.134  -0.304  54.758  1.00  0.00    -0.241 NA
HETATM    6  C9  UNL     1      20.412   0.457  53.892  1.00  0.00     0.236 A 
HETATM    7  N3  UNL     1      20.972   1.065  52.805  1.00  0.00    -0.223 NA
HETATM    8  C10 UNL     1      22.306   0.910  52.565  1.00  0.00     0.144 A 
HETATM    9  C16 UNL     1      23.020   0.138  53.451  1.00  0.00     0.041 A 
HETATM   10  C17 UNL     1      24.354   0.034  53.153  1.00  0.00     0.047 A 
ENDROOT
BRANCH   1  11
HETATM   11  N1  UNL     1      26.571  -0.822  53.664  1.00  0.00    -0.363 N 
HETATM   12  H6  UNL     1      26.887  -1.718  53.220  1.00  0.00     0.165 HD
BRANCH  11  13
HETATM   13  C2  UNL     1      27.601   0.104  53.894  1.00  0.00    -0.008 C 
HETATM   14  C1  UNL     1      28.246   0.176  55.045  1.00  0.00     0.058 C 
BRANCH  13  15
HETATM   15  C3  UNL     1      28.314   1.171  53.201  1.00  0.00     0.123 C 
BRANCH  15  16
HETATM   16  C4  UNL     1      27.352   2.087  52.478  1.00  0.00     0.358 C 
HETATM   17  F1  UNL     1      26.367   2.454  53.374  1.00  0.00    -0.214 F 
HETATM   18  F2  UNL     1      26.819   1.439  51.374  1.00  0.00    -0.214 F 
ENDBRANCH  15  16
ENDBRANCH  13  15
ENDBRANCH  11  13
ENDBRANCH   1  11
BRANCH   8  19
HETATM   19  N4  UNL     1      22.699   1.585  51.381  1.00  0.00    -0.336 N 
HETATM   20  C11 UNL     1      21.866   1.121  50.309  1.00  0.00     0.093 A 
HETATM   21  C12 UNL     1      21.978   1.591  49.056  1.00  0.00     0.018 A 
HETATM   22  C13 UNL     1      22.959   2.602  48.710  1.00  0.00     0.018 A 
HETATM   23  C14 UNL     1      23.709   3.003  49.723  1.00  0.00     0.007 A 
HETATM   24 BR1  UNL     1      25.076   4.335  49.519  1.00  0.00    -0.054 Br
HETATM   25  C15 UNL     1      23.709   2.572  51.135  1.00  0.00     0.176 A 
ENDBRANCH   8  19
TORSDOF 5
ENDMDL
MODEL 4
REMARK VINA RESULT:      -7.9      2.524      2.925
REMARK  5 active torsions:
REMARK  status: ('A' for Active; 'I' for Inactive)
REMARK    1  A    between atoms: C2_2  and  C3_3 
REMARK    2  A    between atoms: C2_2  and  N1_7 
REMARK    3  A    between atoms: C3_3  and  C4_4 
REMARK    4  A    between atoms: N1_7  and  C5_8 
REMARK    5  A    between atoms: C10_15  and  N4_16 
ROOT
HETATM    1  C5  UNL     1      25.596   0.438  53.563  1.00  0.00     0.033 A 
HETATM    2  C6  UNL     1      25.661  -0.488  54.601  1.00  0.00     0.032 A 
HETATM    3  C7  UNL     1      24.574  -1.157  55.126  1.00  0.00     0.035 A 
HETATM    4  C8  UNL     1      23.319  -0.913  54.604  1.00  0.00     0.072 A 
HETATM    5  N2  UNL     1      22.208  -1.498  55.041  1.00  0.00    -0.241 NA
HETATM    6  C9  UNL     1      21.020  -1.177  54.459  1.00  0.00     0.236 A 
HETATM    7  N3  UNL     1      20.922  -0.274  53.438  1.00  0.00    -0.223 NA
HETATM    8  C10 UNL     1      22.051   0.337  52.974  1.00  0.00     0.144 A 
HETATM    9  C16 UNL     1      23.241   0.000  53.575  1.00  0.00     0.041 A 
HETATM   10  C17 UNL     1      24.330   0.659  53.064  1.00  0.00     0.047 A 
ENDROOT
BRANCH   1  11
HETATM   11  N1  UNL     1      26.721   1.096  53.058  1.00  0.00    -0.363 N 
HETATM   12  H6  UNL     1      26.623   1.554  52.121  1.00  0.00     0.165 HD
BRANCH  11  13
HETATM   13  C2  UNL     1      27.992   1.233  53.639  1.00  0.00    -0.008 C 
HETATM   14  C1  UNL     1      28.649   2.379  53.645  1.00  0.00     0.058 C 
BRANCH  13  15
HETATM   15  C3  UNL     1      28.985   0.431  54.345  1.00  0.00     0.123 C 
BRANCH  15  16
HETATM   16  C4  UNL     1      29.524  -0.669  53.459  1.00  0.00     0.358 C 
HETATM   17  F1  UNL     1      28.477  -1.518  53.158  1.00  0.00    -0.214 F 
HETATM   18  F2  UNL     1      30.552  -1.338  54.107  1.00  0.00    -0.214 F 
ENDBRANCH  15  16
ENDBRANCH  13  15
ENDBRANCH  11  13
ENDBRANCH   1  11
BRANCH   8  19
HETATM   19  N4  UNL     1      21.758   1.214  51.899  1.00  0.00    -0.336 N 
HETATM   20  C11 UNL     1      21.024   2.330  52.425  1.00  0.00     0.093 A 
HETATM   21  C12 UNL     1      20.617   3.351  51.653  1.00  0.00     0.018 A 
HETATM   22  C13 UNL     1      20.896   3.384  50.230  1.00  0.00     0.018 A 
HETATM   23  C14 UNL     1      21.572   2.338  49.782  1.00  0.00     0.007 A 
HETATM   24 BR1  UNL     1      22.063   2.151  47.936  1.00  0.00    -0.054 Br
HETATM   25  C15 UNL     1      22.068   1.148  50.501  1.00  0.00     0.176 A 
ENDBRANCH   8  19
TORSDOF 5
ENDMDL
MODEL 5
REMARK VINA RESULT:      -7.6      1.930      2.489
REMARK  5 active torsions:
REMARK  status: ('A' for Active; 'I' for Inactive)
REMARK    1  A    between atoms: C2_2  and  C3_3 
REMARK    2  A    between atoms: C2_2  and  N1_7 
REMARK    3  A    between atoms: C3_3  and  C4_4 
REMARK    4  A    between atoms: N1_7  and  C5_8 
REMARK    5  A    between atoms: C10_15  and  N4_16 
ROOT
HETATM    1  C5  UNL     1      24.035  -0.170  53.851  1.00  0.00     0.033 A 
HETATM    2  C6  UNL     1      22.959  -0.932  54.299  1.00  0.00     0.032 A 
HETATM    3  C7  UNL     1      21.633  -0.638  54.053  1.00  0.00     0.035 A 
HETATM    4  C8  UNL     1      21.321   0.483  53.310  1.00  0.00     0.072 A 
HETATM    5  N2  UNL     1      20.078   0.858  53.022  1.00  0.00    -0.241 NA
HETATM    6  C9  UNL     1      19.883   1.987  52.287  1.00  0.00     0.236 A 
HETATM    7  N3  UNL     1      20.916   2.755  51.831  1.00  0.00    -0.223 NA
HETATM    8  C10 UNL     1      22.199   2.388  52.116  1.00  0.00     0.144 A 
HETATM    9  C16 UNL     1      22.376   1.244  52.859  1.00  0.00     0.041 A 
HETATM   10  C17 UNL     1      23.689   0.942  53.113  1.00  0.00     0.047 A 
ENDROOT
BRANCH   1  11
HETATM   11  N1  UNL     1      25.366  -0.500  54.122  1.00  0.00    -0.363 N 
HETATM   12  H6  UNL     1      25.576  -0.883  55.075  1.00  0.00     0.165 HD
BRANCH  11  13
HETATM   13  C2  UNL     1      26.487  -0.388  53.284  1.00  0.00    -0.008 C 
HETATM   14  C1  UNL     1      27.032  -1.431  52.686  1.00  0.00     0.058 C 
BRANCH  13  15
HETATM   15  C3  UNL     1      27.392   0.632  52.768  1.00  0.00     0.123 C 
BRANCH  15  16
HETATM   16  C4  UNL     1      27.449   1.828  53.693  1.00  0.00     0.358 C 
HETATM   17  F1  UNL     1      26.279   2.543  53.528  1.00  0.00    -0.214 F 
HETATM   18  F2  UNL     1      28.563   2.601  53.400  1.00  0.00    -0.214 F 
ENDBRANCH  15  16
ENDBRANCH  13  15
ENDBRANCH  11  13
ENDBRANCH   1  11
BRANCH   8  19
HETATM   19  N4  UNL     1      23.133   3.284  51.537  1.00  0.00    -0.336 N 
HETATM   20  C11 UNL     1      22.692   4.622  51.813  1.00  0.00     0.093 A 
HETATM   21  C12 UNL     1      23.382   5.703  51.412  1.00  0.00     0.018 A 
HETATM   22  C13 UNL     1      24.621   5.580  50.669  1.00  0.00     0.018 A 
HETATM   23  C14 UNL     1      24.993   4.332  50.432  1.00  0.00     0.007 A 
HETATM   24 BR1  UNL     1      26.597   3.910  49.467  1.00  0.00    -0.054 Br
HETATM   25  C15 UNL     1      24.338   3.061  50.794  1.00  0.00     0.176 A 
ENDBRANCH   8  19
TORSDOF 5
ENDMDL
MODEL 6
REMARK VINA RESULT:      -7.5      3.618      6.097
REMARK  5 active torsions:
REMARK  status: ('A' for Active; 'I' for Inactive)
REMARK    1  A    between atoms: C2_2  and  C3_3 
REMARK    2  A    between atoms: C2_2  and  N1_7 
REMARK    3  A    between atoms: C3_3  and  C4_4 
REMARK    4  A    between atoms: N1_7  and  C5_8 
REMARK    5  A    between atoms: C10_15  and  N4_16 
ROOT
HETATM    1  C5  UNL     1      21.614   0.229  53.689  1.00  0.00     0.033 A 
HETATM    2  C6  UNL     1      21.894  -0.686  54.700  1.00  0.00     0.032 A 
HETATM    3  C7  UNL     1      23.161  -1.114  55.042  1.00  0.00     0.035 A 
HETATM    4  C8  UNL     1      24.247  -0.614  54.352  1.00  0.00     0.072 A 
HETATM    5  N2  UNL     1      25.507  -0.964  54.598  1.00  0.00    -0.241 NA
HETATM    6  C9  UNL     1      26.503  -0.415  53.851  1.00  0.00     0.236 A 
HETATM    7  N3  UNL     1      26.261   0.486  52.853  1.00  0.00    -0.223 NA
HETATM    8  C10 UNL     1      24.976   0.860  52.585  1.00  0.00     0.144 A 
HETATM    9  C16 UNL     1      23.984   0.293  53.350  1.00  0.00     0.041 A 
HETATM   10  C17 UNL     1      22.719   0.708  53.020  1.00  0.00     0.047 A 
ENDROOT
BRANCH   1  11
HETATM   11  N1  UNL     1      20.315   0.637  53.370  1.00  0.00    -0.363 N 
HETATM   12  H6  UNL     1      19.905   1.411  53.947  1.00  0.00     0.165 HD
BRANCH  11  13
HETATM   13  C2  UNL     1      19.462   0.147  52.369  1.00  0.00    -0.008 C 
HETATM   14  C1  UNL     1      19.622   0.445  51.092  1.00  0.00     0.058 C 
BRANCH  13  15
HETATM   15  C3  UNL     1      18.285  -0.703  52.227  1.00  0.00     0.123 C 
BRANCH  15  16
HETATM   16  C4  UNL     1      18.029  -1.491  53.493  1.00  0.00     0.358 C 
HETATM   17  F1  UNL     1      19.170  -2.214  53.777  1.00  0.00    -0.214 F 
HETATM   18  F2  UNL     1      16.931  -2.322  53.319  1.00  0.00    -0.214 F 
ENDBRANCH  15  16
ENDBRANCH  13  15
ENDBRANCH  11  13
ENDBRANCH   1  11
BRANCH   8  19
HETATM   19  N4  UNL     1      24.925   1.820  51.543  1.00  0.00    -0.336 N 
HETATM   20  C11 UNL     1      26.255   2.316  51.333  1.00  0.00     0.093 A 
HETATM   21  C12 UNL     1      26.541   3.230  50.390  1.00  0.00     0.018 A 
HETATM   22  C13 UNL     1      25.512   3.774  49.524  1.00  0.00     0.018 A 
HETATM   23  C14 UNL     1      24.300   3.294  49.750  1.00  0.00     0.007 A 
HETATM   24 BR1  UNL     1      22.772   3.857  48.735  1.00  0.00    -0.054 Br
HETATM   25  C15 UNL     1      23.838   2.310  50.748  1.00  0.00     0.176 A 
ENDBRANCH   8  19
TORSDOF 5
ENDMDL
MODEL 7
REMARK VINA RESULT:      -7.4      1.844      2.107
REMARK  5 active torsions:
REMARK  status: ('A' for Active; 'I' for Inactive)
REMARK    1  A    between atoms: C2_2  and  C3_3 
REMARK    2  A    between atoms: C2_2  and  N1_7 
REMARK    3  A    between atoms: C3_3  and  C4_4 
REMARK    4  A    between atoms: N1_7  and  C5_8 
REMARK    5  A    between atoms: C10_15  and  N4_16 
ROOT
HETATM    1  C5  UNL     1      26.069   1.233  53.574  1.00  0.00     0.033 A 
HETATM    2  C6  UNL     1      25.897   0.064  54.310  1.00  0.00     0.032 A 
HETATM    3  C7  UNL     1      24.731  -0.674  54.350  1.00  0.00     0.035 A 
HETATM    4  C8  UNL     1      23.642  -0.249  53.617  1.00  0.00     0.072 A 
HETATM    5  N2  UNL     1      22.473  -0.882  53.591  1.00  0.00    -0.241 NA
HETATM    6  C9  UNL     1      21.461  -0.370  52.839  1.00  0.00     0.236 A 
HETATM    7  N3  UNL     1      21.598   0.774  52.104  1.00  0.00    -0.223 NA
HETATM    8  C10 UNL     1      22.790   1.439  52.116  1.00  0.00     0.144 A 
HETATM    9  C16 UNL     1      23.800   0.906  52.883  1.00  0.00     0.041 A 
HETATM   10  C17 UNL     1      24.964   1.631  52.854  1.00  0.00     0.047 A 
ENDROOT
BRANCH   1  11
HETATM   11  N1  UNL     1      27.267   1.954  53.560  1.00  0.00    -0.363 N 
HETATM   12  H6  UNL     1      27.197   2.988  53.403  1.00  0.00     0.165 HD
BRANCH  11  13
HETATM   13  C2  UNL     1      28.578   1.482  53.728  1.00  0.00    -0.008 C 
HETATM   14  C1  UNL     1      29.407   1.991  54.621  1.00  0.00     0.058 C 
BRANCH  13  15
HETATM   15  C3  UNL     1      29.476   0.473  53.177  1.00  0.00     0.123 C 
BRANCH  15  16
HETATM   16  C4  UNL     1      29.339  -0.839  53.917  1.00  0.00     0.358 C 
HETATM   17  F1  UNL     1      30.603  -1.376  54.059  1.00  0.00    -0.214 F 
HETATM   18  F2  UNL     1      28.499  -1.693  53.216  1.00  0.00    -0.214 F 
ENDBRANCH  15  16
ENDBRANCH  13  15
ENDBRANCH  11  13
ENDBRANCH   1  11
BRANCH   8  19
HETATM   19  N4  UNL     1      22.752   2.580  51.276  1.00  0.00    -0.336 N 
HETATM   20  C11 UNL     1      23.051   2.154  49.938  1.00  0.00     0.093 A 
HETATM   21  C12 UNL     1      23.072   3.007  48.900  1.00  0.00     0.018 A 
HETATM   22  C13 UNL     1      22.792   4.420  49.073  1.00  0.00     0.018 A 
HETATM   23  C14 UNL     1      22.523   4.774  50.319  1.00  0.00     0.007 A 
HETATM   24 BR1  UNL     1      22.120   6.587  50.803  1.00  0.00    -0.054 Br
HETATM   25  C15 UNL     1      22.478   3.960  51.549  1.00  0.00     0.176 A 
ENDBRANCH   8  19
TORSDOF 5
ENDMDL
MODEL 8
REMARK VINA RESULT:      -7.3      3.416      5.897
REMARK  5 active torsions:
REMARK  status: ('A' for Active; 'I' for Inactive)
REMARK    1  A    between atoms: C2_2  and  C3_3 
REMARK    2  A    between atoms: C2_2  and  N1_7 
REMARK    3  A    between atoms: C3_3  and  C4_4 
REMARK    4  A    between atoms: N1_7  and  C5_8 
REMARK    5  A    between atoms: C10_15  and  N4_16 
ROOT
HETATM    1  C5  UNL     1      21.635   0.029  53.825  1.00  0.00     0.033 A 
HETATM    2  C6  UNL     1      21.963  -0.865  54.841  1.00  0.00     0.032 A 
HETATM    3  C7  UNL     1      23.250  -1.243  55.169  1.00  0.00     0.035 A 
HETATM    4  C8  UNL     1      24.307  -0.713  54.457  1.00  0.00     0.072 A 
HETATM    5  N2  UNL     1      25.581  -1.016  54.687  1.00  0.00    -0.241 NA
HETATM    6  C9  UNL     1      26.546  -0.441  53.919  1.00  0.00     0.236 A 
HETATM    7  N3  UNL     1      26.257   0.440  52.915  1.00  0.00    -0.223 NA
HETATM    8  C10 UNL     1      24.956   0.765  52.663  1.00  0.00     0.144 A 
HETATM    9  C16 UNL     1      23.996   0.173  53.449  1.00  0.00     0.041 A 
HETATM   10  C17 UNL     1      22.713   0.539  53.134  1.00  0.00     0.047 A 
ENDROOT
BRANCH   1  11
HETATM   11  N1  UNL     1      20.318   0.387  53.522  1.00  0.00    -0.363 N 
HETATM   12  H6  UNL     1      19.624   0.353  54.307  1.00  0.00     0.165 HD
BRANCH  11  13
HETATM   13  C2  UNL     1      19.780   0.793  52.291  1.00  0.00    -0.008 C 
HETATM   14  C1  UNL     1      18.824   0.118  51.677  1.00  0.00     0.058 C 
BRANCH  13  15
HETATM   15  C3  UNL     1      19.930   1.860  51.309  1.00  0.00     0.123 C 
BRANCH  15  16
HETATM   16  C4  UNL     1      19.910   3.218  51.973  1.00  0.00     0.358 C 
HETATM   17  F1  UNL     1      19.602   4.155  51.007  1.00  0.00    -0.214 F 
HETATM   18  F2  UNL     1      21.141   3.477  52.559  1.00  0.00    -0.214 F 
ENDBRANCH  15  16
ENDBRANCH  13  15
ENDBRANCH  11  13
ENDBRANCH   1  11
BRANCH   8  19
HETATM   19  N4  UNL     1      24.855   1.711  51.612  1.00  0.00    -0.336 N 
HETATM   20  C11 UNL     1      26.175   2.197  51.325  1.00  0.00     0.093 A 
HETATM   21  C12 UNL     1      26.416   3.096  50.355  1.00  0.00     0.018 A 
HETATM   22  C13 UNL     1      25.346   3.633  49.537  1.00  0.00     0.018 A 
HETATM   23  C14 UNL     1      24.144   3.164  49.833  1.00  0.00     0.007 A 
HETATM   24 BR1  UNL     1      22.568   3.721  48.890  1.00  0.00    -0.054 Br
HETATM   25  C15 UNL     1      23.731   2.196  50.867  1.00  0.00     0.176 A 
ENDBRANCH   8  19
TORSDOF 5
ENDMDL
MODEL 9
REMARK VINA RESULT:      -7.3      2.985      5.605
REMARK  5 active torsions:
REMARK  status: ('A' for Active; 'I' for Inactive)
REMARK    1  A    between atoms: C2_2  and  C3_3 
REMARK    2  A    between atoms: C2_2  and  N1_7 
REMARK    3  A    between atoms: C3_3  and  C4_4 
REMARK    4  A    between atoms: N1_7  and  C5_8 
REMARK    5  A    between atoms: C10_15  and  N4_16 
ROOT
HETATM    1  C5  UNL     1      22.257   0.430  53.672  1.00  0.00     0.033 A 
HETATM    2  C6  UNL     1      22.630  -0.649  54.470  1.00  0.00     0.032 A 
HETATM    3  C7  UNL     1      23.928  -1.085  54.644  1.00  0.00     0.035 A 
HETATM    4  C8  UNL     1      24.951  -0.422  53.995  1.00  0.00     0.072 A 
HETATM    5  N2  UNL     1      26.233  -0.764  54.090  1.00  0.00    -0.241 NA
HETATM    6  C9  UNL     1      27.160  -0.046  53.400  1.00  0.00     0.236 A 
HETATM    7  N3  UNL     1      26.827   1.018  52.611  1.00  0.00    -0.223 NA
HETATM    8  C10 UNL     1      25.518   1.386  52.500  1.00  0.00     0.144 A 
HETATM    9  C16 UNL     1      24.595   0.647  53.204  1.00  0.00     0.041 A 
HETATM   10  C17 UNL     1      23.301   1.069  53.039  1.00  0.00     0.047 A 
ENDROOT
BRANCH   1  11
HETATM   11  N1  UNL     1      20.929   0.840  53.520  1.00  0.00    -0.363 N 
HETATM   12  H6  UNL     1      20.625   1.678  54.073  1.00  0.00     0.165 HD
BRANCH  11  13
HETATM   13  C2  UNL     1      19.923   0.279  52.718  1.00  0.00    -0.008 C 
HETATM   14  C1  UNL     1      19.139  -0.695  53.142  1.00  0.00     0.058 C 
BRANCH  13  15
HETATM   15  C3  UNL     1      19.359   0.420  51.381  1.00  0.00     0.123 C 
BRANCH  15  16
HETATM   16  C4  UNL     1      20.382   0.976  50.415  1.00  0.00     0.358 C 
HETATM   17  F1  UNL     1      19.758   1.146  49.194  1.00  0.00    -0.214 F 
HETATM   18  F2  UNL     1      21.461   0.110  50.318  1.00  0.00    -0.214 F 
ENDBRANCH  15  16
ENDBRANCH  13  15
ENDBRANCH  11  13
ENDBRANCH   1  11
BRANCH   8  19
HETATM   19  N4  UNL     1      25.370   2.523  51.667  1.00  0.00    -0.336 N 
HETATM   20  C11 UNL     1      26.451   2.523  50.721  1.00  0.00     0.093 A 
HETATM   21  C12 UNL     1      26.578   3.468  49.775  1.00  0.00     0.018 A 
HETATM   22  C13 UNL     1      25.625   4.554  49.655  1.00  0.00     0.018 A 
HETATM   23  C14 UNL     1      24.646   4.521  50.544  1.00  0.00     0.007 A 
HETATM   24 BR1  UNL     1      23.260   5.849  50.588  1.00  0.00    -0.054 Br
HETATM   25  C15 UNL     1      24.386   3.565  51.637  1.00  0.00     0.176 A 
ENDBRANCH   8  19
TORSDOF 5
ENDMDL
