MODEL 1
REMARK VINA RESULT:     -10.6      0.000      0.000
REMARK  2 active torsions:
REMARK  status: ('A' for Active; 'I' for Inactive)
REMARK    1  A    between atoms: C8_9  and  C9_10 
REMARK    2  A    between atoms: C9_10  and  N1_11 
ROOT
HETATM    1  C1  UNL     1      23.028   2.108  48.242  1.00  0.00     0.042 C 
HETATM    2  C2  UNL     1      22.480   3.125  49.009  1.00  0.00     0.152 A 
HETATM    3  O1  UNL     1      23.399   4.466  48.868  1.00  0.00    -0.366 OA
HETATM    4  C3  UNL     1      23.910   4.377  50.346  1.00  0.00     0.110 A 
HETATM    5  C4  UNL     1      24.943   3.580  49.748  1.00  0.00     0.097 A 
HETATM    6  C5  UNL     1      25.521   3.045  50.866  1.00  0.00     0.034 A 
HETATM    7  C6  UNL     1      24.464   3.861  51.375  1.00  0.00     0.077 A 
HETATM    8  C7  UNL     1      23.572   4.540  52.191  1.00  0.00     0.002 A 
HETATM    9  C8  UNL     1      22.968   5.101  51.072  1.00  0.00    -0.019 A 
HETATM   10  C12 UNL     1      23.139   2.953  50.606  1.00  0.00     0.109 A 
HETATM   11  N2  UNL     1      22.251   1.930  51.051  1.00  0.00    -0.374 N 
HETATM   12  C13 UNL     1      22.342   1.007  52.116  1.00  0.00     0.031 A 
HETATM   13  C14 UNL     1      21.214   0.539  52.740  1.00  0.00     0.029 A 
HETATM   14  C15 UNL     1      21.194  -0.328  53.808  1.00  0.00     0.005 A 
HETATM   15  C16 UNL     1      22.382  -0.792  54.332  1.00  0.00     0.037 A 
HETATM   16  C17 UNL     1      23.564  -0.393  53.794  1.00  0.00     0.071 A 
HETATM   17  C18 UNL     1      23.469   0.490  52.704  1.00  0.00     0.065 A 
HETATM   18  O2  UNL     1      24.930  -0.372  53.725  1.00  0.00    -0.347 OA
HETATM   19  C19 UNL     1      25.757  -0.895  52.742  1.00  0.00     0.215 C 
HETATM   20  C20 UNL     1      27.173  -0.539  53.014  1.00  0.00    -0.026 A 
HETATM   21  C21 UNL     1      28.133  -1.488  53.242  1.00  0.00     0.010 A 
HETATM   22  C22 UNL     1      29.451  -1.164  53.473  1.00  0.00     0.001 A 
HETATM   23  C23 UNL     1      29.830   0.172  53.478  1.00  0.00     0.001 A 
HETATM   24  C24 UNL     1      28.818   1.073  53.243  1.00  0.00     0.009 A 
HETATM   25  C25 UNL     1      27.458   0.829  53.000  1.00  0.00    -0.030 A 
HETATM   26  C26 UNL     1      26.625   2.045  52.801  1.00  0.00     0.187 C 
HETATM   27  N3  UNL     1      26.418   2.297  51.411  1.00  0.00    -0.292 NA
HETATM   28  H15 UNL     1      21.398   1.876  50.515  1.00  0.00     0.160 HD
ENDROOT
BRANCH   9  29
HETATM   29  C9  UNL     1      21.867   6.000  51.617  1.00  0.00     0.308 C 
BRANCH  29  30
HETATM   30  N1  UNL     1      21.852   7.155  50.762  1.00  0.00     0.083 N 
HETATM   31  C10 UNL     1      21.288   6.882  49.456  1.00  0.00     0.309 C 
HETATM   32  C11 UNL     1      23.184   7.698  50.556  1.00  0.00     0.309 C 
ENDBRANCH  29  30
ENDBRANCH   9  29
TORSDOF 2
ENDMDL
MODEL 2
REMARK VINA RESULT:      -9.9      1.782      2.200
REMARK  2 active torsions:
REMARK  status: ('A' for Active; 'I' for Inactive)
REMARK    1  A    between atoms: C8_9  and  C9_10 
REMARK    2  A    between atoms: C9_10  and  N1_11 
ROOT
HETATM    1  C1  UNL     1      22.040   0.879  48.258  1.00  0.00     0.042 C 
HETATM    2  C2  UNL     1      21.208   1.777  48.908  1.00  0.00     0.152 A 
HETATM    3  O1  UNL     1      21.705   3.299  48.595  1.00  0.00    -0.366 OA
HETATM    4  C3  UNL     1      22.193   3.537  50.065  1.00  0.00     0.110 A 
HETATM    5  C4  UNL     1      23.422   3.006  49.549  1.00  0.00     0.097 A 
HETATM    6  C5  UNL     1      24.109   2.796  50.713  1.00  0.00     0.034 A 
HETATM    7  C6  UNL     1      22.852   3.327  51.139  1.00  0.00     0.077 A 
HETATM    8  C7  UNL     1      21.787   3.811  51.883  1.00  0.00     0.002 A 
HETATM    9  C8  UNL     1      21.068   4.039  50.715  1.00  0.00    -0.019 A 
HETATM   10  C12 UNL     1      21.859   1.991  50.504  1.00  0.00     0.109 A 
HETATM   11  N2  UNL     1      21.295   0.816  51.081  1.00  0.00    -0.374 N 
HETATM   12  C13 UNL     1      21.628   0.091  52.245  1.00  0.00     0.031 A 
HETATM   13  C14 UNL     1      20.671  -0.606  52.939  1.00  0.00     0.029 A 
HETATM   14  C15 UNL     1      20.882  -1.310  54.102  1.00  0.00     0.005 A 
HETATM   15  C16 UNL     1      22.143  -1.347  54.658  1.00  0.00     0.037 A 
HETATM   16  C17 UNL     1      23.170  -0.691  54.057  1.00  0.00     0.071 A 
HETATM   17  C18 UNL     1      22.845  -0.007  52.873  1.00  0.00     0.065 A 
HETATM   18  O2  UNL     1      24.473  -0.286  53.964  1.00  0.00    -0.347 OA
HETATM   19  C19 UNL     1      25.434  -0.660  53.037  1.00  0.00     0.215 C 
HETATM   20  C20 UNL     1      26.682   0.119  53.242  1.00  0.00    -0.026 A 
HETATM   21  C21 UNL     1      27.870  -0.480  53.565  1.00  0.00     0.010 A 
HETATM   22  C22 UNL     1      29.034   0.235  53.735  1.00  0.00     0.001 A 
HETATM   23  C23 UNL     1      29.013   1.614  53.576  1.00  0.00     0.001 A 
HETATM   24  C24 UNL     1      27.788   2.151  53.252  1.00  0.00     0.009 A 
HETATM   25  C25 UNL     1      26.561   1.499  53.062  1.00  0.00    -0.030 A 
HETATM   26  C26 UNL     1      25.418   2.391  52.735  1.00  0.00     0.187 C 
HETATM   27  N3  UNL     1      25.172   2.408  51.328  1.00  0.00    -0.292 NA
HETATM   28  H15 UNL     1      20.504   0.456  50.568  1.00  0.00     0.160 HD
ENDROOT
BRANCH   9  29
HETATM   29  C9  UNL     1      19.745   4.640  51.168  1.00  0.00     0.308 C 
BRANCH  29  30
HETATM   30  N1  UNL     1      18.725   3.831  50.559  1.00  0.00     0.083 N 
HETATM   31  C10 UNL     1      17.671   4.619  49.951  1.00  0.00     0.309 C 
HETATM   32  C11 UNL     1      18.101   2.930  51.512  1.00  0.00     0.309 C 
ENDBRANCH  29  30
ENDBRANCH   9  29
TORSDOF 2
ENDMDL
MODEL 3
REMARK VINA RESULT:      -9.1      8.068      9.865
REMARK  2 active torsions:
REMARK  status: ('A' for Active; 'I' for Inactive)
REMARK    1  A    between atoms: C8_9  and  C9_10 
REMARK    2  A    between atoms: C9_10  and  N1_11 
ROOT
HETATM    1  C1  UNL     1      30.052   9.988  44.184  1.00  0.00     0.042 C 
HETATM    2  C2  UNL     1      29.723  10.777  45.275  1.00  0.00     0.152 A 
HETATM    3  O1  UNL     1      31.012  11.683  45.697  1.00  0.00    -0.366 OA
HETATM    4  C3  UNL     1      31.239  10.896  47.033  1.00  0.00     0.110 A 
HETATM    5  C4  UNL     1      32.064  10.074  46.195  1.00  0.00     0.097 A 
HETATM    6  C5  UNL     1      32.275   9.008  47.026  1.00  0.00     0.034 A 
HETATM    7  C6  UNL     1      31.446   9.888  47.788  1.00  0.00     0.077 A 
HETATM    8  C7  UNL     1      30.685  10.481  48.783  1.00  0.00     0.002 A 
HETATM    9  C8  UNL     1      30.457  11.579  47.961  1.00  0.00    -0.019 A 
HETATM   10  C12 UNL     1      30.045   9.825  46.691  1.00  0.00     0.109 A 
HETATM   11  N2  UNL     1      28.833   9.073  46.674  1.00  0.00    -0.374 N 
HETATM   12  C13 UNL     1      28.478   7.854  47.291  1.00  0.00     0.031 A 
HETATM   13  C14 UNL     1      27.179   7.600  47.652  1.00  0.00     0.029 A 
HETATM   14  C15 UNL     1      26.735   6.465  48.290  1.00  0.00     0.005 A 
HETATM   15  C16 UNL     1      27.633   5.472  48.618  1.00  0.00     0.037 A 
HETATM   16  C17 UNL     1      28.948   5.616  48.311  1.00  0.00     0.071 A 
HETATM   17  C18 UNL     1      29.293   6.811  47.656  1.00  0.00     0.065 A 
HETATM   18  O2  UNL     1      30.251   5.199  48.289  1.00  0.00    -0.347 OA
HETATM   19  C19 UNL     1      31.025   4.824  47.201  1.00  0.00     0.215 C 
HETATM   20  C20 UNL     1      32.422   4.558  47.627  1.00  0.00    -0.026 A 
HETATM   21  C21 UNL     1      33.006   3.328  47.486  1.00  0.00     0.010 A 
HETATM   22  C22 UNL     1      34.307   3.081  47.859  1.00  0.00     0.001 A 
HETATM   23  C23 UNL     1      35.065   4.112  48.400  1.00  0.00     0.001 A 
HETATM   24  C24 UNL     1      34.419   5.321  48.513  1.00  0.00     0.009 A 
HETATM   25  C25 UNL     1      33.103   5.655  48.161  1.00  0.00    -0.030 A 
HETATM   26  C26 UNL     1      32.715   7.064  48.437  1.00  0.00     0.187 C 
HETATM   27  N3  UNL     1      32.810   7.859  47.254  1.00  0.00    -0.292 NA
HETATM   28  H15 UNL     1      28.097   9.509  46.139  1.00  0.00     0.160 HD
ENDROOT
BRANCH   9  29
HETATM   29  C9  UNL     1      29.606  12.532  48.789  1.00  0.00     0.308 C 
BRANCH  29  30
HETATM   30  N1  UNL     1      28.700  13.148  47.859  1.00  0.00     0.083 N 
HETATM   31  C10 UNL     1      29.263  14.319  47.217  1.00  0.00     0.309 C 
HETATM   32  C11 UNL     1      27.458  13.553  48.494  1.00  0.00     0.309 C 
ENDBRANCH  29  30
ENDBRANCH   9  29
TORSDOF 2
ENDMDL
MODEL 4
REMARK VINA RESULT:      -8.7      2.936      5.160
REMARK  2 active torsions:
REMARK  status: ('A' for Active; 'I' for Inactive)
REMARK    1  A    between atoms: C8_9  and  C9_10 
REMARK    2  A    between atoms: C9_10  and  N1_11 
ROOT
HETATM    1  C1  UNL     1      21.545   0.994  47.943  1.00  0.00     0.042 C 
HETATM    2  C2  UNL     1      20.785   1.482  48.995  1.00  0.00     0.152 A 
HETATM    3  O1  UNL     1      19.917   2.766  48.486  1.00  0.00    -0.366 OA
HETATM    4  C3  UNL     1      20.750   3.781  49.342  1.00  0.00     0.110 A 
HETATM    5  C4  UNL     1      21.560   3.832  48.159  1.00  0.00     0.097 A 
HETATM    6  C5  UNL     1      22.656   4.495  48.639  1.00  0.00     0.034 A 
HETATM    7  C6  UNL     1      21.786   4.394  49.768  1.00  0.00     0.077 A 
HETATM    8  C7  UNL     1      21.211   4.485  51.026  1.00  0.00     0.002 A 
HETATM    9  C8  UNL     1      20.083   3.815  50.564  1.00  0.00    -0.019 A 
HETATM   10  C12 UNL     1      21.788   2.615  49.847  1.00  0.00     0.109 A 
HETATM   11  N2  UNL     1      22.516   1.659  50.615  1.00  0.00    -0.374 N 
HETATM   12  C13 UNL     1      23.748   1.748  51.300  1.00  0.00     0.031 A 
HETATM   13  C14 UNL     1      23.990   0.989  52.417  1.00  0.00     0.029 A 
HETATM   14  C15 UNL     1      25.136   1.029  53.176  1.00  0.00     0.005 A 
HETATM   15  C16 UNL     1      26.155   1.889  52.828  1.00  0.00     0.037 A 
HETATM   16  C17 UNL     1      26.026   2.691  51.739  1.00  0.00     0.071 A 
HETATM   17  C18 UNL     1      24.816   2.568  51.033  1.00  0.00     0.065 A 
HETATM   18  O2  UNL     1      26.465   3.651  50.869  1.00  0.00    -0.347 OA
HETATM   19  C19 UNL     1      26.820   3.516  49.535  1.00  0.00     0.215 C 
HETATM   20  C20 UNL     1      27.125   4.844  48.944  1.00  0.00    -0.026 A 
HETATM   21  C21 UNL     1      28.360   5.152  48.442  1.00  0.00     0.010 A 
HETATM   22  C22 UNL     1      28.643   6.374  47.874  1.00  0.00     0.001 A 
HETATM   23  C23 UNL     1      27.644   7.336  47.803  1.00  0.00     0.001 A 
HETATM   24  C24 UNL     1      26.427   6.962  48.325  1.00  0.00     0.009 A 
HETATM   25  C25 UNL     1      26.058   5.746  48.919  1.00  0.00    -0.030 A 
HETATM   26  C26 UNL     1      24.652   5.680  49.398  1.00  0.00     0.187 C 
HETATM   27  N3  UNL     1      23.822   5.010  48.449  1.00  0.00    -0.292 NA
HETATM   28  H15 UNL     1      22.050   0.768  50.694  1.00  0.00     0.160 HD
ENDROOT
BRANCH   9  29
HETATM   29  C9  UNL     1      19.141   3.742  51.758  1.00  0.00     0.308 C 
BRANCH  29  30
HETATM   30  N1  UNL     1      17.868   3.349  51.221  1.00  0.00     0.083 N 
HETATM   31  C10 UNL     1      16.751   3.950  51.923  1.00  0.00     0.309 C 
HETATM   32  C11 UNL     1      17.681   1.908  51.258  1.00  0.00     0.309 C 
ENDBRANCH  29  30
ENDBRANCH   9  29
TORSDOF 2
ENDMDL
MODEL 5
REMARK VINA RESULT:      -8.7      3.027      6.793
REMARK  2 active torsions:
REMARK  status: ('A' for Active; 'I' for Inactive)
REMARK    1  A    between atoms: C8_9  and  C9_10 
REMARK    2  A    between atoms: C9_10  and  N1_11 
ROOT
HETATM    1  C1  UNL     1      24.024   3.572  53.396  1.00  0.00     0.042 C 
HETATM    2  C2  UNL     1      23.180   3.002  52.456  1.00  0.00     0.152 A 
HETATM    3  O1  UNL     1      23.909   1.706  51.787  1.00  0.00    -0.366 OA
HETATM    4  C3  UNL     1      24.079   2.409  50.396  1.00  0.00     0.110 A 
HETATM    5  C4  UNL     1      25.322   2.839  50.971  1.00  0.00     0.097 A 
HETATM    6  C5  UNL     1      25.700   3.788  50.061  1.00  0.00     0.034 A 
HETATM    7  C6  UNL     1      24.451   3.302  49.563  1.00  0.00     0.077 A 
HETATM    8  C7  UNL     1      23.311   3.068  48.809  1.00  0.00     0.002 A 
HETATM    9  C8  UNL     1      22.905   2.097  49.717  1.00  0.00    -0.019 A 
HETATM   10  C12 UNL     1      23.476   3.828  50.958  1.00  0.00     0.109 A 
HETATM   11  N2  UNL     1      22.662   4.968  51.224  1.00  0.00    -0.374 N 
HETATM   12  C13 UNL     1      22.638   6.257  50.648  1.00  0.00     0.031 A 
HETATM   13  C14 UNL     1      21.474   6.982  50.594  1.00  0.00     0.029 A 
HETATM   14  C15 UNL     1      21.334   8.225  50.022  1.00  0.00     0.005 A 
HETATM   15  C16 UNL     1      22.425   8.835  49.439  1.00  0.00     0.037 A 
HETATM   16  C17 UNL     1      23.630   8.208  49.433  1.00  0.00     0.071 A 
HETATM   17  C18 UNL     1      23.663   6.944  50.047  1.00  0.00     0.065 A 
HETATM   18  O2  UNL     1      24.960   8.120  49.122  1.00  0.00    -0.347 OA
HETATM   19  C19 UNL     1      26.053   8.143  49.974  1.00  0.00     0.215 C 
HETATM   20  C20 UNL     1      27.306   7.897  49.215  1.00  0.00    -0.026 A 
HETATM   21  C21 UNL     1      28.312   8.823  49.151  1.00  0.00     0.010 A 
HETATM   22  C22 UNL     1      29.484   8.593  48.466  1.00  0.00     0.001 A 
HETATM   23  C23 UNL     1      29.662   7.379  47.814  1.00  0.00     0.001 A 
HETATM   24  C24 UNL     1      28.613   6.495  47.919  1.00  0.00     0.009 A 
HETATM   25  C25 UNL     1      27.392   6.650  48.592  1.00  0.00    -0.030 A 
HETATM   26  C26 UNL     1      26.464   5.493  48.488  1.00  0.00     0.187 C 
HETATM   27  N3  UNL     1      26.545   4.671  49.654  1.00  0.00    -0.292 NA
HETATM   28  H15 UNL     1      21.970   4.810  51.940  1.00  0.00     0.160 HD
ENDROOT
BRANCH   9  29
HETATM   29  C9  UNL     1      21.594   1.554  49.165  1.00  0.00     0.308 C 
BRANCH  29  30
HETATM   30  N1  UNL     1      20.689   1.521  50.281  1.00  0.00     0.083 N 
HETATM   31  C10 UNL     1      20.861   0.345  51.110  1.00  0.00     0.309 C 
HETATM   32  C11 UNL     1      19.299   1.557  49.859  1.00  0.00     0.309 C 
ENDBRANCH  29  30
ENDBRANCH   9  29
TORSDOF 2
ENDMDL
MODEL 6
REMARK VINA RESULT:      -8.6      2.780      5.512
REMARK  2 active torsions:
REMARK  status: ('A' for Active; 'I' for Inactive)
REMARK    1  A    between atoms: C8_9  and  C9_10 
REMARK    2  A    between atoms: C9_10  and  N1_11 
ROOT
HETATM    1  C1  UNL     1      21.500   7.615  50.777  1.00  0.00     0.042 C 
HETATM    2  C2  UNL     1      21.437   7.439  49.403  1.00  0.00     0.152 A 
HETATM    3  O1  UNL     1      19.967   6.862  48.997  1.00  0.00    -0.366 OA
HETATM    4  C3  UNL     1      20.532   5.456  48.596  1.00  0.00     0.110 A 
HETATM    5  C4  UNL     1      20.288   5.167  49.980  1.00  0.00     0.097 A 
HETATM    6  C5  UNL     1      20.954   3.978  50.105  1.00  0.00     0.034 A 
HETATM    7  C6  UNL     1      21.151   4.348  48.739  1.00  0.00     0.077 A 
HETATM    8  C7  UNL     1      21.521   4.388  47.403  1.00  0.00     0.002 A 
HETATM    9  C8  UNL     1      20.848   5.594  47.247  1.00  0.00    -0.019 A 
HETATM   10  C12 UNL     1      22.050   5.847  49.078  1.00  0.00     0.109 A 
HETATM   11  N2  UNL     1      23.436   6.182  49.127  1.00  0.00    -0.374 N 
HETATM   12  C13 UNL     1      24.587   5.383  49.302  1.00  0.00     0.031 A 
HETATM   13  C14 UNL     1      25.788   5.748  48.749  1.00  0.00     0.029 A 
HETATM   14  C15 UNL     1      26.956   5.025  48.826  1.00  0.00     0.005 A 
HETATM   15  C16 UNL     1      26.970   3.825  49.504  1.00  0.00     0.037 A 
HETATM   16  C17 UNL     1      25.837   3.362  50.092  1.00  0.00     0.071 A 
HETATM   17  C18 UNL     1      24.702   4.181  49.955  1.00  0.00     0.065 A 
HETATM   18  O2  UNL     1      25.119   2.445  50.810  1.00  0.00    -0.347 OA
HETATM   19  C19 UNL     1      24.585   2.566  52.084  1.00  0.00     0.215 C 
HETATM   20  C20 UNL     1      23.779   1.366  52.424  1.00  0.00    -0.026 A 
HETATM   21  C21 UNL     1      24.098   0.547  53.473  1.00  0.00     0.010 A 
HETATM   22  C22 UNL     1      23.343  -0.555  53.805  1.00  0.00     0.001 A 
HETATM   23  C23 UNL     1      22.213  -0.855  53.055  1.00  0.00     0.001 A 
HETATM   24  C24 UNL     1      21.950   0.009  52.017  1.00  0.00     0.009 A 
HETATM   25  C25 UNL     1      22.664   1.146  51.612  1.00  0.00    -0.030 A 
HETATM   26  C26 UNL     1      22.108   1.850  50.426  1.00  0.00     0.187 C 
HETATM   27  N3  UNL     1      21.323   2.975  50.824  1.00  0.00    -0.292 NA
HETATM   28  H15 UNL     1      23.618   7.165  48.991  1.00  0.00     0.160 HD
ENDROOT
BRANCH   9  29
HETATM   29  C9  UNL     1      21.027   5.968  45.782  1.00  0.00     0.308 C 
BRANCH  29  30
HETATM   30  N1  UNL     1      21.175   7.397  45.764  1.00  0.00     0.083 N 
HETATM   31  C10 UNL     1      20.623   8.005  44.569  1.00  0.00     0.309 C 
HETATM   32  C11 UNL     1      22.567   7.804  45.856  1.00  0.00     0.309 C 
ENDBRANCH  29  30
ENDBRANCH   9  29
TORSDOF 2
ENDMDL
MODEL 7
REMARK VINA RESULT:      -8.6      1.904      2.718
REMARK  2 active torsions:
REMARK  status: ('A' for Active; 'I' for Inactive)
REMARK    1  A    between atoms: C8_9  and  C9_10 
REMARK    2  A    between atoms: C9_10  and  N1_11 
ROOT
HETATM    1  C1  UNL     1      22.292   2.434  47.203  1.00  0.00     0.042 C 
HETATM    2  C2  UNL     1      21.483   3.459  47.668  1.00  0.00     0.152 A 
HETATM    3  O1  UNL     1      22.346   4.842  47.739  1.00  0.00    -0.366 OA
HETATM    4  C3  UNL     1      22.340   4.869  49.306  1.00  0.00     0.110 A 
HETATM    5  C4  UNL     1      23.541   4.102  49.142  1.00  0.00     0.097 A 
HETATM    6  C5  UNL     1      23.734   3.667  50.425  1.00  0.00     0.034 A 
HETATM    7  C6  UNL     1      22.538   4.448  50.495  1.00  0.00     0.077 A 
HETATM    8  C7  UNL     1      21.401   5.118  50.918  1.00  0.00     0.002 A 
HETATM    9  C8  UNL     1      21.184   5.577  49.624  1.00  0.00    -0.019 A 
HETATM   10  C12 UNL     1      21.579   3.419  49.402  1.00  0.00     0.109 A 
HETATM   11  N2  UNL     1      20.632   2.372  49.603  1.00  0.00    -0.374 N 
HETATM   12  C13 UNL     1      20.398   1.520  50.705  1.00  0.00     0.031 A 
HETATM   13  C14 UNL     1      19.144   1.022  50.955  1.00  0.00     0.029 A 
HETATM   14  C15 UNL     1      18.802   0.218  52.018  1.00  0.00     0.005 A 
HETATM   15  C16 UNL     1      19.764  -0.143  52.937  1.00  0.00     0.037 A 
HETATM   16  C17 UNL     1      21.042   0.294  52.791  1.00  0.00     0.071 A 
HETATM   17  C18 UNL     1      21.283   1.106  51.668  1.00  0.00     0.065 A 
HETATM   18  O2  UNL     1      22.352   0.392  53.174  1.00  0.00    -0.347 OA
HETATM   19  C19 UNL     1      23.477  -0.137  52.561  1.00  0.00     0.215 C 
HETATM   20  C20 UNL     1      24.708   0.319  53.257  1.00  0.00    -0.026 A 
HETATM   21  C21 UNL     1      25.572  -0.557  53.858  1.00  0.00     0.010 A 
HETATM   22  C22 UNL     1      26.724  -0.142  54.486  1.00  0.00     0.001 A 
HETATM   23  C23 UNL     1      27.031   1.212  54.517  1.00  0.00     0.001 A 
HETATM   24  C24 UNL     1      26.122   2.036  53.894  1.00  0.00     0.009 A 
HETATM   25  C25 UNL     1      24.930   1.698  53.236  1.00  0.00    -0.030 A 
HETATM   26  C26 UNL     1      24.167   2.848  52.684  1.00  0.00     0.187 C 
HETATM   27  N3  UNL     1      24.425   3.007  51.288  1.00  0.00    -0.292 NA
HETATM   28  H15 UNL     1      20.009   2.237  48.822  1.00  0.00     0.160 HD
ENDROOT
BRANCH   9  29
HETATM   29  C9  UNL     1      19.931   6.439  49.707  1.00  0.00     0.308 C 
BRANCH  29  30
HETATM   30  N1  UNL     1      19.259   6.266  48.449  1.00  0.00     0.083 N 
HETATM   31  C10 UNL     1      18.615   7.478  47.984  1.00  0.00     0.309 C 
HETATM   32  C11 UNL     1      18.243   5.228  48.511  1.00  0.00     0.309 C 
ENDBRANCH  29  30
ENDBRANCH   9  29
TORSDOF 2
ENDMDL
MODEL 8
REMARK VINA RESULT:      -8.2      2.393      8.221
REMARK  2 active torsions:
REMARK  status: ('A' for Active; 'I' for Inactive)
REMARK    1  A    between atoms: C8_9  and  C9_10 
REMARK    2  A    between atoms: C9_10  and  N1_11 
ROOT
HETATM    1  C1  UNL     1      22.051   1.966  48.266  1.00  0.00     0.042 C 
HETATM    2  C2  UNL     1      22.680   1.732  49.479  1.00  0.00     0.152 A 
HETATM    3  O1  UNL     1      21.556   1.563  50.649  1.00  0.00    -0.366 OA
HETATM    4  C3  UNL     1      21.942   2.917  51.338  1.00  0.00     0.110 A 
HETATM    5  C4  UNL     1      20.957   3.445  50.437  1.00  0.00     0.097 A 
HETATM    6  C5  UNL     1      21.197   4.785  50.568  1.00  0.00     0.034 A 
HETATM    7  C6  UNL     1      22.150   4.173  51.439  1.00  0.00     0.077 A 
HETATM    8  C7  UNL     1      23.162   3.927  52.355  1.00  0.00     0.002 A 
HETATM    9  C8  UNL     1      22.937   2.560  52.244  1.00  0.00    -0.019 A 
HETATM   10  C12 UNL     1      23.027   3.289  50.166  1.00  0.00     0.109 A 
HETATM   11  N2  UNL     1      24.217   3.545  49.423  1.00  0.00    -0.374 N 
HETATM   12  C13 UNL     1      24.913   4.744  49.151  1.00  0.00     0.031 A 
HETATM   13  C14 UNL     1      26.271   4.741  48.958  1.00  0.00     0.029 A 
HETATM   14  C15 UNL     1      27.047   5.854  48.726  1.00  0.00     0.005 A 
HETATM   15  C16 UNL     1      26.456   7.098  48.678  1.00  0.00     0.037 A 
HETATM   16  C17 UNL     1      25.116   7.222  48.857  1.00  0.00     0.071 A 
HETATM   17  C18 UNL     1      24.418   6.022  49.083  1.00  0.00     0.065 A 
HETATM   18  O2  UNL     1      23.957   7.943  48.953  1.00  0.00    -0.347 OA
HETATM   19  C19 UNL     1      22.875   7.967  48.086  1.00  0.00     0.215 C 
HETATM   20  C20 UNL     1      21.782   8.803  48.645  1.00  0.00    -0.026 A 
HETATM   21  C21 UNL     1      21.329   9.928  48.011  1.00  0.00     0.010 A 
HETATM   22  C22 UNL     1      20.302  10.696  48.513  1.00  0.00     0.001 A 
HETATM   23  C23 UNL     1      19.697  10.322  49.707  1.00  0.00     0.001 A 
HETATM   24  C24 UNL     1      20.200   9.182  50.290  1.00  0.00     0.009 A 
HETATM   25  C25 UNL     1      21.238   8.348  49.848  1.00  0.00    -0.030 A 
HETATM   26  C26 UNL     1      21.543   7.197  50.738  1.00  0.00     0.187 C 
HETATM   27  N3  UNL     1      20.919   6.005  50.259  1.00  0.00    -0.292 NA
HETATM   28  H15 UNL     1      24.642   2.713  49.044  1.00  0.00     0.160 HD
ENDROOT
BRANCH   9  29
HETATM   29  C9  UNL     1      23.927   1.911  53.201  1.00  0.00     0.308 C 
BRANCH  29  30
HETATM   30  N1  UNL     1      23.994   0.530  52.810  1.00  0.00     0.083 N 
HETATM   31  C10 UNL     1      22.935  -0.271  53.390  1.00  0.00     0.309 C 
HETATM   32  C11 UNL     1      25.258  -0.083  53.182  1.00  0.00     0.309 C 
ENDBRANCH  29  30
ENDBRANCH   9  29
TORSDOF 2
ENDMDL
MODEL 9
REMARK VINA RESULT:      -8.0      2.165      3.209
REMARK  2 active torsions:
REMARK  status: ('A' for Active; 'I' for Inactive)
REMARK    1  A    between atoms: C8_9  and  C9_10 
REMARK    2  A    between atoms: C9_10  and  N1_11 
ROOT
HETATM    1  C1  UNL     1      22.315   4.059  47.100  1.00  0.00     0.042 C 
HETATM    2  C2  UNL     1      21.692   5.149  47.688  1.00  0.00     0.152 A 
HETATM    3  O1  UNL     1      22.793   6.322  47.958  1.00  0.00    -0.366 OA
HETATM    4  C3  UNL     1      22.729   6.147  49.514  1.00  0.00     0.110 A 
HETATM    5  C4  UNL     1      23.773   5.194  49.265  1.00  0.00     0.097 A 
HETATM    6  C5  UNL     1      23.830   4.568  50.480  1.00  0.00     0.034 A 
HETATM    7  C6  UNL     1      22.798   5.544  50.637  1.00  0.00     0.077 A 
HETATM    8  C7  UNL     1      21.789   6.357  51.131  1.00  0.00     0.002 A 
HETATM    9  C8  UNL     1      21.712   7.012  49.907  1.00  0.00    -0.019 A 
HETATM   10  C12 UNL     1      21.709   4.866  49.401  1.00  0.00     0.109 A 
HETATM   11  N2  UNL     1      20.577   4.000  49.446  1.00  0.00    -0.374 N 
HETATM   12  C13 UNL     1      20.145   3.072  50.417  1.00  0.00     0.031 A 
HETATM   13  C14 UNL     1      18.812   2.791  50.580  1.00  0.00     0.029 A 
HETATM   14  C15 UNL     1      18.285   1.936  51.519  1.00  0.00     0.005 A 
HETATM   15  C16 UNL     1      19.126   1.283  52.395  1.00  0.00     0.037 A 
HETATM   16  C17 UNL     1      20.467   1.485  52.328  1.00  0.00     0.071 A 
HETATM   17  C18 UNL     1      20.899   2.376  51.329  1.00  0.00     0.065 A 
HETATM   18  O2  UNL     1      21.756   1.283  52.740  1.00  0.00    -0.347 OA
HETATM   19  C19 UNL     1      22.788   0.636  52.078  1.00  0.00     0.215 C 
HETATM   20  C20 UNL     1      24.053   0.756  52.848  1.00  0.00    -0.026 A 
HETATM   21  C21 UNL     1      24.714  -0.338  53.337  1.00  0.00     0.010 A 
HETATM   22  C22 UNL     1      25.898  -0.234  54.033  1.00  0.00     0.001 A 
HETATM   23  C23 UNL     1      26.449   1.022  54.251  1.00  0.00     0.001 A 
HETATM   24  C24 UNL     1      25.733   2.077  53.733  1.00  0.00     0.009 A 
HETATM   25  C25 UNL     1      24.527   2.059  53.017  1.00  0.00    -0.030 A 
HETATM   26  C26 UNL     1      24.013   3.395  52.615  1.00  0.00     0.187 C 
HETATM   27  N3  UNL     1      24.352   3.682  51.257  1.00  0.00    -0.292 NA
HETATM   28  H15 UNL     1      19.972   4.088  48.644  1.00  0.00     0.160 HD
ENDROOT
BRANCH   9  29
HETATM   29  C9  UNL     1      20.639   8.077  50.088  1.00  0.00     0.308 C 
BRANCH  29  30
HETATM   30  N1  UNL     1      20.595   8.796  48.845  1.00  0.00     0.083 N 
HETATM   31  C10 UNL     1      21.723   9.689  48.671  1.00  0.00     0.309 C 
HETATM   32  C11 UNL     1      19.386   9.592  48.716  1.00  0.00     0.309 C 
ENDBRANCH  29  30
ENDBRANCH   9  29
TORSDOF 2
ENDMDL
