MODEL 1
REMARK VINA RESULT:      -8.7      0.000      0.000
REMARK  0 active torsions:
REMARK  status: ('A' for Active; 'I' for Inactive)
ROOT
HETATM    1  C1  UNL     1      26.003   4.360  49.623  1.00  0.00     0.024 C 
HETATM    2  C2  UNL     1      25.476   3.332  50.332  1.00  0.00     0.006 C 
HETATM    3  C3  UNL     1      26.390   2.868  51.381  1.00  0.00     0.311 C 
HETATM    4  N1  UNL     1      25.747   2.877  52.687  1.00  0.00     0.089 N 
HETATM    5  C4  UNL     1      24.846   1.702  52.857  1.00  0.00     0.296 C 
HETATM    6  C5  UNL     1      25.681   0.491  53.120  1.00  0.00     0.197 C 
HETATM    7  O1  UNL     1      25.156  -0.735  53.323  1.00  0.00    -0.389 OA
HETATM    8  C6  UNL     1      24.156  -0.900  54.251  1.00  0.00     0.168 C 
HETATM    9  C7  UNL     1      22.812  -0.643  53.685  1.00  0.00     0.030 C 
HETATM   10  C8  UNL     1      21.674  -0.562  54.710  1.00  0.00     0.029 C 
HETATM   11  C9  UNL     1      20.421  -0.607  53.870  1.00  0.00    -0.027 C 
HETATM   12  C10 UNL     1      19.270  -1.169  53.618  1.00  0.00    -0.004 C 
HETATM   13  C11 UNL     1      18.091  -1.203  52.806  1.00  0.00    -0.000 C 
HETATM   14  C12 UNL     1      17.796  -0.451  51.773  1.00  0.00    -0.000 C 
HETATM   15  C13 UNL     1      18.052   0.599  50.804  1.00  0.00    -0.002 C 
HETATM   16  C14 UNL     1      18.122   1.516  49.850  1.00  0.00    -0.001 C 
HETATM   17  C15 UNL     1      19.324   2.368  49.742  1.00  0.00     0.195 C 
HETATM   18  O2  UNL     1      19.120   3.728  49.865  1.00  0.00    -0.384 OA
HETATM   19  C16 UNL     1      20.399   4.348  49.807  1.00  0.00     0.195 C 
HETATM   20  C17 UNL     1      21.069   4.042  48.544  1.00  0.00    -0.005 C 
HETATM   21  C18 UNL     1      22.228   3.421  48.325  1.00  0.00    -0.021 C 
HETATM   22  C19 UNL     1      23.079   2.899  49.401  1.00  0.00     0.110 C 
HETATM   23  C20 UNL     1      24.381   3.563  49.433  1.00  0.00     0.160 C 
HETATM   24  O3  UNL     1      24.333   4.389  48.506  1.00  0.00    -0.292 OA
HETATM   25  H5  UNL     1      26.482   2.745  53.415  1.00  0.00     0.316 HD
ENDROOT
TORSDOF 0
ENDMDL
MODEL 2
REMARK VINA RESULT:      -8.5      1.621      2.675
REMARK  0 active torsions:
REMARK  status: ('A' for Active; 'I' for Inactive)
ROOT
HETATM    1  C1  UNL     1      23.737   5.906  48.223  1.00  0.00     0.024 C 
HETATM    2  C2  UNL     1      24.037   4.809  48.961  1.00  0.00     0.006 C 
HETATM    3  C3  UNL     1      25.462   4.757  49.306  1.00  0.00     0.311 C 
HETATM    4  N1  UNL     1      25.655   4.632  50.743  1.00  0.00     0.089 N 
HETATM    5  C4  UNL     1      25.422   3.233  51.203  1.00  0.00     0.296 C 
HETATM    6  C5  UNL     1      26.607   2.403  50.830  1.00  0.00     0.197 C 
HETATM    7  O1  UNL     1      26.702   1.088  51.114  1.00  0.00    -0.389 OA
HETATM    8  C6  UNL     1      26.470   0.652  52.397  1.00  0.00     0.168 C 
HETATM    9  C7  UNL     1      25.036   0.394  52.656  1.00  0.00     0.030 C 
HETATM   10  C8  UNL     1      24.669   0.149  54.125  1.00  0.00     0.029 C 
HETATM   11  C9  UNL     1      23.256  -0.379  54.065  1.00  0.00    -0.027 C 
HETATM   12  C10 UNL     1      22.404  -1.317  54.380  1.00  0.00    -0.004 C 
HETATM   13  C11 UNL     1      21.061  -1.807  54.308  1.00  0.00    -0.000 C 
HETATM   14  C12 UNL     1      20.035  -1.272  53.690  1.00  0.00    -0.000 C 
HETATM   15  C13 UNL     1      19.378  -0.265  52.878  1.00  0.00    -0.002 C 
HETATM   16  C14 UNL     1      18.626   0.555  52.157  1.00  0.00    -0.001 C 
HETATM   17  C15 UNL     1      19.231   1.758  51.550  1.00  0.00     0.195 C 
HETATM   18  O2  UNL     1      18.697   2.971  51.939  1.00  0.00    -0.384 OA
HETATM   19  C16 UNL     1      19.464   3.986  51.303  1.00  0.00     0.195 C 
HETATM   20  C17 UNL     1      19.411   3.845  49.849  1.00  0.00    -0.005 C 
HETATM   21  C18 UNL     1      20.400   3.646  48.978  1.00  0.00    -0.021 C 
HETATM   22  C19 UNL     1      21.809   3.519  49.372  1.00  0.00     0.110 C 
HETATM   23  C20 UNL     1      22.627   4.590  48.805  1.00  0.00     0.160 C 
HETATM   24  O3  UNL     1      21.828   5.286  48.158  1.00  0.00    -0.292 OA
HETATM   25  H5  UNL     1      26.661   4.810  50.956  1.00  0.00     0.316 HD
ENDROOT
TORSDOF 0
ENDMDL
MODEL 3
REMARK VINA RESULT:      -8.2      1.792      5.581
REMARK  0 active torsions:
REMARK  status: ('A' for Active; 'I' for Inactive)
ROOT
HETATM    1  C1  UNL     1      26.392   4.849  48.903  1.00  0.00     0.024 C 
HETATM    2  C2  UNL     1      25.190   4.470  49.404  1.00  0.00     0.006 C 
HETATM    3  C3  UNL     1      24.076   5.003  48.612  1.00  0.00     0.311 C 
HETATM    4  N1  UNL     1      23.183   3.942  48.171  1.00  0.00     0.089 N 
HETATM    5  C4  UNL     1      22.280   3.501  49.272  1.00  0.00     0.296 C 
HETATM    6  C5  UNL     1      21.205   4.524  49.449  1.00  0.00     0.197 C 
HETATM    7  O1  UNL     1      20.225   4.410  50.368  1.00  0.00    -0.389 OA
HETATM    8  C6  UNL     1      19.495   3.248  50.442  1.00  0.00     0.168 C 
HETATM    9  C7  UNL     1      20.138   2.229  51.301  1.00  0.00     0.030 C 
HETATM   10  C8  UNL     1      19.518   0.828  51.234  1.00  0.00     0.029 C 
HETATM   11  C9  UNL     1      20.141   0.096  52.397  1.00  0.00    -0.027 C 
HETATM   12  C10 UNL     1      19.979  -0.603  53.488  1.00  0.00    -0.004 C 
HETATM   13  C11 UNL     1      20.587  -1.287  54.589  1.00  0.00    -0.000 C 
HETATM   14  C12 UNL     1      21.863  -1.393  54.873  1.00  0.00    -0.000 C 
HETATM   15  C13 UNL     1      23.276  -1.152  54.651  1.00  0.00    -0.002 C 
HETATM   16  C14 UNL     1      24.596  -1.032  54.598  1.00  0.00    -0.001 C 
HETATM   17  C15 UNL     1      25.215  -0.248  53.510  1.00  0.00     0.195 C 
HETATM   18  O2  UNL     1      26.090  -0.931  52.688  1.00  0.00    -0.384 OA
HETATM   19  C16 UNL     1      26.508  -0.022  51.678  1.00  0.00     0.195 C 
HETATM   20  C17 UNL     1      27.161   1.147  52.265  1.00  0.00    -0.005 C 
HETATM   21  C18 UNL     1      26.829   2.435  52.189  1.00  0.00    -0.021 C 
HETATM   22  C19 UNL     1      25.658   2.923  51.450  1.00  0.00     0.110 C 
HETATM   23  C20 UNL     1      26.042   3.803  50.347  1.00  0.00     0.160 C 
HETATM   24  O3  UNL     1      27.282   3.842  50.395  1.00  0.00    -0.292 OA
HETATM   25  H5  UNL     1      22.540   4.334  47.450  1.00  0.00     0.316 HD
ENDROOT
TORSDOF 0
ENDMDL
MODEL 4
REMARK VINA RESULT:      -8.1      2.063      6.109
REMARK  0 active torsions:
REMARK  status: ('A' for Active; 'I' for Inactive)
ROOT
HETATM    1  C1  UNL     1      21.203  -1.458  54.490  1.00  0.00     0.024 C 
HETATM    2  C2  UNL     1      22.157  -0.581  54.093  1.00  0.00     0.006 C 
HETATM    3  C3  UNL     1      23.492  -0.981  54.552  1.00  0.00     0.311 C 
HETATM    4  N1  UNL     1      24.430  -1.073  53.443  1.00  0.00     0.089 N 
HETATM    5  C4  UNL     1      24.904   0.276  53.020  1.00  0.00     0.296 C 
HETATM    6  C5  UNL     1      25.909   0.763  54.013  1.00  0.00     0.197 C 
HETATM    7  O1  UNL     1      26.530   1.956  53.906  1.00  0.00    -0.389 OA
HETATM    8  C6  UNL     1      27.141   2.300  52.724  1.00  0.00     0.168 C 
HETATM    9  C7  UNL     1      26.206   2.932  51.767  1.00  0.00     0.030 C 
HETATM   10  C8  UNL     1      26.748   3.114  50.344  1.00  0.00     0.029 C 
HETATM   11  C9  UNL     1      25.747   4.031  49.685  1.00  0.00    -0.027 C 
HETATM   12  C10 UNL     1      25.512   5.136  49.030  1.00  0.00    -0.004 C 
HETATM   13  C11 UNL     1      24.548   5.999  48.417  1.00  0.00    -0.000 C 
HETATM   14  C12 UNL     1      23.246   5.853  48.367  1.00  0.00    -0.000 C 
HETATM   15  C13 UNL     1      21.994   5.173  48.646  1.00  0.00    -0.002 C 
HETATM   16  C14 UNL     1      20.771   4.688  48.809  1.00  0.00    -0.001 C 
HETATM   17  C15 UNL     1      20.578   3.434  49.564  1.00  0.00     0.195 C 
HETATM   18  O2  UNL     1      19.986   2.393  48.876  1.00  0.00    -0.384 OA
HETATM   19  C16 UNL     1      19.963   1.274  49.754  1.00  0.00     0.195 C 
HETATM   20  C17 UNL     1      19.209   1.579  50.969  1.00  0.00    -0.005 C 
HETATM   21  C18 UNL     1      19.608   1.577  52.240  1.00  0.00    -0.021 C 
HETATM   22  C19 UNL     1      20.977   1.246  52.655  1.00  0.00     0.110 C 
HETATM   23  C20 UNL     1      21.015   0.052  53.498  1.00  0.00     0.160 C 
HETATM   24  O3  UNL     1      19.830  -0.309  53.581  1.00  0.00    -0.292 OA
HETATM   25  H5  UNL     1      25.290  -1.555  53.780  1.00  0.00     0.316 HD
ENDROOT
TORSDOF 0
ENDMDL
MODEL 5
REMARK VINA RESULT:      -7.9      2.212      7.354
REMARK  0 active torsions:
REMARK  status: ('A' for Active; 'I' for Inactive)
ROOT
HETATM    1  C1  UNL     1      16.868   2.768  50.582  1.00  0.00     0.024 C 
HETATM    2  C2  UNL     1      18.158   2.975  50.222  1.00  0.00     0.006 C 
HETATM    3  C3  UNL     1      18.310   4.191  49.415  1.00  0.00     0.311 C 
HETATM    4  N1  UNL     1      19.300   5.090  49.991  1.00  0.00     0.089 N 
HETATM    5  C4  UNL     1      20.687   4.634  49.690  1.00  0.00     0.296 C 
HETATM    6  C5  UNL     1      21.003   4.970  48.269  1.00  0.00     0.197 C 
HETATM    7  O1  UNL     1      22.191   4.689  47.694  1.00  0.00    -0.389 OA
HETATM    8  C6  UNL     1      23.355   5.069  48.319  1.00  0.00     0.168 C 
HETATM    9  C7  UNL     1      23.824   4.065  49.299  1.00  0.00     0.030 C 
HETATM   10  C8  UNL     1      24.969   4.524  50.211  1.00  0.00     0.029 C 
HETATM   11  C9  UNL     1      25.444   3.253  50.870  1.00  0.00    -0.027 C 
HETATM   12  C10 UNL     1      26.431   2.442  51.143  1.00  0.00    -0.004 C 
HETATM   13  C11 UNL     1      26.863   1.228  51.768  1.00  0.00    -0.000 C 
HETATM   14  C12 UNL     1      26.137   0.339  52.401  1.00  0.00    -0.000 C 
HETATM   15  C13 UNL     1      24.896  -0.207  52.919  1.00  0.00    -0.002 C 
HETATM   16  C14 UNL     1      23.864  -0.843  53.456  1.00  0.00    -0.001 C 
HETATM   17  C15 UNL     1      22.508  -0.274  53.327  1.00  0.00     0.195 C 
HETATM   18  O2  UNL     1      21.857   0.024  54.508  1.00  0.00    -0.384 OA
HETATM   19  C16 UNL     1      20.615   0.622  54.160  1.00  0.00     0.195 C 
HETATM   20  C17 UNL     1      19.809  -0.286  53.345  1.00  0.00    -0.005 C 
HETATM   21  C18 UNL     1      19.339  -0.128  52.108  1.00  0.00    -0.021 C 
HETATM   22  C19 UNL     1      19.579   1.075  51.301  1.00  0.00     0.110 C 
HETATM   23  C20 UNL     1      18.334   1.772  50.983  1.00  0.00     0.160 C 
HETATM   24  O3  UNL     1      17.448   1.094  51.529  1.00  0.00    -0.292 OA
HETATM   25  H5  UNL     1      19.222   6.013  49.513  1.00  0.00     0.316 HD
ENDROOT
TORSDOF 0
ENDMDL
MODEL 6
REMARK VINA RESULT:      -7.7      2.104      6.504
REMARK  0 active torsions:
REMARK  status: ('A' for Active; 'I' for Inactive)
ROOT
HETATM    1  C1  UNL     1      23.418  -1.204  55.049  1.00  0.00     0.024 C 
HETATM    2  C2  UNL     1      22.470  -0.830  54.155  1.00  0.00     0.006 C 
HETATM    3  C3  UNL     1      21.136  -1.303  54.543  1.00  0.00     0.311 C 
HETATM    4  N1  UNL     1      20.183  -0.206  54.609  1.00  0.00     0.089 N 
HETATM    5  C4  UNL     1      19.720   0.195  53.250  1.00  0.00     0.296 C 
HETATM    6  C5  UNL     1      18.735  -0.817  52.762  1.00  0.00     0.197 C 
HETATM    7  O1  UNL     1      18.128  -0.733  51.560  1.00  0.00    -0.389 OA
HETATM    8  C6  UNL     1      17.506   0.437  51.195  1.00  0.00     0.168 C 
HETATM    9  C7  UNL     1      18.435   1.400  50.563  1.00  0.00     0.030 C 
HETATM   10  C8  UNL     1      17.876   2.813  50.358  1.00  0.00     0.029 C 
HETATM   11  C9  UNL     1      18.880   3.475  49.446  1.00  0.00    -0.027 C 
HETATM   12  C10 UNL     1      19.120   4.120  48.337  1.00  0.00    -0.004 C 
HETATM   13  C11 UNL     1      20.087   4.737  47.480  1.00  0.00    -0.000 C 
HETATM   14  C12 UNL     1      21.387   4.806  47.642  1.00  0.00    -0.000 C 
HETATM   15  C13 UNL     1      22.633   4.553  48.341  1.00  0.00    -0.002 C 
HETATM   16  C14 UNL     1      23.852   4.412  48.843  1.00  0.00    -0.001 C 
HETATM   17  C15 UNL     1      24.039   3.674  50.108  1.00  0.00     0.195 C 
HETATM   18  O2  UNL     1      24.608   4.382  51.149  1.00  0.00    -0.384 OA
HETATM   19  C16 UNL     1      24.629   3.518  52.278  1.00  0.00     0.195 C 
HETATM   20  C17 UNL     1      25.403   2.310  51.996  1.00  0.00    -0.005 C 
HETATM   21  C18 UNL     1      25.021   1.033  52.009  1.00  0.00    -0.021 C 
HETATM   22  C19 UNL     1      23.653   0.603  52.326  1.00  0.00     0.110 C 
HETATM   23  C20 UNL     1      23.612  -0.226  53.530  1.00  0.00     0.160 C 
HETATM   24  O3  UNL     1      24.794  -0.289  53.907  1.00  0.00    -0.292 OA
HETATM   25  H5  UNL     1      19.320  -0.550  55.085  1.00  0.00     0.316 HD
ENDROOT
TORSDOF 0
ENDMDL
MODEL 7
REMARK VINA RESULT:      -7.5      2.008      5.944
REMARK  0 active torsions:
REMARK  status: ('A' for Active; 'I' for Inactive)
ROOT
HETATM    1  C1  UNL     1      23.336  -1.897  55.379  1.00  0.00     0.024 C 
HETATM    2  C2  UNL     1      23.785  -0.874  54.611  1.00  0.00     0.006 C 
HETATM    3  C3  UNL     1      25.244  -0.904  54.460  1.00  0.00     0.311 C 
HETATM    4  N1  UNL     1      25.632  -0.900  53.057  1.00  0.00     0.089 N 
HETATM    5  C4  UNL     1      25.531   0.467  52.470  1.00  0.00     0.296 C 
HETATM    6  C5  UNL     1      26.695   1.277  52.941  1.00  0.00     0.197 C 
HETATM    7  O1  UNL     1      26.892   2.561  52.577  1.00  0.00    -0.389 OA
HETATM    8  C6  UNL     1      26.854   2.904  51.247  1.00  0.00     0.168 C 
HETATM    9  C7  UNL     1      25.481   3.196  50.777  1.00  0.00     0.030 C 
HETATM   10  C8  UNL     1      25.325   3.340  49.258  1.00  0.00     0.029 C 
HETATM   11  C9  UNL     1      23.944   3.925  49.086  1.00  0.00    -0.027 C 
HETATM   12  C10 UNL     1      23.189   4.868  48.591  1.00  0.00    -0.004 C 
HETATM   13  C11 UNL     1      21.873   5.414  48.444  1.00  0.00    -0.000 C 
HETATM   14  C12 UNL     1      20.750   4.969  48.953  1.00  0.00    -0.000 C 
HETATM   15  C13 UNL     1      19.942   4.055  49.739  1.00  0.00    -0.002 C 
HETATM   16  C14 UNL     1      19.061   3.324  50.408  1.00  0.00    -0.001 C 
HETATM   17  C15 UNL     1      19.521   2.150  51.177  1.00  0.00     0.195 C 
HETATM   18  O2  UNL     1      18.985   0.931  50.808  1.00  0.00    -0.384 OA
HETATM   19  C16 UNL     1      19.609  -0.059  51.614  1.00  0.00     0.195 C 
HETATM   20  C17 UNL     1      19.371   0.197  53.033  1.00  0.00    -0.005 C 
HETATM   21  C18 UNL     1      20.244   0.425  54.015  1.00  0.00    -0.021 C 
HETATM   22  C19 UNL     1      21.697   0.465  53.808  1.00  0.00     0.110 C 
HETATM   23  C20 UNL     1      22.379  -0.589  54.557  1.00  0.00     0.160 C 
HETATM   24  O3  UNL     1      21.468  -1.200  55.138  1.00  0.00    -0.292 OA
HETATM   25  H5  UNL     1      26.647  -1.132  52.998  1.00  0.00     0.316 HD
ENDROOT
TORSDOF 0
ENDMDL
MODEL 8
REMARK VINA RESULT:      -7.5      2.036      5.600
REMARK  0 active torsions:
REMARK  status: ('A' for Active; 'I' for Inactive)
ROOT
HETATM    1  C1  UNL     1      24.110   5.726  49.530  1.00  0.00     0.024 C 
HETATM    2  C2  UNL     1      22.901   5.133  49.685  1.00  0.00     0.006 C 
HETATM    3  C3  UNL     1      21.959   5.532  48.632  1.00  0.00     0.311 C 
HETATM    4  N1  UNL     1      21.403   4.372  47.951  1.00  0.00     0.089 N 
HETATM    5  C4  UNL     1      20.330   3.729  48.763  1.00  0.00     0.296 C 
HETATM    6  C5  UNL     1      19.092   4.559  48.663  1.00  0.00     0.197 C 
HETATM    7  O1  UNL     1      17.938   4.237  49.284  1.00  0.00    -0.389 OA
HETATM    8  C6  UNL     1      17.420   2.973  49.141  1.00  0.00     0.168 C 
HETATM    9  C7  UNL     1      17.977   2.017  50.125  1.00  0.00     0.030 C 
HETATM   10  C8  UNL     1      17.640   0.543  49.871  1.00  0.00     0.029 C 
HETATM   11  C9  UNL     1      18.051  -0.151  51.146  1.00  0.00    -0.027 C 
HETATM   12  C10 UNL     1      17.729  -0.931  52.143  1.00  0.00    -0.004 C 
HETATM   13  C11 UNL     1      18.133  -1.577  53.355  1.00  0.00    -0.000 C 
HETATM   14  C12 UNL     1      19.290  -1.497  53.969  1.00  0.00    -0.000 C 
HETATM   15  C13 UNL     1      20.652  -1.025  54.136  1.00  0.00    -0.002 C 
HETATM   16  C14 UNL     1      21.899  -0.696  54.440  1.00  0.00    -0.001 C 
HETATM   17  C15 UNL     1      22.641   0.239  53.570  1.00  0.00     0.195 C 
HETATM   18  O2  UNL     1      23.802  -0.247  53.002  1.00  0.00    -0.384 OA
HETATM   19  C16 UNL     1      24.311   0.776  52.156  1.00  0.00     0.195 C 
HETATM   20  C17 UNL     1      24.583   1.995  52.915  1.00  0.00    -0.005 C 
HETATM   21  C18 UNL     1      24.071   3.217  52.774  1.00  0.00    -0.021 C 
HETATM   22  C19 UNL     1      23.070   3.559  51.756  1.00  0.00     0.110 C 
HETATM   23  C20 UNL     1      23.576   4.553  50.810  1.00  0.00     0.160 C 
HETATM   24  O3  UNL     1      24.735   4.783  51.190  1.00  0.00    -0.292 OA
HETATM   25  H5  UNL     1      20.914   4.701  47.091  1.00  0.00     0.316 HD
ENDROOT
TORSDOF 0
ENDMDL
MODEL 9
REMARK VINA RESULT:      -7.4      2.462      8.094
REMARK  0 active torsions:
REMARK  status: ('A' for Active; 'I' for Inactive)
ROOT
HETATM    1  C1  UNL     1      17.971   0.210  52.289  1.00  0.00     0.024 C 
HETATM    2  C2  UNL     1      18.633   1.070  51.475  1.00  0.00     0.006 C 
HETATM    3  C3  UNL     1      17.729   2.058  50.876  1.00  0.00     0.311 C 
HETATM    4  N1  UNL     1      18.181   3.417  51.136  1.00  0.00     0.089 N 
HETATM    5  C4  UNL     1      19.306   3.797  50.234  1.00  0.00     0.296 C 
HETATM    6  C5  UNL     1      18.753   4.090  48.877  1.00  0.00     0.197 C 
HETATM    7  O1  UNL     1      19.522   4.469  47.836  1.00  0.00    -0.389 OA
HETATM    8  C6  UNL     1      20.408   5.508  47.989  1.00  0.00     0.168 C 
HETATM    9  C7  UNL     1      21.714   5.065  48.527  1.00  0.00     0.030 C 
HETATM   10  C8  UNL     1      22.661   6.190  48.959  1.00  0.00     0.029 C 
HETATM   11  C9  UNL     1      23.986   5.495  49.164  1.00  0.00    -0.027 C 
HETATM   12  C10 UNL     1      25.259   5.423  48.886  1.00  0.00    -0.004 C 
HETATM   13  C11 UNL     1      26.506   4.747  49.086  1.00  0.00    -0.000 C 
HETATM   14  C12 UNL     1      26.742   3.681  49.811  1.00  0.00    -0.000 C 
HETATM   15  C13 UNL     1      26.371   2.591  50.694  1.00  0.00    -0.002 C 
HETATM   16  C14 UNL     1      26.207   1.547  51.496  1.00  0.00    -0.001 C 
HETATM   17  C15 UNL     1      24.862   1.230  52.015  1.00  0.00     0.195 C 
HETATM   18  O2  UNL     1      24.721   1.237  53.389  1.00  0.00    -0.384 OA
HETATM   19  C16 UNL     1      23.351   0.983  53.669  1.00  0.00     0.195 C 
HETATM   20  C17 UNL     1      22.936  -0.306  53.119  1.00  0.00    -0.005 C 
HETATM   21  C18 UNL     1      21.994  -0.583  52.218  1.00  0.00    -0.021 C 
HETATM   22  C19 UNL     1      21.161   0.444  51.580  1.00  0.00     0.110 C 
HETATM   23  C20 UNL     1      19.746   0.272  51.904  1.00  0.00     0.160 C 
HETATM   24  O3  UNL     1      19.714  -0.722  52.648  1.00  0.00    -0.292 OA
HETATM   25  H5  UNL     1      17.412   4.073  50.880  1.00  0.00     0.316 HD
ENDROOT
TORSDOF 0
ENDMDL
