MODEL 1
REMARK VINA RESULT:      -7.7      0.000      0.000
REMARK  7 active torsions:
REMARK  status: ('A' for Active; 'I' for Inactive)
REMARK    1  A    between atoms: O1_2  and  C2_3 
REMARK    2  A    between atoms: C2_3  and  C3_4 
REMARK    3  A    between atoms: C8_9  and  O2_10 
REMARK    4  A    between atoms: O2_10  and  P1_11 
REMARK    5  A    between atoms: C11_17  and  N3_18 
REMARK    6  A    between atoms: N3_18  and  C12_19 
REMARK    7  A    between atoms: C12_19  and  C13_20 
ROOT
HETATM    1  C3  UNL     1      24.926   0.192  53.935  1.00  0.00    -0.000 A 
HETATM    2  C4  UNL     1      23.864  -0.642  54.275  1.00  0.00     0.023 A 
HETATM    3  C5  UNL     1      22.553  -0.361  53.874  1.00  0.00    -0.006 A 
HETATM    4  C6  UNL     1      22.347   0.770  53.132  1.00  0.00     0.088 A 
HETATM    5  C7  UNL     1      23.409   1.603  52.793  1.00  0.00     0.075 A 
HETATM    6  C8  UNL     1      24.698   1.317  53.192  1.00  0.00     0.084 A 
HETATM    7  O3  UNL     1      21.123   1.213  52.645  1.00  0.00    -0.289 OA
HETATM    8  C9  UNL     1      19.922   0.516  52.605  1.00  0.00     0.202 A 
HETATM    9  N1  UNL     1      19.045   1.027  51.718  1.00  0.00    -0.215 NA
HETATM   10  C10 UNL     1      17.827   0.423  51.592  1.00  0.00     0.238 A 
HETATM   11  N2  UNL     1      17.502  -0.653  52.325  1.00  0.00    -0.222 NA
HETATM   12  C11 UNL     1      18.301  -1.226  53.223  1.00  0.00     0.156 A 
HETATM   13  C15 UNL     1      19.531  -0.604  53.342  1.00  0.00     0.128 A 
HETATM   14  N4  UNL     1      20.318  -1.262  54.325  1.00  0.00    -0.379 N 
HETATM   15  C16 UNL     1      21.751  -1.452  54.418  1.00  0.00     0.161 C 
HETATM   16  H16 UNL     1      19.693  -1.655  55.091  1.00  0.00     0.160 HD
ENDROOT
BRANCH  12  17
HETATM   17  N3  UNL     1      17.895  -2.379  53.954  1.00  0.00    -0.369 N 
HETATM   18  H11 UNL     1      18.239  -2.778  54.847  1.00  0.00     0.161 HD
BRANCH  17  19
HETATM   19  C12 UNL     1      16.818  -3.144  53.349  1.00  0.00     0.149 C 
BRANCH  19  20
HETATM   20  C13 UNL     1      17.009  -4.597  53.520  1.00  0.00     0.004 C 
HETATM   21  C14 UNL     1      16.082  -5.301  54.154  1.00  0.00     0.082 C 
HETATM   22 CL1  UNL     1      14.536  -5.116  54.953  1.00  0.00    -0.097 Cl
ENDBRANCH  19  20
ENDBRANCH  17  19
ENDBRANCH  12  17
BRANCH   6  23
HETATM   23  O2  UNL     1      25.767   2.137  52.863  1.00  0.00    -0.329 OA
BRANCH  23  24
HETATM   24  P1  UNL     1      26.336   2.374  51.239  1.00  0.00     0.009 P 
HETATM   25  H8  UNL     1      27.217   3.514  51.129  1.00  0.00     0.085 HD
HETATM   26  H9  UNL     1      26.977   1.180  50.714  1.00  0.00     0.085 HD
ENDBRANCH  23  24
ENDBRANCH   6  23
BRANCH   1  27
HETATM   27  C2  UNL     1      26.325  -0.131  54.376  1.00  0.00     0.208 C 
BRANCH  27  28
HETATM   28  O1  UNL     1      26.833  -1.226  53.690  1.00  0.00    -0.391 OA
HETATM   29  C1  UNL     1      28.001  -0.909  52.998  1.00  0.00     0.201 C 
ENDBRANCH  27  28
ENDBRANCH   1  27
TORSDOF 7
ENDMDL
MODEL 2
REMARK VINA RESULT:      -7.3      6.620      9.276
REMARK  7 active torsions:
REMARK  status: ('A' for Active; 'I' for Inactive)
REMARK    1  A    between atoms: O1_2  and  C2_3 
REMARK    2  A    between atoms: C2_3  and  C3_4 
REMARK    3  A    between atoms: C8_9  and  O2_10 
REMARK    4  A    between atoms: O2_10  and  P1_11 
REMARK    5  A    between atoms: C11_17  and  N3_18 
REMARK    6  A    between atoms: N3_18  and  C12_19 
REMARK    7  A    between atoms: C12_19  and  C13_20 
ROOT
HETATM    1  C3  UNL     1      25.774   0.061  52.661  1.00  0.00    -0.000 A 
HETATM    2  C4  UNL     1      26.425   1.076  51.963  1.00  0.00     0.023 A 
HETATM    3  C5  UNL     1      25.763   2.252  51.591  1.00  0.00    -0.006 A 
HETATM    4  C6  UNL     1      24.445   2.372  51.938  1.00  0.00     0.088 A 
HETATM    5  C7  UNL     1      23.796   1.358  52.635  1.00  0.00     0.075 A 
HETATM    6  C8  UNL     1      24.456   0.203  52.997  1.00  0.00     0.084 A 
HETATM    7  O3  UNL     1      23.626   3.460  51.658  1.00  0.00    -0.289 OA
HETATM    8  C9  UNL     1      24.006   4.711  51.191  1.00  0.00     0.202 A 
HETATM    9  N1  UNL     1      23.077   5.662  51.415  1.00  0.00    -0.215 NA
HETATM   10  C10 UNL     1      23.341   6.936  50.997  1.00  0.00     0.238 A 
HETATM   11  N2  UNL     1      24.492   7.242  50.380  1.00  0.00    -0.222 NA
HETATM   12  C11 UNL     1      25.465   6.373  50.116  1.00  0.00     0.156 A 
HETATM   13  C15 UNL     1      25.184   5.087  50.543  1.00  0.00     0.128 A 
HETATM   14  N4  UNL     1      26.260   4.219  50.214  1.00  0.00    -0.379 N 
HETATM   15  C16 UNL     1      26.769   3.045  50.894  1.00  0.00     0.161 C 
HETATM   16  H16 UNL     1      26.722   4.534  49.309  1.00  0.00     0.160 HD
ENDROOT
BRANCH  12  17
HETATM   17  N3  UNL     1      26.669   6.775  49.471  1.00  0.00    -0.369 N 
HETATM   18  H11 UNL     1      27.641   6.854  49.824  1.00  0.00     0.161 HD
BRANCH  17  19
HETATM   19  C12 UNL     1      26.523   7.155  48.075  1.00  0.00     0.149 C 
BRANCH  19  20
HETATM   20  C13 UNL     1      27.790   7.648  47.502  1.00  0.00     0.004 C 
HETATM   21  C14 UNL     1      28.864   6.871  47.542  1.00  0.00     0.082 C 
HETATM   22 CL1  UNL     1      29.387   5.294  48.090  1.00  0.00    -0.097 Cl
ENDBRANCH  19  20
ENDBRANCH  17  19
ENDBRANCH  12  17
BRANCH   6  23
HETATM   23  O2  UNL     1      23.823  -0.818  53.691  1.00  0.00    -0.329 OA
BRANCH  23  24
HETATM   24  P1  UNL     1      22.127  -0.821  54.066  1.00  0.00     0.009 P 
HETATM   25  H8  UNL     1      21.769   0.231  54.989  1.00  0.00     0.085 HD
HETATM   26  H9  UNL     1      21.311  -0.747  52.866  1.00  0.00     0.085 HD
ENDBRANCH  23  24
ENDBRANCH   6  23
BRANCH   1  27
HETATM   27  C2  UNL     1      26.505  -1.192  53.049  1.00  0.00     0.208 C 
BRANCH  27  28
HETATM   28  O1  UNL     1      27.550  -0.920  53.922  1.00  0.00    -0.391 OA
HETATM   29  C1  UNL     1      28.785  -1.263  53.376  1.00  0.00     0.201 C 
ENDBRANCH  27  28
ENDBRANCH   1  27
TORSDOF 7
ENDMDL
MODEL 3
REMARK VINA RESULT:      -6.8      5.430      8.206
REMARK  7 active torsions:
REMARK  status: ('A' for Active; 'I' for Inactive)
REMARK    1  A    between atoms: O1_2  and  C2_3 
REMARK    2  A    between atoms: C2_3  and  C3_4 
REMARK    3  A    between atoms: C8_9  and  O2_10 
REMARK    4  A    between atoms: O2_10  and  P1_11 
REMARK    5  A    between atoms: C11_17  and  N3_18 
REMARK    6  A    between atoms: N3_18  and  C12_19 
REMARK    7  A    between atoms: C12_19  and  C13_20 
ROOT
HETATM    1  C3  UNL     1      24.541   0.155  53.358  1.00  0.00    -0.000 A 
HETATM    2  C4  UNL     1      23.988   1.349  52.901  1.00  0.00     0.023 A 
HETATM    3  C5  UNL     1      24.724   2.247  52.119  1.00  0.00    -0.006 A 
HETATM    4  C6  UNL     1      26.015   1.910  51.816  1.00  0.00     0.088 A 
HETATM    5  C7  UNL     1      26.566   0.717  52.273  1.00  0.00     0.075 A 
HETATM    6  C8  UNL     1      25.833  -0.161  53.043  1.00  0.00     0.084 A 
HETATM    7  O3  UNL     1      26.897   2.669  51.056  1.00  0.00    -0.289 OA
HETATM    8  C9  UNL     1      26.607   3.779  50.273  1.00  0.00     0.202 A 
HETATM    9  N1  UNL     1      27.554   4.034  49.348  1.00  0.00    -0.215 NA
HETATM   10  C10 UNL     1      27.375   5.104  48.518  1.00  0.00     0.238 A 
HETATM   11  N2  UNL     1      26.288   5.886  48.612  1.00  0.00    -0.222 NA
HETATM   12  C11 UNL     1      25.304   5.712  49.491  1.00  0.00     0.156 A 
HETATM   13  C15 UNL     1      25.498   4.626  50.326  1.00  0.00     0.128 A 
HETATM   14  N4  UNL     1      24.416   4.515  51.241  1.00  0.00    -0.379 N 
HETATM   15  C16 UNL     1      23.808   3.350  51.850  1.00  0.00     0.161 C 
HETATM   16  H16 UNL     1      24.039   5.480  51.481  1.00  0.00     0.160 HD
ENDROOT
BRANCH  12  17
HETATM   17  N3  UNL     1      24.171   6.574  49.522  1.00  0.00    -0.369 N 
HETATM   18  H11 UNL     1      23.829   7.229  50.250  1.00  0.00     0.161 HD
BRANCH  17  19
HETATM   19  C12 UNL     1      23.331   6.529  48.336  1.00  0.00     0.149 C 
BRANCH  19  20
HETATM   20  C13 UNL     1      22.022   5.904  48.610  1.00  0.00     0.004 C 
HETATM   21  C14 UNL     1      21.919   4.582  48.585  1.00  0.00     0.082 C 
HETATM   22 CL1  UNL     1      22.878   3.143  48.316  1.00  0.00    -0.097 Cl
ENDBRANCH  19  20
ENDBRANCH  17  19
ENDBRANCH  12  17
BRANCH   6  23
HETATM   23  O2  UNL     1      26.368  -1.354  53.507  1.00  0.00    -0.329 OA
BRANCH  23  24
HETATM   24  P1  UNL     1      27.605  -2.244  52.673  1.00  0.00     0.009 P 
HETATM   25  H8  UNL     1      27.148  -2.755  51.401  1.00  0.00     0.085 HD
HETATM   26  H9  UNL     1      28.814  -1.456  52.503  1.00  0.00     0.085 HD
ENDBRANCH  23  24
ENDBRANCH   6  23
BRANCH   1  27
HETATM   27  C2  UNL     1      23.731  -0.793  54.195  1.00  0.00     0.208 C 
BRANCH  27  28
HETATM   28  O1  UNL     1      22.540  -1.133  53.568  1.00  0.00    -0.391 OA
HETATM   29  C1  UNL     1      21.473  -1.168  54.465  1.00  0.00     0.201 C 
ENDBRANCH  27  28
ENDBRANCH   1  27
TORSDOF 7
ENDMDL
MODEL 4
REMARK VINA RESULT:      -6.7      5.788      7.418
REMARK  7 active torsions:
REMARK  status: ('A' for Active; 'I' for Inactive)
REMARK    1  A    between atoms: O1_2  and  C2_3 
REMARK    2  A    between atoms: C2_3  and  C3_4 
REMARK    3  A    between atoms: C8_9  and  O2_10 
REMARK    4  A    between atoms: O2_10  and  P1_11 
REMARK    5  A    between atoms: C11_17  and  N3_18 
REMARK    6  A    between atoms: N3_18  and  C12_19 
REMARK    7  A    between atoms: C12_19  and  C13_20 
ROOT
HETATM    1  C3  UNL     1      28.096   5.905  48.418  1.00  0.00    -0.000 A 
HETATM    2  C4  UNL     1      27.516   4.700  48.807  1.00  0.00     0.023 A 
HETATM    3  C5  UNL     1      26.247   4.654  49.397  1.00  0.00    -0.006 A 
HETATM    4  C6  UNL     1      25.591   5.840  49.580  1.00  0.00     0.088 A 
HETATM    5  C7  UNL     1      26.172   7.043  49.191  1.00  0.00     0.075 A 
HETATM    6  C8  UNL     1      27.422   7.079  48.610  1.00  0.00     0.084 A 
HETATM    7  O3  UNL     1      24.330   5.995  50.145  1.00  0.00    -0.289 OA
HETATM    8  C9  UNL     1      23.398   5.005  50.425  1.00  0.00     0.202 A 
HETATM    9  N1  UNL     1      22.146   5.485  50.567  1.00  0.00    -0.215 NA
HETATM   10  C10 UNL     1      21.142   4.601  50.844  1.00  0.00     0.238 A 
HETATM   11  N2  UNL     1      21.385   3.288  50.972  1.00  0.00    -0.222 NA
HETATM   12  C11 UNL     1      22.584   2.724  50.849  1.00  0.00     0.156 A 
HETATM   13  C15 UNL     1      23.592   3.630  50.570  1.00  0.00     0.128 A 
HETATM   14  N4  UNL     1      24.839   2.956  50.467  1.00  0.00    -0.379 N 
HETATM   15  C16 UNL     1      26.002   3.238  49.651  1.00  0.00     0.161 C 
HETATM   16  H16 UNL     1      24.859   2.120  51.125  1.00  0.00     0.160 HD
ENDROOT
BRANCH  12  17
HETATM   17  N3  UNL     1      22.764   1.317  50.982  1.00  0.00    -0.369 N 
HETATM   18  H11 UNL     1      23.268   0.633  50.388  1.00  0.00     0.161 HD
BRANCH  17  19
HETATM   19  C12 UNL     1      22.124   0.722  52.143  1.00  0.00     0.149 C 
BRANCH  19  20
HETATM   20  C13 UNL     1      23.109   0.174  53.096  1.00  0.00     0.004 C 
HETATM   21  C14 UNL     1      22.716  -0.732  53.981  1.00  0.00     0.082 C 
HETATM   22 CL1  UNL     1      21.296  -1.617  54.490  1.00  0.00    -0.097 Cl
ENDBRANCH  19  20
ENDBRANCH  17  19
ENDBRANCH  12  17
BRANCH   6  23
HETATM   23  O2  UNL     1      28.016   8.270  48.217  1.00  0.00    -0.329 OA
BRANCH  23  24
HETATM   24  P1  UNL     1      28.450   9.539  49.320  1.00  0.00     0.009 P 
HETATM   25  H8  UNL     1      28.155   9.197  50.692  1.00  0.00     0.085 HD
HETATM   26  H9  UNL     1      29.845   9.923  49.177  1.00  0.00     0.085 HD
ENDBRANCH  23  24
ENDBRANCH   6  23
BRANCH   1  27
HETATM   27  C2  UNL     1      29.459   5.929  47.786  1.00  0.00     0.208 C 
BRANCH  27  28
HETATM   28  O1  UNL     1      30.385   5.232  48.550  1.00  0.00    -0.391 OA
HETATM   29  C1  UNL     1      31.444   6.044  48.951  1.00  0.00     0.201 C 
ENDBRANCH  27  28
ENDBRANCH   1  27
TORSDOF 7
ENDMDL
MODEL 5
REMARK VINA RESULT:      -6.5      3.503      5.221
REMARK  7 active torsions:
REMARK  status: ('A' for Active; 'I' for Inactive)
REMARK    1  A    between atoms: O1_2  and  C2_3 
REMARK    2  A    between atoms: C2_3  and  C3_4 
REMARK    3  A    between atoms: C8_9  and  O2_10 
REMARK    4  A    between atoms: O2_10  and  P1_11 
REMARK    5  A    between atoms: C11_17  and  N3_18 
REMARK    6  A    between atoms: N3_18  and  C12_19 
REMARK    7  A    between atoms: C12_19  and  C13_20 
ROOT
HETATM    1  C3  UNL     1      25.772   2.949  50.509  1.00  0.00    -0.000 A 
HETATM    2  C4  UNL     1      24.446   2.732  50.143  1.00  0.00     0.023 A 
HETATM    3  C5  UNL     1      23.618   1.864  50.864  1.00  0.00    -0.006 A 
HETATM    4  C6  UNL     1      24.159   1.230  51.949  1.00  0.00     0.088 A 
HETATM    5  C7  UNL     1      25.484   1.448  52.315  1.00  0.00     0.075 A 
HETATM    6  C8  UNL     1      26.292   2.305  51.598  1.00  0.00     0.084 A 
HETATM    7  O3  UNL     1      23.497   0.338  52.785  1.00  0.00    -0.289 OA
HETATM    8  C9  UNL     1      22.134   0.079  52.842  1.00  0.00     0.202 A 
HETATM    9  N1  UNL     1      21.755  -0.496  54.001  1.00  0.00    -0.215 NA
HETATM   10  C10 UNL     1      20.433  -0.797  54.171  1.00  0.00     0.238 A 
HETATM   11  N2  UNL     1      19.528  -0.530  53.216  1.00  0.00    -0.222 NA
HETATM   12  C11 UNL     1      19.809   0.034  52.044  1.00  0.00     0.156 A 
HETATM   13  C15 UNL     1      21.150   0.333  51.884  1.00  0.00     0.128 A 
HETATM   14  N4  UNL     1      21.371   0.918  50.608  1.00  0.00    -0.379 N 
HETATM   15  C16 UNL     1      22.333   1.912  50.176  1.00  0.00     0.161 C 
HETATM   16  H16 UNL     1      20.689   0.515  49.897  1.00  0.00     0.160 HD
ENDROOT
BRANCH  12  17
HETATM   17  N3  UNL     1      18.792   0.303  51.083  1.00  0.00    -0.369 N 
HETATM   18  H11 UNL     1      18.610  -0.106  50.148  1.00  0.00     0.161 HD
BRANCH  17  19
HETATM   19  C12 UNL     1      17.845   1.339  51.463  1.00  0.00     0.149 C 
BRANCH  19  20
HETATM   20  C13 UNL     1      17.884   2.488  50.538  1.00  0.00     0.004 C 
HETATM   21  C14 UNL     1      18.748   3.469  50.761  1.00  0.00     0.082 C 
HETATM   22 CL1  UNL     1      20.004   3.953  51.878  1.00  0.00    -0.097 Cl
ENDBRANCH  19  20
ENDBRANCH  17  19
ENDBRANCH  12  17
BRANCH   6  23
HETATM   23  O2  UNL     1      27.615   2.532  51.948  1.00  0.00    -0.329 OA
BRANCH  23  24
HETATM   24  P1  UNL     1      28.297   2.081  53.480  1.00  0.00     0.009 P 
HETATM   25  H8  UNL     1      28.523   3.223  54.336  1.00  0.00     0.085 HD
HETATM   26  H9  UNL     1      27.484   1.086  54.160  1.00  0.00     0.085 HD
ENDBRANCH  23  24
ENDBRANCH   6  23
BRANCH   1  27
HETATM   27  C2  UNL     1      26.642   3.886  49.720  1.00  0.00     0.208 C 
BRANCH  27  28
HETATM   28  O1  UNL     1      25.898   4.913  49.155  1.00  0.00    -0.391 OA
HETATM   29  C1  UNL     1      26.708   5.957  48.713  1.00  0.00     0.201 C 
ENDBRANCH  27  28
ENDBRANCH   1  27
TORSDOF 7
ENDMDL
MODEL 6
REMARK VINA RESULT:      -6.5      2.118      2.857
REMARK  7 active torsions:
REMARK  status: ('A' for Active; 'I' for Inactive)
REMARK    1  A    between atoms: O1_2  and  C2_3 
REMARK    2  A    between atoms: C2_3  and  C3_4 
REMARK    3  A    between atoms: C8_9  and  O2_10 
REMARK    4  A    between atoms: O2_10  and  P1_11 
REMARK    5  A    between atoms: C11_17  and  N3_18 
REMARK    6  A    between atoms: N3_18  and  C12_19 
REMARK    7  A    between atoms: C12_19  and  C13_20 
ROOT
HETATM    1  C3  UNL     1      26.495   0.246  52.841  1.00  0.00    -0.000 A 
HETATM    2  C4  UNL     1      25.214  -0.288  52.957  1.00  0.00     0.023 A 
HETATM    3  C5  UNL     1      24.072   0.512  52.837  1.00  0.00    -0.006 A 
HETATM    4  C6  UNL     1      24.257   1.846  52.600  1.00  0.00     0.088 A 
HETATM    5  C7  UNL     1      25.537   2.379  52.484  1.00  0.00     0.075 A 
HETATM    6  C8  UNL     1      26.657   1.583  52.604  1.00  0.00     0.084 A 
HETATM    7  O3  UNL     1      23.250   2.794  52.451  1.00  0.00    -0.289 OA
HETATM    8  C9  UNL     1      21.890   2.569  52.284  1.00  0.00     0.202 A 
HETATM    9  N1  UNL     1      21.243   3.627  51.755  1.00  0.00    -0.215 NA
HETATM   10  C10 UNL     1      19.897   3.521  51.544  1.00  0.00     0.238 A 
HETATM   11  N2  UNL     1      19.229   2.399  51.852  1.00  0.00    -0.222 NA
HETATM   12  C11 UNL     1      19.782   1.308  52.376  1.00  0.00     0.156 A 
HETATM   13  C15 UNL     1      21.144   1.428  52.585  1.00  0.00     0.128 A 
HETATM   14  N4  UNL     1      21.657   0.233  53.158  1.00  0.00    -0.379 N 
HETATM   15  C16 UNL     1      22.950  -0.404  53.016  1.00  0.00     0.161 C 
HETATM   16  H16 UNL     1      20.925  -0.217  53.784  1.00  0.00     0.160 HD
ENDROOT
BRANCH  12  17
HETATM   17  N3  UNL     1      19.011   0.145  52.662  1.00  0.00    -0.369 N 
HETATM   18  H11 UNL     1      18.929  -0.426  53.524  1.00  0.00     0.161 HD
BRANCH  17  19
HETATM   19  C12 UNL     1      18.204  -0.345  51.558  1.00  0.00     0.149 C 
BRANCH  19  20
HETATM   20  C13 UNL     1      16.872  -0.796  52.005  1.00  0.00     0.004 C 
HETATM   21  C14 UNL     1      16.785  -1.790  52.878  1.00  0.00     0.082 C 
HETATM   22 CL1  UNL     1      17.788  -2.888  53.800  1.00  0.00    -0.097 Cl
ENDBRANCH  19  20
ENDBRANCH  17  19
ENDBRANCH  12  17
BRANCH   6  23
HETATM   23  O2  UNL     1      27.939   2.098  52.492  1.00  0.00    -0.329 OA
BRANCH  23  24
HETATM   24  P1  UNL     1      29.030   2.270  53.833  1.00  0.00     0.009 P 
HETATM   25  H8  UNL     1      28.364   2.100  55.104  1.00  0.00     0.085 HD
HETATM   26  H9  UNL     1      30.162   1.365  53.724  1.00  0.00     0.085 HD
ENDBRANCH  23  24
ENDBRANCH   6  23
BRANCH   1  27
HETATM   27  C2  UNL     1      27.706  -0.633  52.974  1.00  0.00     0.208 C 
BRANCH  27  28
HETATM   28  O1  UNL     1      27.351  -1.961  53.162  1.00  0.00    -0.391 OA
HETATM   29  C1  UNL     1      28.430  -2.821  52.962  1.00  0.00     0.201 C 
ENDBRANCH  27  28
ENDBRANCH   1  27
TORSDOF 7
ENDMDL
MODEL 7
REMARK VINA RESULT:      -6.4      6.252      8.421
REMARK  7 active torsions:
REMARK  status: ('A' for Active; 'I' for Inactive)
REMARK    1  A    between atoms: O1_2  and  C2_3 
REMARK    2  A    between atoms: C2_3  and  C3_4 
REMARK    3  A    between atoms: C8_9  and  O2_10 
REMARK    4  A    between atoms: O2_10  and  P1_11 
REMARK    5  A    between atoms: C11_17  and  N3_18 
REMARK    6  A    between atoms: N3_18  and  C12_19 
REMARK    7  A    between atoms: C12_19  and  C13_20 
ROOT
HETATM    1  C3  UNL     1      25.796   7.353  47.801  1.00  0.00    -0.000 A 
HETATM    2  C4  UNL     1      24.822   6.496  48.308  1.00  0.00     0.023 A 
HETATM    3  C5  UNL     1      25.161   5.323  48.993  1.00  0.00    -0.006 A 
HETATM    4  C6  UNL     1      26.490   5.044  49.149  1.00  0.00     0.088 A 
HETATM    5  C7  UNL     1      27.463   5.900  48.642  1.00  0.00     0.075 A 
HETATM    6  C8  UNL     1      27.119   7.054  47.968  1.00  0.00     0.084 A 
HETATM    7  O3  UNL     1      27.019   3.933  49.797  1.00  0.00    -0.289 OA
HETATM    8  C9  UNL     1      26.348   3.019  50.599  1.00  0.00     0.202 A 
HETATM    9  N1  UNL     1      27.173   2.323  51.407  1.00  0.00    -0.215 NA
HETATM   10  C10 UNL     1      26.624   1.392  52.244  1.00  0.00     0.238 A 
HETATM   11  N2  UNL     1      25.301   1.171  52.268  1.00  0.00    -0.222 NA
HETATM   12  C11 UNL     1      24.412   1.808  51.509  1.00  0.00     0.156 A 
HETATM   13  C15 UNL     1      24.981   2.746  50.666  1.00  0.00     0.128 A 
HETATM   14  N4  UNL     1      23.974   3.371  49.882  1.00  0.00    -0.379 N 
HETATM   15  C16 UNL     1      23.884   4.717  49.357  1.00  0.00     0.161 C 
HETATM   16  H16 UNL     1      23.188   2.683  49.679  1.00  0.00     0.160 HD
ENDROOT
BRANCH  12  17
HETATM   17  N3  UNL     1      23.018   1.531  51.601  1.00  0.00    -0.369 N 
HETATM   18  H11 UNL     1      22.251   1.647  50.913  1.00  0.00     0.161 HD
BRANCH  17  19
HETATM   19  C12 UNL     1      22.579   1.004  52.882  1.00  0.00     0.149 C 
BRANCH  19  20
HETATM   20  C13 UNL     1      21.130   0.726  52.898  1.00  0.00     0.004 C 
HETATM   21  C14 UNL     1      20.681  -0.332  53.559  1.00  0.00     0.082 C 
HETATM   22 CL1  UNL     1      21.244  -1.672  54.533  1.00  0.00    -0.097 Cl
ENDBRANCH  19  20
ENDBRANCH  17  19
ENDBRANCH  12  17
BRANCH   6  23
HETATM   23  O2  UNL     1      28.076   7.917  47.456  1.00  0.00    -0.329 OA
BRANCH  23  24
HETATM   24  P1  UNL     1      29.131   8.881  48.443  1.00  0.00     0.009 P 
HETATM   25  H8  UNL     1      28.643   9.016  49.796  1.00  0.00     0.085 HD
HETATM   26  H9  UNL     1      30.491   8.367  48.439  1.00  0.00     0.085 HD
ENDBRANCH  23  24
ENDBRANCH   6  23
BRANCH   1  27
HETATM   27  C2  UNL     1      25.407   8.606  47.069  1.00  0.00     0.208 C 
BRANCH  27  28
HETATM   28  O1  UNL     1      25.141   9.645  47.950  1.00  0.00    -0.391 OA
HETATM   29  C1  UNL     1      25.714  10.843  47.528  1.00  0.00     0.201 C 
ENDBRANCH  27  28
ENDBRANCH   1  27
TORSDOF 7
ENDMDL
MODEL 8
REMARK VINA RESULT:      -6.3      5.427      7.778
REMARK  7 active torsions:
REMARK  status: ('A' for Active; 'I' for Inactive)
REMARK    1  A    between atoms: O1_2  and  C2_3 
REMARK    2  A    between atoms: C2_3  and  C3_4 
REMARK    3  A    between atoms: C8_9  and  O2_10 
REMARK    4  A    between atoms: O2_10  and  P1_11 
REMARK    5  A    between atoms: C11_17  and  N3_18 
REMARK    6  A    between atoms: N3_18  and  C12_19 
REMARK    7  A    between atoms: C12_19  and  C13_20 
ROOT
HETATM    1  C3  UNL     1      25.199   6.201  48.262  1.00  0.00    -0.000 A 
HETATM    2  C4  UNL     1      24.379   5.319  48.962  1.00  0.00     0.023 A 
HETATM    3  C5  UNL     1      24.909   4.263  49.713  1.00  0.00    -0.006 A 
HETATM    4  C6  UNL     1      26.269   4.125  49.736  1.00  0.00     0.088 A 
HETATM    5  C7  UNL     1      27.088   5.007  49.037  1.00  0.00     0.075 A 
HETATM    6  C8  UNL     1      26.557   6.044  48.300  1.00  0.00     0.084 A 
HETATM    7  O3  UNL     1      26.976   3.144  50.422  1.00  0.00    -0.289 OA
HETATM    8  C9  UNL     1      26.494   2.265  51.383  1.00  0.00     0.202 A 
HETATM    9  N1  UNL     1      27.468   1.738  52.152  1.00  0.00    -0.215 NA
HETATM   10  C10 UNL     1      27.112   0.857  53.134  1.00  0.00     0.238 A 
HETATM   11  N2  UNL     1      25.829   0.520  53.336  1.00  0.00    -0.222 NA
HETATM   12  C11 UNL     1      24.803   0.987  52.628  1.00  0.00     0.156 A 
HETATM   13  C15 UNL     1      25.177   1.877  51.637  1.00  0.00     0.128 A 
HETATM   14  N4  UNL     1      24.032   2.318  50.921  1.00  0.00    -0.379 N 
HETATM   15  C16 UNL     1      23.748   3.586  50.282  1.00  0.00     0.161 C 
HETATM   16  H16 UNL     1      23.304   1.544  50.880  1.00  0.00     0.160 HD
ENDROOT
BRANCH  12  17
HETATM   17  N3  UNL     1      23.463   0.596  52.911  1.00  0.00    -0.369 N 
HETATM   18  H11 UNL     1      22.565   1.102  52.800  1.00  0.00     0.161 HD
BRANCH  17  19
HETATM   19  C12 UNL     1      23.316  -0.740  53.465  1.00  0.00     0.149 C 
BRANCH  19  20
HETATM   20  C13 UNL     1      22.277  -0.792  54.512  1.00  0.00     0.004 C 
HETATM   21  C14 UNL     1      21.021  -0.511  54.192  1.00  0.00     0.082 C 
HETATM   22 CL1  UNL     1      20.033  -0.048  52.825  1.00  0.00    -0.097 Cl
ENDBRANCH  19  20
ENDBRANCH  17  19
ENDBRANCH  12  17
BRANCH   6  23
HETATM   23  O2  UNL     1      27.358   6.931  47.597  1.00  0.00    -0.329 OA
BRANCH  23  24
HETATM   24  P1  UNL     1      28.654   7.836  48.316  1.00  0.00     0.009 P 
HETATM   25  H8  UNL     1      28.374   9.253  48.359  1.00  0.00     0.085 HD
HETATM   26  H9  UNL     1      28.987   7.341  49.641  1.00  0.00     0.085 HD
ENDBRANCH  23  24
ENDBRANCH   6  23
BRANCH   1  27
HETATM   27  C2  UNL     1      24.607   7.327  47.463  1.00  0.00     0.208 C 
BRANCH  27  28
HETATM   28  O1  UNL     1      23.267   7.100  47.182  1.00  0.00    -0.391 OA
HETATM   29  C1  UNL     1      22.487   8.230  47.420  1.00  0.00     0.201 C 
ENDBRANCH  27  28
ENDBRANCH   1  27
TORSDOF 7
ENDMDL
MODEL 9
REMARK VINA RESULT:      -6.3      6.728      8.361
REMARK  7 active torsions:
REMARK  status: ('A' for Active; 'I' for Inactive)
REMARK    1  A    between atoms: O1_2  and  C2_3 
REMARK    2  A    between atoms: C2_3  and  C3_4 
REMARK    3  A    between atoms: C8_9  and  O2_10 
REMARK    4  A    between atoms: O2_10  and  P1_11 
REMARK    5  A    between atoms: C11_17  and  N3_18 
REMARK    6  A    between atoms: N3_18  and  C12_19 
REMARK    7  A    between atoms: C12_19  and  C13_20 
ROOT
HETATM    1  C3  UNL     1      28.520   6.097  48.216  1.00  0.00    -0.000 A 
HETATM    2  C4  UNL     1      27.729   5.025  48.622  1.00  0.00     0.023 A 
HETATM    3  C5  UNL     1      26.498   5.221  49.258  1.00  0.00    -0.006 A 
HETATM    4  C6  UNL     1      26.093   6.510  49.468  1.00  0.00     0.088 A 
HETATM    5  C7  UNL     1      26.883   7.581  49.062  1.00  0.00     0.075 A 
HETATM    6  C8  UNL     1      28.096   7.378  48.436  1.00  0.00     0.084 A 
HETATM    7  O3  UNL     1      24.907   6.902  50.079  1.00  0.00    -0.289 OA
HETATM    8  C9  UNL     1      23.810   6.110  50.389  1.00  0.00     0.202 A 
HETATM    9  N1  UNL     1      22.681   6.824  50.578  1.00  0.00    -0.215 NA
HETATM   10  C10 UNL     1      21.534   6.150  50.889  1.00  0.00     0.238 A 
HETATM   11  N2  UNL     1      21.520   4.813  51.004  1.00  0.00    -0.222 NA
HETATM   12  C11 UNL     1      22.582   4.028  50.836  1.00  0.00     0.156 A 
HETATM   13  C15 UNL     1      23.736   4.723  50.523  1.00  0.00     0.128 A 
HETATM   14  N4  UNL     1      24.823   3.819  50.373  1.00  0.00    -0.379 N 
HETATM   15  C16 UNL     1      25.990   3.877  49.517  1.00  0.00     0.161 C 
HETATM   16  H16 UNL     1      24.703   2.989  51.027  1.00  0.00     0.160 HD
ENDROOT
BRANCH  12  17
HETATM   17  N3  UNL     1      22.488   2.612  50.958  1.00  0.00    -0.369 N 
HETATM   18  H11 UNL     1      23.199   1.898  51.206  1.00  0.00     0.161 HD
BRANCH  17  19
HETATM   19  C12 UNL     1      21.175   2.055  50.679  1.00  0.00     0.149 C 
BRANCH  19  20
HETATM   20  C13 UNL     1      21.243   0.933  49.724  1.00  0.00     0.004 C 
HETATM   21  C14 UNL     1      21.734   1.145  48.511  1.00  0.00     0.082 C 
HETATM   22 CL1  UNL     1      22.409   2.415  47.515  1.00  0.00    -0.097 Cl
ENDBRANCH  19  20
ENDBRANCH  17  19
ENDBRANCH  12  17
BRANCH   6  23
HETATM   23  O2  UNL     1      28.896   8.434  48.026  1.00  0.00    -0.329 OA
BRANCH  23  24
HETATM   24  P1  UNL     1      29.727   9.495  49.121  1.00  0.00     0.009 P 
HETATM   25  H8  UNL     1      29.971  10.796  48.541  1.00  0.00     0.085 HD
HETATM   26  H9  UNL     1      29.021   9.624  50.385  1.00  0.00     0.085 HD
ENDBRANCH  23  24
ENDBRANCH   6  23
BRANCH   1  27
HETATM   27  C2  UNL     1      29.839   5.861  47.536  1.00  0.00     0.208 C 
BRANCH  27  28
HETATM   28  O1  UNL     1      30.674   5.067  48.309  1.00  0.00    -0.391 OA
HETATM   29  C1  UNL     1      31.753   4.578  47.574  1.00  0.00     0.201 C 
ENDBRANCH  27  28
ENDBRANCH   1  27
TORSDOF 7
ENDMDL
