MODEL 1
REMARK VINA RESULT:      -7.1      0.000      0.000
REMARK  9 active torsions:
REMARK  status: ('A' for Active; 'I' for Inactive)
REMARK    1  A    between atoms: C2_2  and  C3_3 
REMARK    2  A    between atoms: C3_3  and  C4_4 
REMARK    3  A    between atoms: C4_4  and  C5_5 
REMARK    4  A    between atoms: C5_5  and  C6_6 
REMARK    5  A    between atoms: C5_5  and  O1_25 
REMARK    6  A    between atoms: C6_6  and  N1_7 
REMARK    7  A    between atoms: N1_7  and  C7_8 
REMARK    8  A    between atoms: C11_14  and  N4_15 
REMARK    9  A    between atoms: N4_15  and  C12_16 
ROOT
HETATM    1  C7  UNL     1      25.371  -0.718  54.141  1.00  0.00     0.269 A 
HETATM    2  C8  UNL     1      24.318  -1.265  55.027  1.00  0.00     0.045 A 
HETATM    3  C9  UNL     1      23.093  -0.905  54.660  1.00  0.00     0.070 A 
HETATM    4  N2  UNL     1      21.818  -1.080  55.052  1.00  0.00    -0.241 NA
HETATM    5  C10 UNL     1      20.768  -0.542  54.416  1.00  0.00     0.235 A 
HETATM    6  N3  UNL     1      20.910   0.237  53.308  1.00  0.00    -0.224 NA
HETATM    7  C11 UNL     1      22.156   0.490  52.809  1.00  0.00     0.141 A 
HETATM    8  C18 UNL     1      23.216  -0.102  53.517  1.00  0.00     0.037 A 
HETATM    9  C19 UNL     1      24.489   0.038  53.177  1.00  0.00     0.030 A 
ENDROOT
BRANCH   1  10
HETATM   10  N1  UNL     1      26.267   0.204  54.813  1.00  0.00     0.099 N 
HETATM   11  H7  UNL     1      25.780   1.147  54.721  1.00  0.00     0.317 HD
BRANCH  10  12
HETATM   12  C6  UNL     1      27.455   0.323  54.000  1.00  0.00     0.326 C 
BRANCH  12  13
HETATM   13  C5  UNL     1      27.649   1.712  53.509  1.00  0.00     0.193 C 
BRANCH  13  14
HETATM   14  C4  UNL     1      27.200   2.312  52.450  1.00  0.00    -0.061 C 
BRANCH  14  15
HETATM   15  C3  UNL     1      26.855   2.666  51.247  1.00  0.00    -0.098 C 
BRANCH  15  16
HETATM   16  C2  UNL     1      26.282   2.884  50.101  1.00  0.00     0.076 C 
HETATM   17  C1  UNL     1      26.653   4.070  49.272  1.00  0.00     0.025 C 
ENDBRANCH  15  16
ENDBRANCH  14  15
ENDBRANCH  13  14
BRANCH  13  18
HETATM   18  O1  UNL     1      28.439   2.581  54.264  1.00  0.00    -0.366 OA
HETATM   19  C20 UNL     1      29.680   2.064  54.718  1.00  0.00     0.204 C 
ENDBRANCH  13  18
ENDBRANCH  12  13
ENDBRANCH  10  12
ENDBRANCH   1  10
BRANCH   7  20
HETATM   20  N4  UNL     1      22.367   1.295  51.680  1.00  0.00    -0.340 N 
HETATM   21  H11 UNL     1      22.162   0.542  50.995  1.00  0.00     0.167 HD
BRANCH  20  22
HETATM   22  C12 UNL     1      22.729   2.629  51.380  1.00  0.00     0.035 A 
HETATM   23  C13 UNL     1      23.197   3.462  52.373  1.00  0.00     0.029 A 
HETATM   24  C14 UNL     1      23.526   4.772  51.999  1.00  0.00     0.004 A 
HETATM   25  C15 UNL     1      23.362   5.140  50.680  1.00  0.00     0.019 A 
HETATM   26  C16 UNL     1      22.890   4.287  49.704  1.00  0.00     0.013 A 
HETATM   27 BR1  UNL     1      22.680   4.854  47.893  1.00  0.00    -0.051 Br
HETATM   28  C17 UNL     1      22.556   2.975  50.057  1.00  0.00     0.048 A 
ENDBRANCH  20  22
ENDBRANCH   7  20
TORSDOF 9
ENDMDL
MODEL 2
REMARK VINA RESULT:      -7.0      2.662      5.250
REMARK  9 active torsions:
REMARK  status: ('A' for Active; 'I' for Inactive)
REMARK    1  A    between atoms: C2_2  and  C3_3 
REMARK    2  A    between atoms: C3_3  and  C4_4 
REMARK    3  A    between atoms: C4_4  and  C5_5 
REMARK    4  A    between atoms: C5_5  and  C6_6 
REMARK    5  A    between atoms: C5_5  and  O1_25 
REMARK    6  A    between atoms: C6_6  and  N1_7 
REMARK    7  A    between atoms: N1_7  and  C7_8 
REMARK    8  A    between atoms: C11_14  and  N4_15 
REMARK    9  A    between atoms: N4_15  and  C12_16 
ROOT
HETATM    1  C7  UNL     1      26.758   2.313  51.334  1.00  0.00     0.269 A 
HETATM    2  C8  UNL     1      27.691   2.265  52.483  1.00  0.00     0.045 A 
HETATM    3  C9  UNL     1      27.312   1.404  53.422  1.00  0.00     0.070 A 
HETATM    4  N2  UNL     1      27.727   0.955  54.620  1.00  0.00    -0.241 NA
HETATM    5  C10 UNL     1      27.066   0.033  55.334  1.00  0.00     0.235 A 
HETATM    6  N3  UNL     1      25.905  -0.530  54.897  1.00  0.00    -0.224 NA
HETATM    7  C11 UNL     1      25.379  -0.157  53.693  1.00  0.00     0.141 A 
HETATM    8  C18 UNL     1      26.117   0.812  52.991  1.00  0.00     0.037 A 
HETATM    9  C19 UNL     1      25.756   1.290  51.810  1.00  0.00     0.030 A 
ENDROOT
BRANCH   1  10
HETATM   10  N1  UNL     1      26.109   3.600  51.173  1.00  0.00     0.099 N 
HETATM   11  H7  UNL     1      25.190   3.491  51.702  1.00  0.00     0.317 HD
BRANCH  10  12
HETATM   12  C6  UNL     1      25.722   3.720  49.787  1.00  0.00     0.326 C 
BRANCH  12  13
HETATM   13  C5  UNL     1      26.333   4.914  49.146  1.00  0.00     0.193 C 
BRANCH  13  14
HETATM   14  C4  UNL     1      27.514   5.101  48.642  1.00  0.00    -0.061 C 
BRANCH  14  15
HETATM   15  C3  UNL     1      28.651   5.574  48.224  1.00  0.00    -0.098 C 
BRANCH  15  16
HETATM   16  C2  UNL     1      29.868   5.999  48.061  1.00  0.00     0.076 C 
HETATM   17  C1  UNL     1      30.974   5.050  47.733  1.00  0.00     0.025 C 
ENDBRANCH  15  16
ENDBRANCH  14  15
ENDBRANCH  13  14
BRANCH  13  18
HETATM   18  O1  UNL     1      25.566   6.075  49.032  1.00  0.00    -0.366 OA
HETATM   19  C20 UNL     1      25.720   7.032  50.068  1.00  0.00     0.204 C 
ENDBRANCH  13  18
ENDBRANCH  12  13
ENDBRANCH  10  12
ENDBRANCH   1  10
BRANCH   7  20
HETATM   20  N4  UNL     1      24.180  -0.690  53.196  1.00  0.00    -0.340 N 
HETATM   21  H11 UNL     1      24.642  -1.355  52.546  1.00  0.00     0.167 HD
BRANCH  20  22
HETATM   22  C12 UNL     1      22.788  -0.519  53.376  1.00  0.00     0.035 A 
HETATM   23  C13 UNL     1      22.043  -1.492  54.004  1.00  0.00     0.029 A 
HETATM   24  C14 UNL     1      20.668  -1.253  54.136  1.00  0.00     0.004 A 
HETATM   25  C15 UNL     1      20.155  -0.076  53.636  1.00  0.00     0.019 A 
HETATM   26  C16 UNL     1      20.923   0.885  53.009  1.00  0.00     0.013 A 
HETATM   27 BR1  UNL     1      20.155   2.496  52.332  1.00  0.00    -0.051 Br
HETATM   28  C17 UNL     1      22.297   0.665  52.867  1.00  0.00     0.048 A 
ENDBRANCH  20  22
ENDBRANCH   7  20
TORSDOF 9
ENDMDL
MODEL 3
REMARK VINA RESULT:      -6.9      2.504      5.403
REMARK  9 active torsions:
REMARK  status: ('A' for Active; 'I' for Inactive)
REMARK    1  A    between atoms: C2_2  and  C3_3 
REMARK    2  A    between atoms: C3_3  and  C4_4 
REMARK    3  A    between atoms: C4_4  and  C5_5 
REMARK    4  A    between atoms: C5_5  and  C6_6 
REMARK    5  A    between atoms: C5_5  and  O1_25 
REMARK    6  A    between atoms: C6_6  and  N1_7 
REMARK    7  A    between atoms: N1_7  and  C7_8 
REMARK    8  A    between atoms: C11_14  and  N4_15 
REMARK    9  A    between atoms: N4_15  and  C12_16 
ROOT
HETATM    1  C7  UNL     1      26.740   2.346  51.346  1.00  0.00     0.269 A 
HETATM    2  C8  UNL     1      27.689   2.282  52.481  1.00  0.00     0.045 A 
HETATM    3  C9  UNL     1      27.322   1.412  53.416  1.00  0.00     0.070 A 
HETATM    4  N2  UNL     1      27.753   0.948  54.602  1.00  0.00    -0.241 NA
HETATM    5  C10 UNL     1      27.100   0.020  55.315  1.00  0.00     0.235 A 
HETATM    6  N3  UNL     1      25.932  -0.535  54.890  1.00  0.00    -0.224 NA
HETATM    7  C11 UNL     1      25.389  -0.147  53.698  1.00  0.00     0.141 A 
HETATM    8  C18 UNL     1      26.119   0.827  52.996  1.00  0.00     0.037 A 
HETATM    9  C19 UNL     1      25.742   1.320  51.825  1.00  0.00     0.030 A 
ENDROOT
BRANCH   1  10
HETATM   10  N1  UNL     1      26.092   3.636  51.209  1.00  0.00     0.099 N 
HETATM   11  H7  UNL     1      25.072   3.436  51.446  1.00  0.00     0.317 HD
BRANCH  10  12
HETATM   12  C6  UNL     1      26.084   3.970  49.804  1.00  0.00     0.326 C 
BRANCH  12  13
HETATM   13  C5  UNL     1      24.702   4.148  49.288  1.00  0.00     0.193 C 
BRANCH  13  14
HETATM   14  C4  UNL     1      23.761   3.285  49.056  1.00  0.00    -0.061 C 
BRANCH  14  15
HETATM   15  C3  UNL     1      22.803   2.562  48.555  1.00  0.00    -0.098 C 
BRANCH  15  16
HETATM   16  C2  UNL     1      21.886   1.685  48.274  1.00  0.00     0.076 C 
HETATM   17  C1  UNL     1      21.340   0.783  49.331  1.00  0.00     0.025 C 
ENDBRANCH  15  16
ENDBRANCH  14  15
ENDBRANCH  13  14
BRANCH  13  18
HETATM   18  O1  UNL     1      24.268   5.438  48.977  1.00  0.00    -0.366 OA
HETATM   19  C20 UNL     1      23.326   6.014  49.870  1.00  0.00     0.204 C 
ENDBRANCH  13  18
ENDBRANCH  12  13
ENDBRANCH  10  12
ENDBRANCH   1  10
BRANCH   7  20
HETATM   20  N4  UNL     1      24.181  -0.672  53.212  1.00  0.00    -0.340 N 
HETATM   21  H11 UNL     1      24.632  -1.359  52.578  1.00  0.00     0.167 HD
BRANCH  20  22
HETATM   22  C12 UNL     1      22.792  -0.474  53.388  1.00  0.00     0.035 A 
HETATM   23  C13 UNL     1      22.018  -1.452  53.972  1.00  0.00     0.029 A 
HETATM   24  C14 UNL     1      20.649  -1.185  54.103  1.00  0.00     0.004 A 
HETATM   25  C15 UNL     1      20.169   0.023  53.644  1.00  0.00     0.019 A 
HETATM   26  C16 UNL     1      20.965   0.988  53.061  1.00  0.00     0.013 A 
HETATM   27 BR1  UNL     1      20.242   2.642  52.441  1.00  0.00    -0.051 Br
HETATM   28  C17 UNL     1      22.335   0.740  52.921  1.00  0.00     0.048 A 
ENDBRANCH  20  22
ENDBRANCH   7  20
TORSDOF 9
ENDMDL
MODEL 4
REMARK VINA RESULT:      -6.6      2.838      5.449
REMARK  9 active torsions:
REMARK  status: ('A' for Active; 'I' for Inactive)
REMARK    1  A    between atoms: C2_2  and  C3_3 
REMARK    2  A    between atoms: C3_3  and  C4_4 
REMARK    3  A    between atoms: C4_4  and  C5_5 
REMARK    4  A    between atoms: C5_5  and  C6_6 
REMARK    5  A    between atoms: C5_5  and  O1_25 
REMARK    6  A    between atoms: C6_6  and  N1_7 
REMARK    7  A    between atoms: N1_7  and  C7_8 
REMARK    8  A    between atoms: C11_14  and  N4_15 
REMARK    9  A    between atoms: N4_15  and  C12_16 
ROOT
HETATM    1  C7  UNL     1      22.496  -0.124  54.065  1.00  0.00     0.269 A 
HETATM    2  C8  UNL     1      23.688  -0.879  54.513  1.00  0.00     0.045 A 
HETATM    3  C9  UNL     1      24.788  -0.561  53.838  1.00  0.00     0.070 A 
HETATM    4  N2  UNL     1      26.090  -0.892  53.797  1.00  0.00    -0.241 NA
HETATM    5  C10 UNL     1      26.966  -0.345  52.942  1.00  0.00     0.235 A 
HETATM    6  N3  UNL     1      26.602   0.603  52.036  1.00  0.00    -0.224 NA
HETATM    7  C11 UNL     1      25.304   1.027  51.978  1.00  0.00     0.141 A 
HETATM    8  C18 UNL     1      24.434   0.417  52.898  1.00  0.00     0.037 A 
HETATM    9  C19 UNL     1      23.143   0.705  52.982  1.00  0.00     0.030 A 
ENDROOT
BRANCH   1  10
HETATM   10  N1  UNL     1      21.464  -0.966  53.488  1.00  0.00     0.099 N 
HETATM   11  H7  UNL     1      21.751  -1.058  52.466  1.00  0.00     0.317 HD
BRANCH  10  12
HETATM   12  C6  UNL     1      20.243  -0.196  53.460  1.00  0.00     0.326 C 
BRANCH  12  13
HETATM   13  C5  UNL     1      19.779   0.047  52.069  1.00  0.00     0.193 C 
BRANCH  13  14
HETATM   14  C4  UNL     1      20.358   0.636  51.068  1.00  0.00    -0.061 C 
BRANCH  14  15
HETATM   15  C3  UNL     1      20.968   0.942  49.960  1.00  0.00    -0.098 C 
BRANCH  15  16
HETATM   16  C2  UNL     1      21.448   1.031  48.757  1.00  0.00     0.076 C 
HETATM   17  C1  UNL     1      22.323   2.176  48.363  1.00  0.00     0.025 C 
ENDBRANCH  15  16
ENDBRANCH  14  15
ENDBRANCH  13  14
BRANCH  13  18
HETATM   18  O1  UNL     1      18.510  -0.404  51.701  1.00  0.00    -0.366 OA
HETATM   19  C20 UNL     1      17.700  -0.915  52.748  1.00  0.00     0.204 C 
ENDBRANCH  13  18
ENDBRANCH  12  13
ENDBRANCH  10  12
ENDBRANCH   1  10
BRANCH   7  20
HETATM   20  N4  UNL     1      24.865   1.990  51.057  1.00  0.00    -0.340 N 
HETATM   21  H11 UNL     1      23.960   1.520  50.861  1.00  0.00     0.167 HD
BRANCH  20  22
HETATM   22  C12 UNL     1      25.329   3.196  50.481  1.00  0.00     0.035 A 
HETATM   23  C13 UNL     1      26.411   3.189  49.629  1.00  0.00     0.029 A 
HETATM   24  C14 UNL     1      26.816   4.425  49.106  1.00  0.00     0.004 A 
HETATM   25  C15 UNL     1      26.115   5.554  49.473  1.00  0.00     0.019 A 
HETATM   26  C16 UNL     1      25.033   5.535  50.329  1.00  0.00     0.013 A 
HETATM   27 BR1  UNL     1      24.103   7.134  50.804  1.00  0.00    -0.051 Br
HETATM   28  C17 UNL     1      24.614   4.311  50.862  1.00  0.00     0.048 A 
ENDBRANCH  20  22
ENDBRANCH   7  20
TORSDOF 9
ENDMDL
MODEL 5
REMARK VINA RESULT:      -6.5      5.843      9.367
REMARK  9 active torsions:
REMARK  status: ('A' for Active; 'I' for Inactive)
REMARK    1  A    between atoms: C2_2  and  C3_3 
REMARK    2  A    between atoms: C3_3  and  C4_4 
REMARK    3  A    between atoms: C4_4  and  C5_5 
REMARK    4  A    between atoms: C5_5  and  C6_6 
REMARK    5  A    between atoms: C5_5  and  O1_25 
REMARK    6  A    between atoms: C6_6  and  N1_7 
REMARK    7  A    between atoms: N1_7  and  C7_8 
REMARK    8  A    between atoms: C11_14  and  N4_15 
REMARK    9  A    between atoms: N4_15  and  C12_16 
ROOT
HETATM    1  C7  UNL     1      26.441   4.963  49.014  1.00  0.00     0.269 A 
HETATM    2  C8  UNL     1      26.423   6.441  48.923  1.00  0.00     0.045 A 
HETATM    3  C9  UNL     1      27.587   6.952  48.536  1.00  0.00     0.070 A 
HETATM    4  N2  UNL     1      28.142   8.151  48.291  1.00  0.00    -0.241 NA
HETATM    5  C10 UNL     1      29.413   8.311  47.895  1.00  0.00     0.235 A 
HETATM    6  N3  UNL     1      30.254   7.257  47.707  1.00  0.00    -0.224 NA
HETATM    7  C11 UNL     1      29.808   5.984  47.923  1.00  0.00     0.141 A 
HETATM    8  C18 UNL     1      28.469   5.880  48.336  1.00  0.00     0.037 A 
HETATM    9  C19 UNL     1      27.871   4.726  48.591  1.00  0.00     0.030 A 
ENDROOT
BRANCH   1  10
HETATM   10  N1  UNL     1      26.237   4.466  50.361  1.00  0.00     0.099 N 
HETATM   11  H7  UNL     1      27.051   4.879  50.911  1.00  0.00     0.317 HD
BRANCH  10  12
HETATM   12  C6  UNL     1      26.490   3.044  50.341  1.00  0.00     0.326 C 
BRANCH  12  13
HETATM   13  C5  UNL     1      26.309   2.434  51.684  1.00  0.00     0.193 C 
BRANCH  13  14
HETATM   14  C4  UNL     1      27.171   1.934  52.516  1.00  0.00    -0.061 C 
BRANCH  14  15
HETATM   15  C3  UNL     1      28.123   1.275  53.107  1.00  0.00    -0.098 C 
BRANCH  15  16
HETATM   16  C2  UNL     1      29.156   0.862  53.779  1.00  0.00     0.076 C 
HETATM   17  C1  UNL     1      29.729  -0.497  53.544  1.00  0.00     0.025 C 
ENDBRANCH  15  16
ENDBRANCH  14  15
ENDBRANCH  13  14
BRANCH  13  18
HETATM   18  O1  UNL     1      25.019   2.348  52.208  1.00  0.00    -0.366 OA
HETATM   19  C20 UNL     1      24.493   1.039  52.364  1.00  0.00     0.204 C 
ENDBRANCH  13  18
ENDBRANCH  12  13
ENDBRANCH  10  12
ENDBRANCH   1  10
BRANCH   7  20
HETATM   20  N4  UNL     1      30.631   4.858  47.761  1.00  0.00    -0.340 N 
HETATM   21  H11 UNL     1      29.876   4.170  47.946  1.00  0.00     0.167 HD
BRANCH  20  22
HETATM   22  C12 UNL     1      31.982   4.566  47.466  1.00  0.00     0.035 A 
HETATM   23  C13 UNL     1      32.300   3.687  46.454  1.00  0.00     0.029 A 
HETATM   24  C14 UNL     1      33.661   3.443  46.228  1.00  0.00     0.004 A 
HETATM   25  C15 UNL     1      34.585   4.087  47.024  1.00  0.00     0.019 A 
HETATM   26  C16 UNL     1      34.241   4.963  48.033  1.00  0.00     0.013 A 
HETATM   27 BR1  UNL     1      35.566   5.824  49.105  1.00  0.00    -0.051 Br
HETATM   28  C17 UNL     1      32.887   5.221  48.274  1.00  0.00     0.048 A 
ENDBRANCH  20  22
ENDBRANCH   7  20
TORSDOF 9
ENDMDL
MODEL 6
REMARK VINA RESULT:      -6.5      3.086      5.470
REMARK  9 active torsions:
REMARK  status: ('A' for Active; 'I' for Inactive)
REMARK    1  A    between atoms: C2_2  and  C3_3 
REMARK    2  A    between atoms: C3_3  and  C4_4 
REMARK    3  A    between atoms: C4_4  and  C5_5 
REMARK    4  A    between atoms: C5_5  and  C6_6 
REMARK    5  A    between atoms: C5_5  and  O1_25 
REMARK    6  A    between atoms: C6_6  and  N1_7 
REMARK    7  A    between atoms: N1_7  and  C7_8 
REMARK    8  A    between atoms: C11_14  and  N4_15 
REMARK    9  A    between atoms: N4_15  and  C12_16 
ROOT
HETATM    1  C7  UNL     1      21.587   2.458  51.868  1.00  0.00     0.269 A 
HETATM    2  C8  UNL     1      20.670   1.825  52.843  1.00  0.00     0.045 A 
HETATM    3  C9  UNL     1      21.237   0.833  53.521  1.00  0.00     0.070 A 
HETATM    4  N2  UNL     1      20.924  -0.058  54.478  1.00  0.00    -0.241 NA
HETATM    5  C10 UNL     1      21.786  -0.968  54.953  1.00  0.00     0.235 A 
HETATM    6  N3  UNL     1      23.066  -1.064  54.499  1.00  0.00    -0.224 NA
HETATM    7  C11 UNL     1      23.507  -0.213  53.525  1.00  0.00     0.141 A 
HETATM    8  C18 UNL     1      22.559   0.718  53.068  1.00  0.00     0.037 A 
HETATM    9  C19 UNL     1      22.813   1.617  52.129  1.00  0.00     0.030 A 
ENDROOT
BRANCH   1  10
HETATM   10  N1  UNL     1      21.163   2.295  50.490  1.00  0.00     0.099 N 
HETATM   11  H7  UNL     1      20.610   1.384  50.498  1.00  0.00     0.317 HD
BRANCH  10  12
HETATM   12  C6  UNL     1      22.340   2.003  49.706  1.00  0.00     0.326 C 
BRANCH  12  13
HETATM   13  C5  UNL     1      23.112   3.234  49.393  1.00  0.00     0.193 C 
BRANCH  13  14
HETATM   14  C4  UNL     1      24.363   3.526  49.577  1.00  0.00    -0.061 C 
BRANCH  14  15
HETATM   15  C3  UNL     1      25.597   3.926  49.479  1.00  0.00    -0.098 C 
BRANCH  15  16
HETATM   16  C2  UNL     1      26.875   4.071  49.298  1.00  0.00     0.076 C 
HETATM   17  C1  UNL     1      27.417   5.264  48.581  1.00  0.00     0.025 C 
ENDBRANCH  15  16
ENDBRANCH  14  15
ENDBRANCH  13  14
BRANCH  13  18
HETATM   18  O1  UNL     1      22.444   4.306  48.798  1.00  0.00    -0.366 OA
HETATM   19  C20 UNL     1      22.288   4.240  47.389  1.00  0.00     0.204 C 
ENDBRANCH  13  18
ENDBRANCH  12  13
ENDBRANCH  10  12
ENDBRANCH   1  10
BRANCH   7  20
HETATM   20  N4  UNL     1      24.810  -0.271  53.006  1.00  0.00    -0.340 N 
HETATM   21  H11 UNL     1      24.593  -1.004  52.304  1.00  0.00     0.167 HD
BRANCH  20  22
HETATM   22  C12 UNL     1      26.067   0.340  53.223  1.00  0.00     0.035 A 
HETATM   23  C13 UNL     1      26.164   1.710  53.334  1.00  0.00     0.029 A 
HETATM   24  C14 UNL     1      27.444   2.241  53.540  1.00  0.00     0.004 A 
HETATM   25  C15 UNL     1      28.512   1.372  53.615  1.00  0.00     0.019 A 
HETATM   26  C16 UNL     1      28.388   0.002  53.500  1.00  0.00     0.013 A 
HETATM   27 BR1  UNL     1      29.905  -1.152  53.610  1.00  0.00    -0.051 Br
HETATM   28  C17 UNL     1      27.118  -0.548  53.295  1.00  0.00     0.048 A 
ENDBRANCH  20  22
ENDBRANCH   7  20
TORSDOF 9
ENDMDL
MODEL 7
REMARK VINA RESULT:      -6.5      2.799      5.472
REMARK  9 active torsions:
REMARK  status: ('A' for Active; 'I' for Inactive)
REMARK    1  A    between atoms: C2_2  and  C3_3 
REMARK    2  A    between atoms: C3_3  and  C4_4 
REMARK    3  A    between atoms: C4_4  and  C5_5 
REMARK    4  A    between atoms: C5_5  and  C6_6 
REMARK    5  A    between atoms: C5_5  and  O1_25 
REMARK    6  A    between atoms: C6_6  and  N1_7 
REMARK    7  A    between atoms: N1_7  and  C7_8 
REMARK    8  A    between atoms: C11_14  and  N4_15 
REMARK    9  A    between atoms: N4_15  and  C12_16 
ROOT
HETATM    1  C7  UNL     1      25.300   1.846  51.874  1.00  0.00     0.269 A 
HETATM    2  C8  UNL     1      24.222   2.493  52.655  1.00  0.00     0.045 A 
HETATM    3  C9  UNL     1      23.816   3.643  52.126  1.00  0.00     0.070 A 
HETATM    4  N2  UNL     1      22.926   4.620  52.372  1.00  0.00    -0.241 NA
HETATM    5  C10 UNL     1      22.775   5.697  51.588  1.00  0.00     0.235 A 
HETATM    6  N3  UNL     1      23.521   5.890  50.466  1.00  0.00    -0.224 NA
HETATM    7  C11 UNL     1      24.461   4.967  50.107  1.00  0.00     0.141 A 
HETATM    8  C18 UNL     1      24.573   3.860  50.966  1.00  0.00     0.037 A 
HETATM    9  C19 UNL     1      25.431   2.870  50.773  1.00  0.00     0.030 A 
ENDROOT
BRANCH   1  10
HETATM   10  N1  UNL     1      26.552   1.739  52.599  1.00  0.00     0.099 N 
HETATM   11  H7  UNL     1      27.276   2.121  51.916  1.00  0.00     0.317 HD
BRANCH  10  12
HETATM   12  C6  UNL     1      26.865   0.335  52.719  1.00  0.00     0.326 C 
BRANCH  12  13
HETATM   13  C5  UNL     1      26.522  -0.192  54.066  1.00  0.00     0.193 C 
BRANCH  13  14
HETATM   14  C4  UNL     1      25.390  -0.582  54.566  1.00  0.00    -0.061 C 
BRANCH  14  15
HETATM   15  C3  UNL     1      24.142  -0.860  54.809  1.00  0.00    -0.098 C 
BRANCH  15  16
HETATM   16  C2  UNL     1      22.998  -1.362  55.165  1.00  0.00     0.076 C 
HETATM   17  C1  UNL     1      21.846  -1.392  54.214  1.00  0.00     0.025 C 
ENDBRANCH  15  16
ENDBRANCH  14  15
ENDBRANCH  13  14
BRANCH  13  18
HETATM   18  O1  UNL     1      27.541  -0.317  55.012  1.00  0.00    -0.366 OA
HETATM   19  C20 UNL     1      28.862  -0.101  54.541  1.00  0.00     0.204 C 
ENDBRANCH  13  18
ENDBRANCH  12  13
ENDBRANCH  10  12
ENDBRANCH   1  10
BRANCH   7  20
HETATM   20  N4  UNL     1      25.270   5.116  48.970  1.00  0.00    -0.340 N 
HETATM   21  H11 UNL     1      24.606   4.643  48.326  1.00  0.00     0.167 HD
BRANCH  20  22
HETATM   22  C12 UNL     1      26.530   5.660  48.628  1.00  0.00     0.035 A 
HETATM   23  C13 UNL     1      27.659   4.873  48.660  1.00  0.00     0.029 A 
HETATM   24  C14 UNL     1      28.871   5.487  48.316  1.00  0.00     0.004 A 
HETATM   25  C15 UNL     1      28.857   6.823  47.975  1.00  0.00     0.019 A 
HETATM   26  C16 UNL     1      27.711   7.591  47.951  1.00  0.00     0.013 A 
HETATM   27 BR1  UNL     1      27.754   9.439  47.472  1.00  0.00    -0.051 Br
HETATM   28  C17 UNL     1      26.491   6.996  48.290  1.00  0.00     0.048 A 
ENDBRANCH  20  22
ENDBRANCH   7  20
TORSDOF 9
ENDMDL
MODEL 8
REMARK VINA RESULT:      -6.3      4.482      7.756
REMARK  9 active torsions:
REMARK  status: ('A' for Active; 'I' for Inactive)
REMARK    1  A    between atoms: C2_2  and  C3_3 
REMARK    2  A    between atoms: C3_3  and  C4_4 
REMARK    3  A    between atoms: C4_4  and  C5_5 
REMARK    4  A    between atoms: C5_5  and  C6_6 
REMARK    5  A    between atoms: C5_5  and  O1_25 
REMARK    6  A    between atoms: C6_6  and  N1_7 
REMARK    7  A    between atoms: N1_7  and  C7_8 
REMARK    8  A    between atoms: C11_14  and  N4_15 
REMARK    9  A    between atoms: N4_15  and  C12_16 
ROOT
HETATM    1  C7  UNL     1      25.317   3.297  50.142  1.00  0.00     0.269 A 
HETATM    2  C8  UNL     1      24.413   4.333  49.594  1.00  0.00     0.045 A 
HETATM    3  C9  UNL     1      25.063   5.333  49.008  1.00  0.00     0.070 A 
HETATM    4  N2  UNL     1      24.798   6.487  48.371  1.00  0.00    -0.241 NA
HETATM    5  C10 UNL     1      25.748   7.296  47.881  1.00  0.00     0.235 A 
HETATM    6  N3  UNL     1      27.075   7.010  47.990  1.00  0.00    -0.224 NA
HETATM    7  C11 UNL     1      27.474   5.864  48.617  1.00  0.00     0.141 A 
HETATM    8  C18 UNL     1      26.434   5.057  49.108  1.00  0.00     0.037 A 
HETATM    9  C19 UNL     1      26.637   3.911  49.743  1.00  0.00     0.030 A 
ENDROOT
BRANCH   1  10
HETATM   10  N1  UNL     1      25.248   3.176  51.586  1.00  0.00     0.099 N 
HETATM   11  H7  UNL     1      25.581   4.125  51.938  1.00  0.00     0.317 HD
BRANCH  10  12
HETATM   12  C6  UNL     1      26.278   2.250  51.994  1.00  0.00     0.326 C 
BRANCH  12  13
HETATM   13  C5  UNL     1      25.865   1.455  53.179  1.00  0.00     0.193 C 
BRANCH  13  14
HETATM   14  C4  UNL     1      24.864   0.649  53.358  1.00  0.00    -0.061 C 
BRANCH  14  15
HETATM   15  C3  UNL     1      23.736   0.003  53.315  1.00  0.00    -0.098 C 
BRANCH  15  16
HETATM   16  C2  UNL     1      22.716  -0.786  53.474  1.00  0.00     0.076 C 
HETATM   17  C1  UNL     1      21.878  -0.716  54.708  1.00  0.00     0.025 C 
ENDBRANCH  15  16
ENDBRANCH  14  15
ENDBRANCH  13  14
BRANCH  13  18
HETATM   18  O1  UNL     1      26.638   1.538  54.339  1.00  0.00    -0.366 OA
HETATM   19  C20 UNL     1      27.271   0.338  54.756  1.00  0.00     0.204 C 
ENDBRANCH  13  18
ENDBRANCH  12  13
ENDBRANCH  10  12
ENDBRANCH   1  10
BRANCH   7  20
HETATM   20  N4  UNL     1      28.826   5.521  48.772  1.00  0.00    -0.340 N 
HETATM   21  H11 UNL     1      28.647   4.766  49.462  1.00  0.00     0.167 HD
BRANCH  20  22
HETATM   22  C12 UNL     1      30.087   5.929  48.279  1.00  0.00     0.035 A 
HETATM   23  C13 UNL     1      30.564   7.193  48.549  1.00  0.00     0.029 A 
HETATM   24  C14 UNL     1      31.818   7.525  48.018  1.00  0.00     0.004 A 
HETATM   25  C15 UNL     1      32.486   6.580  47.269  1.00  0.00     0.019 A 
HETATM   26  C16 UNL     1      31.986   5.319  47.012  1.00  0.00     0.013 A 
HETATM   27 BR1  UNL     1      32.956   4.052  45.964  1.00  0.00    -0.051 Br
HETATM   28  C17 UNL     1      30.736   4.968  47.534  1.00  0.00     0.048 A 
ENDBRANCH  20  22
ENDBRANCH   7  20
TORSDOF 9
ENDMDL
MODEL 9
REMARK VINA RESULT:      -6.2      2.585      5.305
REMARK  9 active torsions:
REMARK  status: ('A' for Active; 'I' for Inactive)
REMARK    1  A    between atoms: C2_2  and  C3_3 
REMARK    2  A    between atoms: C3_3  and  C4_4 
REMARK    3  A    between atoms: C4_4  and  C5_5 
REMARK    4  A    between atoms: C5_5  and  C6_6 
REMARK    5  A    between atoms: C5_5  and  O1_25 
REMARK    6  A    between atoms: C6_6  and  N1_7 
REMARK    7  A    between atoms: N1_7  and  C7_8 
REMARK    8  A    between atoms: C11_14  and  N4_15 
REMARK    9  A    between atoms: N4_15  and  C12_16 
ROOT
HETATM    1  C7  UNL     1      26.769   2.308  51.335  1.00  0.00     0.269 A 
HETATM    2  C8  UNL     1      27.635   2.261  52.534  1.00  0.00     0.045 A 
HETATM    3  C9  UNL     1      27.213   1.391  53.446  1.00  0.00     0.070 A 
HETATM    4  N2  UNL     1      27.564   0.938  54.662  1.00  0.00    -0.241 NA
HETATM    5  C10 UNL     1      26.873   0.006  55.332  1.00  0.00     0.235 A 
HETATM    6  N3  UNL     1      25.744  -0.565  54.828  1.00  0.00    -0.224 NA
HETATM    7  C11 UNL     1      25.283  -0.190  53.598  1.00  0.00     0.141 A 
HETATM    8  C18 UNL     1      26.050   0.790  52.945  1.00  0.00     0.037 A 
HETATM    9  C19 UNL     1      25.751   1.273  51.747  1.00  0.00     0.030 A 
ENDROOT
BRANCH   1  10
HETATM   10  N1  UNL     1      26.117   3.590  51.145  1.00  0.00     0.099 N 
HETATM   11  H7  UNL     1      25.801   3.864  52.125  1.00  0.00     0.317 HD
BRANCH  10  12
HETATM   12  C6  UNL     1      24.893   3.350  50.418  1.00  0.00     0.326 C 
BRANCH  12  13
HETATM   13  C5  UNL     1      24.062   4.579  50.318  1.00  0.00     0.193 C 
BRANCH  13  14
HETATM   14  C4  UNL     1      24.050   5.530  49.435  1.00  0.00    -0.061 C 
BRANCH  14  15
HETATM   15  C3  UNL     1      23.906   6.274  48.378  1.00  0.00    -0.098 C 
BRANCH  15  16
HETATM   16  C2  UNL     1      23.990   7.134  47.408  1.00  0.00     0.076 C 
HETATM   17  C1  UNL     1      25.265   7.864  47.140  1.00  0.00     0.025 C 
ENDBRANCH  15  16
ENDBRANCH  14  15
ENDBRANCH  13  14
BRANCH  13  18
HETATM   18  O1  UNL     1      23.108   4.821  51.308  1.00  0.00    -0.366 OA
HETATM   19  C20 UNL     1      22.419   3.683  51.803  1.00  0.00     0.204 C 
ENDBRANCH  13  18
ENDBRANCH  12  13
ENDBRANCH  10  12
ENDBRANCH   1  10
BRANCH   7  20
HETATM   20  N4  UNL     1      24.119  -0.731  53.031  1.00  0.00    -0.340 N 
HETATM   21  H11 UNL     1      24.619  -1.262  52.292  1.00  0.00     0.167 HD
BRANCH  20  22
HETATM   22  C12 UNL     1      22.720  -0.687  53.235  1.00  0.00     0.035 A 
HETATM   23  C13 UNL     1      22.160  -1.278  54.346  1.00  0.00     0.029 A 
HETATM   24  C14 UNL     1      20.767  -1.199  54.473  1.00  0.00     0.004 A 
HETATM   25  C15 UNL     1      20.054  -0.545  53.491  1.00  0.00     0.019 A 
HETATM   26  C16 UNL     1      20.638   0.039  52.386  1.00  0.00     0.013 A 
HETATM   27 BR1  UNL     1      19.598   0.929  51.055  1.00  0.00    -0.051 Br
HETATM   28  C17 UNL     1      22.028  -0.029  52.241  1.00  0.00     0.048 A 
ENDBRANCH  20  22
ENDBRANCH   7  20
TORSDOF 9
ENDMDL
