MODEL 1
REMARK VINA RESULT:     -10.5      0.000      0.000
REMARK  2 active torsions:
REMARK  status: ('A' for Active; 'I' for Inactive)
REMARK       I    between atoms: C1_2  and  N1_3 
REMARK       I    between atoms: C1_2  and  N2_11 
REMARK    1  A    between atoms: N1_3  and  C2_4 
REMARK    2  A    between atoms: N2_11  and  C8_12 
ROOT
HETATM    1  C8  UNL     1      22.660  -0.146  53.830  1.00  0.00     0.037 A 
HETATM    2  C9  UNL     1      22.472   1.068  53.240  1.00  0.00     0.032 A 
HETATM    3  C10 UNL     1      23.582   1.668  52.677  1.00  0.00     0.033 A 
HETATM    4  C11 UNL     1      24.834   1.090  52.696  1.00  0.00     0.044 A 
HETATM    5  C12 UNL     1      24.836  -0.152  53.344  1.00  0.00     0.003 A 
HETATM    6  C13 UNL     1      23.840  -0.852  53.931  1.00  0.00     0.044 A 
HETATM    7  C14 UNL     1      26.176  -0.730  53.368  1.00  0.00    -0.021 A 
HETATM    8  C15 UNL     1      26.250  -1.958  52.777  1.00  0.00     0.012 A 
HETATM    9  C16 UNL     1      27.581  -2.391  52.703  1.00  0.00     0.003 A 
HETATM   10  C17 UNL     1      28.631  -1.649  53.171  1.00  0.00     0.031 A 
HETATM   11  C18 UNL     1      28.389  -0.430  53.741  1.00  0.00     0.059 A 
HETATM   12  C19 UNL     1      27.128   0.103  53.878  1.00  0.00     0.044 A 
HETATM   13  N3  UNL     1      29.233   0.648  54.230  1.00  0.00    -0.242 NA
HETATM   14  C20 UNL     1      29.041   1.831  53.619  1.00  0.00     0.234 C 
HETATM   15  N4  UNL     1      28.328   2.546  52.636  1.00  0.00    -0.237 NA
HETATM   16  C21 UNL     1      27.156   2.383  52.175  1.00  0.00     0.208 C 
HETATM   17  N5  UNL     1      25.906   1.736  52.091  1.00  0.00    -0.350 N 
HETATM   18  H16 UNL     1      25.610   1.715  51.076  1.00  0.00     0.166 HD
ENDROOT
BRANCH   1  19
HETATM   19  N2  UNL     1      21.531  -0.797  54.425  1.00  0.00    -0.309 N 
HETATM   20  C1  UNL     1      20.363  -1.009  53.661  1.00  0.00     0.325 C 
HETATM   21  O1  UNL     1      20.399  -0.604  52.493  1.00  0.00    -0.247 OA
HETATM   22  N1  UNL     1      19.201  -1.629  54.131  1.00  0.00    -0.309 N 
HETATM   23  H1  UNL     1      19.302  -1.928  55.146  1.00  0.00     0.170 HD
HETATM   24  H6  UNL     1      21.558  -1.123  55.424  1.00  0.00     0.170 HD
BRANCH  22  25
HETATM   25  C2  UNL     1      17.974  -1.898  53.475  1.00  0.00     0.039 A 
HETATM   26  C3  UNL     1      17.445  -3.165  53.527  1.00  0.00     0.030 A 
HETATM   27  C4  UNL     1      16.266  -3.501  52.921  1.00  0.00     0.005 A 
HETATM   28  C5  UNL     1      15.546  -2.586  52.223  1.00  0.00     0.042 A 
HETATM   29  C6  UNL     1      16.034  -1.297  52.139  1.00  0.00     0.118 A 
HETATM   30  F1  UNL     1      15.333  -0.366  51.450  1.00  0.00    -0.206 F 
HETATM   31  C7  UNL     1      17.230  -1.008  52.771  1.00  0.00     0.071 A 
ENDBRANCH  22  25
ENDBRANCH   1  19
TORSDOF 2
ENDMDL
MODEL 2
REMARK VINA RESULT:      -9.8      8.279     12.850
REMARK  2 active torsions:
REMARK  status: ('A' for Active; 'I' for Inactive)
REMARK       I    between atoms: C1_2  and  N1_3 
REMARK       I    between atoms: C1_2  and  N2_11 
REMARK    1  A    between atoms: N1_3  and  C2_4 
REMARK    2  A    between atoms: N2_11  and  C8_12 
ROOT
HETATM    1  C8  UNL     1      28.238   7.211  48.226  1.00  0.00     0.037 A 
HETATM    2  C9  UNL     1      28.095   8.353  48.956  1.00  0.00     0.032 A 
HETATM    3  C10 UNL     1      26.983   8.439  49.772  1.00  0.00     0.033 A 
HETATM    4  C11 UNL     1      26.045   7.432  49.862  1.00  0.00     0.044 A 
HETATM    5  C12 UNL     1      26.355   6.340  49.043  1.00  0.00     0.003 A 
HETATM    6  C13 UNL     1      27.394   6.121  48.206  1.00  0.00     0.044 A 
HETATM    7  C14 UNL     1      25.335   5.301  49.142  1.00  0.00    -0.021 A 
HETATM    8  C15 UNL     1      25.826   4.093  49.545  1.00  0.00     0.012 A 
HETATM    9  C16 UNL     1      24.782   3.182  49.761  1.00  0.00     0.003 A 
HETATM   10  C17 UNL     1      23.465   3.507  49.582  1.00  0.00     0.031 A 
HETATM   11  C18 UNL     1      23.135   4.769  49.172  1.00  0.00     0.059 A 
HETATM   12  C19 UNL     1      24.066   5.749  48.921  1.00  0.00     0.044 A 
HETATM   13  N3  UNL     1      21.881   5.482  48.992  1.00  0.00    -0.242 NA
HETATM   14  C20 UNL     1      21.757   6.595  49.738  1.00  0.00     0.234 C 
HETATM   15  N4  UNL     1      22.351   7.444  50.693  1.00  0.00    -0.237 NA
HETATM   16  C21 UNL     1      23.572   7.700  50.933  1.00  0.00     0.208 C 
HETATM   17  N5  UNL     1      24.959   7.572  50.721  1.00  0.00    -0.350 N 
HETATM   18  H16 UNL     1      25.443   7.581  51.660  1.00  0.00     0.166 HD
ENDROOT
BRANCH   1  19
HETATM   19  N2  UNL     1      29.380   7.088  47.369  1.00  0.00    -0.309 N 
HETATM   20  C1  UNL     1      30.436   6.224  47.730  1.00  0.00     0.325 C 
HETATM   21  O1  UNL     1      30.296   5.614  48.797  1.00  0.00    -0.247 OA
HETATM   22  N1  UNL     1      31.598   6.023  46.978  1.00  0.00    -0.309 N 
HETATM   23  H1  UNL     1      31.593   6.605  46.089  1.00  0.00     0.170 HD
HETATM   24  H6  UNL     1      29.444   7.631  46.471  1.00  0.00     0.170 HD
BRANCH  22  25
HETATM   25  C2  UNL     1      32.722   5.196  47.227  1.00  0.00     0.039 A 
HETATM   26  C3  UNL     1      32.862   4.022  46.529  1.00  0.00     0.030 A 
HETATM   27  C4  UNL     1      33.918   3.172  46.712  1.00  0.00     0.005 A 
HETATM   28  C5  UNL     1      34.897   3.449  47.610  1.00  0.00     0.042 A 
HETATM   29  C6  UNL     1      34.804   4.618  48.340  1.00  0.00     0.118 A 
HETATM   30  F1  UNL     1      35.770   4.917  49.241  1.00  0.00    -0.206 F 
HETATM   31  C7  UNL     1      33.717   5.443  48.115  1.00  0.00     0.071 A 
ENDBRANCH  22  25
ENDBRANCH   1  19
TORSDOF 2
ENDMDL
MODEL 3
REMARK VINA RESULT:      -9.7      5.967      9.007
REMARK  2 active torsions:
REMARK  status: ('A' for Active; 'I' for Inactive)
REMARK       I    between atoms: C1_2  and  N1_3 
REMARK       I    between atoms: C1_2  and  N2_11 
REMARK    1  A    between atoms: N1_3  and  C2_4 
REMARK    2  A    between atoms: N2_11  and  C8_12 
ROOT
HETATM    1  C8  UNL     1      24.571   3.407  50.901  1.00  0.00     0.037 A 
HETATM    2  C9  UNL     1      23.338   3.523  50.330  1.00  0.00     0.032 A 
HETATM    3  C10 UNL     1      23.210   4.431  49.297  1.00  0.00     0.033 A 
HETATM    4  C11 UNL     1      24.262   5.198  48.843  1.00  0.00     0.044 A 
HETATM    5  C12 UNL     1      25.447   4.946  49.546  1.00  0.00     0.003 A 
HETATM    6  C13 UNL     1      25.716   4.097  50.563  1.00  0.00     0.044 A 
HETATM    7  C14 UNL     1      26.536   5.787  49.059  1.00  0.00    -0.021 A 
HETATM    8  C15 UNL     1      27.613   5.078  48.614  1.00  0.00     0.012 A 
HETATM    9  C16 UNL     1      28.559   5.932  48.028  1.00  0.00     0.003 A 
HETATM   10  C17 UNL     1      28.381   7.285  47.937  1.00  0.00     0.031 A 
HETATM   11  C18 UNL     1      27.238   7.847  48.435  1.00  0.00     0.059 A 
HETATM   12  C19 UNL     1      26.240   7.118  49.038  1.00  0.00     0.044 A 
HETATM   13  N3  UNL     1      26.673   9.186  48.416  1.00  0.00    -0.242 NA
HETATM   14  C20 UNL     1      25.465   9.276  47.831  1.00  0.00     0.234 C 
HETATM   15  N4  UNL     1      24.421   8.594  47.176  1.00  0.00    -0.237 NA
HETATM   16  C21 UNL     1      24.026   7.391  47.270  1.00  0.00     0.208 C 
HETATM   17  N5  UNL     1      24.071   6.079  47.782  1.00  0.00    -0.350 N 
HETATM   18  H16 UNL     1      23.864   5.405  46.995  1.00  0.00     0.166 HD
ENDROOT
BRANCH   1  19
HETATM   19  N2  UNL     1      24.740   2.475  51.975  1.00  0.00    -0.309 N 
HETATM   20  C1  UNL     1      25.810   1.555  51.941  1.00  0.00     0.325 C 
HETATM   21  O1  UNL     1      26.551   1.622  50.953  1.00  0.00    -0.247 OA
HETATM   22  N1  UNL     1      26.075   0.599  52.928  1.00  0.00    -0.309 N 
HETATM   23  H1  UNL     1      25.366   0.648  53.718  1.00  0.00     0.170 HD
HETATM   24  H6  UNL     1      24.079   2.465  52.793  1.00  0.00     0.170 HD
BRANCH  22  25
HETATM   25  C2  UNL     1      27.102  -0.373  53.012  1.00  0.00     0.039 A 
HETATM   26  C3  UNL     1      26.830  -1.674  52.666  1.00  0.00     0.030 A 
HETATM   27  C4  UNL     1      27.769  -2.667  52.720  1.00  0.00     0.005 A 
HETATM   28  C5  UNL     1      29.039  -2.415  53.129  1.00  0.00     0.042 A 
HETATM   29  C6  UNL     1      29.365  -1.123  53.490  1.00  0.00     0.118 A 
HETATM   30  F1  UNL     1      30.626  -0.846  53.899  1.00  0.00    -0.206 F 
HETATM   31  C7  UNL     1      28.380  -0.155  53.415  1.00  0.00     0.071 A 
ENDBRANCH  22  25
ENDBRANCH   1  19
TORSDOF 2
ENDMDL
MODEL 4
REMARK VINA RESULT:      -9.5      7.179     12.448
REMARK  2 active torsions:
REMARK  status: ('A' for Active; 'I' for Inactive)
REMARK       I    between atoms: C1_2  and  N1_3 
REMARK       I    between atoms: C1_2  and  N2_11 
REMARK    1  A    between atoms: N1_3  and  C2_4 
REMARK    2  A    between atoms: N2_11  and  C8_12 
ROOT
HETATM    1  C8  UNL     1      27.811   6.349  48.367  1.00  0.00     0.037 A 
HETATM    2  C9  UNL     1      27.314   7.551  48.774  1.00  0.00     0.032 A 
HETATM    3  C10 UNL     1      26.226   7.523  49.625  1.00  0.00     0.033 A 
HETATM    4  C11 UNL     1      25.647   6.348  50.057  1.00  0.00     0.044 A 
HETATM    5  C12 UNL     1      26.288   5.216  49.538  1.00  0.00     0.003 A 
HETATM    6  C13 UNL     1      27.349   5.095  48.708  1.00  0.00     0.044 A 
HETATM    7  C14 UNL     1      25.642   3.990  49.994  1.00  0.00    -0.021 A 
HETATM    8  C15 UNL     1      26.482   3.149  50.664  1.00  0.00     0.012 A 
HETATM    9  C16 UNL     1      25.772   2.065  51.200  1.00  0.00     0.003 A 
HETATM   10  C17 UNL     1      24.421   1.914  51.048  1.00  0.00     0.031 A 
HETATM   11  C18 UNL     1      23.717   2.851  50.344  1.00  0.00     0.059 A 
HETATM   12  C19 UNL     1      24.298   3.955  49.764  1.00  0.00     0.044 A 
HETATM   13  N3  UNL     1      22.304   3.074  50.082  1.00  0.00    -0.242 NA
HETATM   14  C20 UNL     1      21.835   4.260  50.511  1.00  0.00     0.234 C 
HETATM   15  N4  UNL     1      22.129   5.479  51.153  1.00  0.00    -0.237 NA
HETATM   16  C21 UNL     1      23.207   6.147  51.215  1.00  0.00     0.208 C 
HETATM   17  N5  UNL     1      24.566   6.388  50.932  1.00  0.00    -0.350 N 
HETATM   18  H16 UNL     1      25.018   6.805  51.793  1.00  0.00     0.166 HD
ENDROOT
BRANCH   1  19
HETATM   19  N2  UNL     1      28.940   6.341  47.484  1.00  0.00    -0.309 N 
HETATM   20  C1  UNL     1      30.219   6.027  47.989  1.00  0.00     0.325 C 
HETATM   21  O1  UNL     1      30.278   5.772  49.198  1.00  0.00    -0.247 OA
HETATM   22  N1  UNL     1      31.392   5.989  47.227  1.00  0.00    -0.309 N 
HETATM   23  H1  UNL     1      31.204   6.227  46.209  1.00  0.00     0.170 HD
HETATM   24  H6  UNL     1      28.829   6.564  46.463  1.00  0.00     0.170 HD
BRANCH  22  25
HETATM   25  C2  UNL     1      32.725   5.694  47.607  1.00  0.00     0.039 A 
HETATM   26  C3  UNL     1      33.500   6.679  48.169  1.00  0.00     0.030 A 
HETATM   27  C4  UNL     1      34.793   6.471  48.562  1.00  0.00     0.005 A 
HETATM   28  C5  UNL     1      35.390   5.261  48.412  1.00  0.00     0.042 A 
HETATM   29  C6  UNL     1      34.654   4.235  47.851  1.00  0.00     0.118 A 
HETATM   30  F1  UNL     1      35.226   3.018  47.692  1.00  0.00    -0.206 F 
HETATM   31  C7  UNL     1      33.351   4.497  47.472  1.00  0.00     0.071 A 
ENDBRANCH  22  25
ENDBRANCH   1  19
TORSDOF 2
ENDMDL
MODEL 5
REMARK VINA RESULT:      -9.4      5.657      8.061
REMARK  2 active torsions:
REMARK  status: ('A' for Active; 'I' for Inactive)
REMARK       I    between atoms: C1_2  and  N1_3 
REMARK       I    between atoms: C1_2  and  N2_11 
REMARK    1  A    between atoms: N1_3  and  C2_4 
REMARK    2  A    between atoms: N2_11  and  C8_12 
ROOT
HETATM    1  C8  UNL     1      24.804   3.562  49.401  1.00  0.00     0.037 A 
HETATM    2  C9  UNL     1      26.120   3.225  49.514  1.00  0.00     0.032 A 
HETATM    3  C10 UNL     1      27.043   4.232  49.309  1.00  0.00     0.033 A 
HETATM    4  C11 UNL     1      26.679   5.527  49.003  1.00  0.00     0.044 A 
HETATM    5  C12 UNL     1      25.290   5.686  48.928  1.00  0.00     0.003 A 
HETATM    6  C13 UNL     1      24.282   4.803  49.104  1.00  0.00     0.044 A 
HETATM    7  C14 UNL     1      24.936   7.059  48.583  1.00  0.00    -0.021 A 
HETATM    8  C15 UNL     1      24.133   7.663  49.506  1.00  0.00     0.012 A 
HETATM    9  C16 UNL     1      23.950   9.017  49.191  1.00  0.00     0.003 A 
HETATM   10  C17 UNL     1      24.520   9.609  48.098  1.00  0.00     0.031 A 
HETATM   11  C18 UNL     1      25.304   8.862  47.263  1.00  0.00     0.059 A 
HETATM   12  C19 UNL     1      25.554   7.523  47.459  1.00  0.00     0.044 A 
HETATM   13  N3  UNL     1      26.135   9.164  46.109  1.00  0.00    -0.242 NA
HETATM   14  C20 UNL     1      27.433   8.839  46.254  1.00  0.00     0.234 C 
HETATM   15  N4  UNL     1      28.423   8.293  47.094  1.00  0.00    -0.237 NA
HETATM   16  C21 UNL     1      28.344   7.420  48.014  1.00  0.00     0.208 C 
HETATM   17  N5  UNL     1      27.659   6.500  48.832  1.00  0.00    -0.350 N 
HETATM   18  H16 UNL     1      28.065   6.553  49.807  1.00  0.00     0.166 HD
ENDROOT
BRANCH   1  19
HETATM   19  N2  UNL     1      23.819   2.542  49.606  1.00  0.00    -0.309 N 
HETATM   20  C1  UNL     1      23.550   2.082  50.913  1.00  0.00     0.325 C 
HETATM   21  O1  UNL     1      24.205   2.611  51.819  1.00  0.00    -0.247 OA
HETATM   22  N1  UNL     1      22.615   1.093  51.237  1.00  0.00    -0.309 N 
HETATM   23  H1  UNL     1      22.124   0.723  50.371  1.00  0.00     0.170 HD
HETATM   24  H6  UNL     1      23.290   2.129  48.797  1.00  0.00     0.170 HD
BRANCH  22  25
HETATM   25  C2  UNL     1      22.255   0.546  52.493  1.00  0.00     0.039 A 
HETATM   26  C3  UNL     1      21.026   0.842  53.031  1.00  0.00     0.030 A 
HETATM   27  C4  UNL     1      20.607   0.352  54.237  1.00  0.00     0.005 A 
HETATM   28  C5  UNL     1      21.397  -0.464  54.979  1.00  0.00     0.042 A 
HETATM   29  C6  UNL     1      22.644  -0.794  54.484  1.00  0.00     0.118 A 
HETATM   30  F1  UNL     1      23.450  -1.608  55.205  1.00  0.00    -0.206 F 
HETATM   31  C7  UNL     1      23.019  -0.273  53.260  1.00  0.00     0.071 A 
ENDBRANCH  22  25
ENDBRANCH   1  19
TORSDOF 2
ENDMDL
MODEL 6
REMARK VINA RESULT:      -9.2      5.274      9.575
REMARK  2 active torsions:
REMARK  status: ('A' for Active; 'I' for Inactive)
REMARK       I    between atoms: C1_2  and  N1_3 
REMARK       I    between atoms: C1_2  and  N2_11 
REMARK    1  A    between atoms: N1_3  and  C2_4 
REMARK    2  A    between atoms: N2_11  and  C8_12 
ROOT
HETATM    1  C8  UNL     1      23.456   4.262  52.680  1.00  0.00     0.037 A 
HETATM    2  C9  UNL     1      24.532   3.562  53.137  1.00  0.00     0.032 A 
HETATM    3  C10 UNL     1      24.409   2.187  53.189  1.00  0.00     0.033 A 
HETATM    4  C11 UNL     1      23.262   1.526  52.803  1.00  0.00     0.044 A 
HETATM    5  C12 UNL     1      22.263   2.404  52.364  1.00  0.00     0.003 A 
HETATM    6  C13 UNL     1      22.246   3.752  52.259  1.00  0.00     0.044 A 
HETATM    7  C14 UNL     1      21.055   1.679  51.983  1.00  0.00    -0.021 A 
HETATM    8  C15 UNL     1      20.673   1.899  50.692  1.00  0.00     0.012 A 
HETATM    9  C16 UNL     1      19.598   1.067  50.346  1.00  0.00     0.003 A 
HETATM   10  C17 UNL     1      19.043   0.171  51.218  1.00  0.00     0.031 A 
HETATM   11  C18 UNL     1      19.544   0.070  52.486  1.00  0.00     0.059 A 
HETATM   12  C19 UNL     1      20.590   0.835  52.948  1.00  0.00     0.044 A 
HETATM   13  N3  UNL     1      19.292  -0.816  53.611  1.00  0.00    -0.242 NA
HETATM   14  C20 UNL     1      20.366  -1.509  54.030  1.00  0.00     0.234 C 
HETATM   15  N4  UNL     1      21.737  -1.779  53.849  1.00  0.00    -0.237 NA
HETATM   16  C21 UNL     1      22.675  -1.051  53.396  1.00  0.00     0.208 C 
HETATM   17  N5  UNL     1      23.210   0.136  52.858  1.00  0.00    -0.350 N 
HETATM   18  H16 UNL     1      23.933  -0.122  52.132  1.00  0.00     0.166 HD
ENDROOT
BRANCH   1  19
HETATM   19  N2  UNL     1      23.549   5.690  52.613  1.00  0.00    -0.309 N 
HETATM   20  C1  UNL     1      24.034   6.305  51.439  1.00  0.00     0.325 C 
HETATM   21  O1  UNL     1      24.354   5.542  50.520  1.00  0.00    -0.247 OA
HETATM   22  N1  UNL     1      24.171   7.685  51.257  1.00  0.00    -0.309 N 
HETATM   23  H1  UNL     1      23.863   8.224  52.119  1.00  0.00     0.170 HD
HETATM   24  H6  UNL     1      23.259   6.290  53.427  1.00  0.00     0.170 HD
BRANCH  22  25
HETATM   25  C2  UNL     1      24.641   8.422  50.142  1.00  0.00     0.039 A 
HETATM   26  C3  UNL     1      25.952   8.830  50.108  1.00  0.00     0.030 A 
HETATM   27  C4  UNL     1      26.479   9.543  49.067  1.00  0.00     0.005 A 
HETATM   28  C5  UNL     1      25.721   9.894  47.997  1.00  0.00     0.042 A 
HETATM   29  C6  UNL     1      24.394   9.509  47.982  1.00  0.00     0.118 A 
HETATM   30  F1  UNL     1      23.618   9.846  46.925  1.00  0.00    -0.206 F 
HETATM   31  C7  UNL     1      23.911   8.788  49.058  1.00  0.00     0.071 A 
ENDBRANCH  22  25
ENDBRANCH   1  19
TORSDOF 2
ENDMDL
MODEL 7
REMARK VINA RESULT:      -9.2      5.979      8.218
REMARK  2 active torsions:
REMARK  status: ('A' for Active; 'I' for Inactive)
REMARK       I    between atoms: C1_2  and  N1_3 
REMARK       I    between atoms: C1_2  and  N2_11 
REMARK    1  A    between atoms: N1_3  and  C2_4 
REMARK    2  A    between atoms: N2_11  and  C8_12 
ROOT
HETATM    1  C8  UNL     1      24.075   5.993  50.186  1.00  0.00     0.037 A 
HETATM    2  C9  UNL     1      23.190   6.578  49.330  1.00  0.00     0.032 A 
HETATM    3  C10 UNL     1      23.715   7.178  48.201  1.00  0.00     0.033 A 
HETATM    4  C11 UNL     1      25.066   7.201  47.928  1.00  0.00     0.044 A 
HETATM    5  C12 UNL     1      25.820   6.555  48.915  1.00  0.00     0.003 A 
HETATM    6  C13 UNL     1      25.447   5.930  50.055  1.00  0.00     0.044 A 
HETATM    7  C14 UNL     1      27.246   6.613  48.612  1.00  0.00    -0.021 A 
HETATM    8  C15 UNL     1      27.833   5.385  48.516  1.00  0.00     0.012 A 
HETATM    9  C16 UNL     1      29.161   5.505  48.081  1.00  0.00     0.003 A 
HETATM   10  C17 UNL     1      29.745   6.709  47.800  1.00  0.00     0.031 A 
HETATM   11  C18 UNL     1      29.017   7.858  47.947  1.00  0.00     0.059 A 
HETATM   12  C19 UNL     1      27.709   7.874  48.373  1.00  0.00     0.044 A 
HETATM   13  N3  UNL     1      29.259   9.259  47.646  1.00  0.00    -0.242 NA
HETATM   14  C20 UNL     1      28.383   9.807  46.785  1.00  0.00     0.234 C 
HETATM   15  N4  UNL     1      27.244   9.609  45.980  1.00  0.00    -0.237 NA
HETATM   16  C21 UNL     1      26.261   8.815  46.111  1.00  0.00     0.208 C 
HETATM   17  N5  UNL     1      25.528   7.803  46.762  1.00  0.00    -0.350 N 
HETATM   18  H16 UNL     1      25.110   7.167  46.027  1.00  0.00     0.166 HD
ENDROOT
BRANCH   1  19
HETATM   19  N2  UNL     1      23.566   5.361  51.367  1.00  0.00    -0.309 N 
HETATM   20  C1  UNL     1      23.550   3.953  51.455  1.00  0.00     0.325 C 
HETATM   21  O1  UNL     1      23.992   3.343  50.473  1.00  0.00    -0.247 OA
HETATM   22  N1  UNL     1      23.077   3.225  52.552  1.00  0.00    -0.309 N 
HETATM   23  H1  UNL     1      22.727   3.866  53.323  1.00  0.00     0.170 HD
HETATM   24  H6  UNL     1      23.205   5.932  52.173  1.00  0.00     0.170 HD
BRANCH  22  25
HETATM   25  C2  UNL     1      23.004   1.826  52.763  1.00  0.00     0.039 A 
HETATM   26  C3  UNL     1      21.803   1.181  52.596  1.00  0.00     0.030 A 
HETATM   27  C4  UNL     1      21.653  -0.166  52.780  1.00  0.00     0.005 A 
HETATM   28  C5  UNL     1      22.700  -0.948  53.147  1.00  0.00     0.042 A 
HETATM   29  C6  UNL     1      23.931  -0.349  53.330  1.00  0.00     0.118 A 
HETATM   30  F1  UNL     1      24.992  -1.107  53.694  1.00  0.00    -0.206 F 
HETATM   31  C7  UNL     1      24.029   1.016  53.129  1.00  0.00     0.071 A 
ENDBRANCH  22  25
ENDBRANCH   1  19
TORSDOF 2
ENDMDL
MODEL 8
REMARK VINA RESULT:      -9.1      5.341      9.293
REMARK  2 active torsions:
REMARK  status: ('A' for Active; 'I' for Inactive)
REMARK       I    between atoms: C1_2  and  N1_3 
REMARK       I    between atoms: C1_2  and  N2_11 
REMARK    1  A    between atoms: N1_3  and  C2_4 
REMARK    2  A    between atoms: N2_11  and  C8_12 
ROOT
HETATM    1  C8  UNL     1      23.044   2.225  51.821  1.00  0.00     0.037 A 
HETATM    2  C9  UNL     1      22.235   1.543  50.961  1.00  0.00     0.032 A 
HETATM    3  C10 UNL     1      21.614   2.279  49.970  1.00  0.00     0.033 A 
HETATM    4  C11 UNL     1      21.785   3.640  49.833  1.00  0.00     0.044 A 
HETATM    5  C12 UNL     1      22.646   4.169  50.803  1.00  0.00     0.003 A 
HETATM    6  C13 UNL     1      23.316   3.577  51.817  1.00  0.00     0.044 A 
HETATM    7  C14 UNL     1      22.791   5.613  50.647  1.00  0.00    -0.021 A 
HETATM    8  C15 UNL     1      24.082   6.013  50.460  1.00  0.00     0.012 A 
HETATM    9  C16 UNL     1      24.137   7.385  50.173  1.00  0.00     0.003 A 
HETATM   10  C17 UNL     1      23.021   8.173  50.099  1.00  0.00     0.031 A 
HETATM   11  C18 UNL     1      21.791   7.616  50.313  1.00  0.00     0.059 A 
HETATM   12  C19 UNL     1      21.605   6.286  50.609  1.00  0.00     0.044 A 
HETATM   13  N3  UNL     1      20.424   8.102  50.210  1.00  0.00    -0.242 NA
HETATM   14  C20 UNL     1      19.653   7.423  49.341  1.00  0.00     0.234 C 
HETATM   15  N4  UNL     1      19.576   6.367  48.411  1.00  0.00    -0.237 NA
HETATM   16  C21 UNL     1      20.207   5.267  48.349  1.00  0.00     0.208 C 
HETATM   17  N5  UNL     1      21.148   4.319  48.798  1.00  0.00    -0.350 N 
HETATM   18  H16 UNL     1      21.626   3.896  47.955  1.00  0.00     0.166 HD
ENDROOT
BRANCH   1  19
HETATM   19  N2  UNL     1      23.704   1.494  52.861  1.00  0.00    -0.309 N 
HETATM   20  C1  UNL     1      25.059   1.132  52.710  1.00  0.00     0.325 C 
HETATM   21  O1  UNL     1      25.600   1.485  51.655  1.00  0.00    -0.247 OA
HETATM   22  N1  UNL     1      25.807   0.419  53.653  1.00  0.00    -0.309 N 
HETATM   23  H1  UNL     1      25.226   0.179  54.510  1.00  0.00     0.170 HD
HETATM   24  H6  UNL     1      23.193   1.223  53.739  1.00  0.00     0.170 HD
BRANCH  22  25
HETATM   25  C2  UNL     1      27.159  -0.004  53.624  1.00  0.00     0.039 A 
HETATM   26  C3  UNL     1      28.152   0.885  53.956  1.00  0.00     0.030 A 
HETATM   27  C4  UNL     1      29.478   0.551  53.952  1.00  0.00     0.005 A 
HETATM   28  C5  UNL     1      29.889  -0.697  53.611  1.00  0.00     0.042 A 
HETATM   29  C6  UNL     1      28.931  -1.630  53.268  1.00  0.00     0.118 A 
HETATM   30  F1  UNL     1      29.316  -2.882  52.927  1.00  0.00    -0.206 F 
HETATM   31  C7  UNL     1      27.604  -1.242  53.290  1.00  0.00     0.071 A 
ENDBRANCH  22  25
ENDBRANCH   1  19
TORSDOF 2
ENDMDL
MODEL 9
REMARK VINA RESULT:      -9.0     10.485     14.868
REMARK  2 active torsions:
REMARK  status: ('A' for Active; 'I' for Inactive)
REMARK       I    between atoms: C1_2  and  N1_3 
REMARK       I    between atoms: C1_2  and  N2_11 
REMARK    1  A    between atoms: N1_3  and  C2_4 
REMARK    2  A    between atoms: N2_11  and  C8_12 
ROOT
HETATM    1  C8  UNL     1      31.684   6.179  47.500  1.00  0.00     0.037 A 
HETATM    2  C9  UNL     1      32.210   7.261  48.139  1.00  0.00     0.032 A 
HETATM    3  C10 UNL     1      31.327   8.072  48.827  1.00  0.00     0.033 A 
HETATM    4  C11 UNL     1      29.972   7.822  48.880  1.00  0.00     0.044 A 
HETATM    5  C12 UNL     1      29.614   6.672  48.167  1.00  0.00     0.003 A 
HETATM    6  C13 UNL     1      30.360   5.794  47.459  1.00  0.00     0.044 A 
HETATM    7  C14 UNL     1      28.173   6.445  48.223  1.00  0.00    -0.021 A 
HETATM    8  C15 UNL     1      27.833   5.232  48.748  1.00  0.00     0.012 A 
HETATM    9  C16 UNL     1      26.444   5.136  48.909  1.00  0.00     0.003 A 
HETATM   10  C17 UNL     1      25.586   6.146  48.573  1.00  0.00     0.031 A 
HETATM   11  C18 UNL     1      26.087   7.308  48.054  1.00  0.00     0.059 A 
HETATM   12  C19 UNL     1      27.429   7.523  47.842  1.00  0.00     0.044 A 
HETATM   13  N3  UNL     1      25.510   8.595  47.700  1.00  0.00    -0.242 NA
HETATM   14  C20 UNL     1      26.034   9.644  48.359  1.00  0.00     0.234 C 
HETATM   15  N4  UNL     1      26.968  10.085  49.317  1.00  0.00    -0.237 NA
HETATM   16  C21 UNL     1      28.090   9.604  49.667  1.00  0.00     0.208 C 
HETATM   17  N5  UNL     1      29.140   8.666  49.610  1.00  0.00    -0.350 N 
HETATM   18  H16 UNL     1      29.489   8.495  50.593  1.00  0.00     0.166 HD
ENDROOT
BRANCH   1  19
HETATM   19  N2  UNL     1      32.570   5.316  46.776  1.00  0.00    -0.309 N 
HETATM   20  C1  UNL     1      32.868   5.593  45.425  1.00  0.00     0.325 C 
HETATM   21  O1  UNL     1      32.324   6.595  44.945  1.00  0.00    -0.247 OA
HETATM   22  N1  UNL     1      33.714   4.826  44.618  1.00  0.00    -0.309 N 
HETATM   23  H1  UNL     1      34.114   3.997  45.150  1.00  0.00     0.170 HD
HETATM   24  H6  UNL     1      33.006   4.478  47.238  1.00  0.00     0.170 HD
BRANCH  22  25
HETATM   25  C2  UNL     1      34.090   4.992  43.262  1.00  0.00     0.039 A 
HETATM   26  C3  UNL     1      35.081   5.887  42.942  1.00  0.00     0.030 A 
HETATM   27  C4  UNL     1      35.499   6.101  41.658  1.00  0.00     0.005 A 
HETATM   28  C5  UNL     1      34.946   5.431  40.615  1.00  0.00     0.042 A 
HETATM   29  C6  UNL     1      33.944   4.519  40.882  1.00  0.00     0.118 A 
HETATM   30  F1  UNL     1      33.377   3.837  39.859  1.00  0.00    -0.206 F 
HETATM   31  C7  UNL     1      33.559   4.339  42.198  1.00  0.00     0.071 A 
ENDBRANCH  22  25
ENDBRANCH   1  19
TORSDOF 2
ENDMDL
