MODEL 1
REMARK VINA RESULT:      -9.1      0.000      0.000
REMARK  5 active torsions:
REMARK  status: ('A' for Active; 'I' for Inactive)
REMARK    1  A    between atoms: N1_2  and  C3_4 
REMARK    2  A    between atoms: C3_4  and  C4_5 
REMARK    3  A    between atoms: C5_6  and  C6_7 
REMARK       I    between atoms: C6_7  and  N2_9 
REMARK    4  A    between atoms: N2_9  and  C7_10 
REMARK    5  A    between atoms: C10_13  and  N3_14 
ROOT
HETATM    1  C7  UNL     1      25.534   2.915  50.005  1.00  0.00     0.131 A 
HETATM    2  C8  UNL     1      25.759   2.069  51.065  1.00  0.00     0.066 A 
HETATM    3  C9  UNL     1      24.747   1.459  51.791  1.00  0.00     0.026 A 
HETATM    4  C10 UNL     1      25.070   0.616  52.849  1.00  0.00     0.065 A 
HETATM    5  C18 UNL     1      24.038   0.021  53.557  1.00  0.00     0.089 A 
HETATM    6  C19 UNL     1      24.296  -0.873  54.683  1.00  0.00     0.103 C 
HETATM    7  N4  UNL     1      24.519  -1.583  55.588  1.00  0.00    -0.191 NA
HETATM    8  C20 UNL     1      22.732   0.298  53.174  1.00  0.00     0.142 A 
HETATM    9  N5  UNL     1      22.432   1.118  52.142  1.00  0.00    -0.257 NA
HETATM   10  C21 UNL     1      23.421   1.707  51.439  1.00  0.00     0.086 A 
HETATM   11  C22 UNL     1      23.234   2.562  50.372  1.00  0.00     0.151 A 
HETATM   12  N6  UNL     1      24.245   3.131  49.696  1.00  0.00    -0.241 NA
ENDROOT
BRANCH   4  13
HETATM   13  N3  UNL     1      26.440   0.352  53.213  1.00  0.00    -0.375 N 
HETATM   14  C11 UNL     1      27.018   1.064  54.333  1.00  0.00     0.150 C 
HETATM   15  C12 UNL     1      28.404   1.468  53.898  1.00  0.00    -0.007 C 
HETATM   16  C13 UNL     1      29.528   0.839  53.574  1.00  0.00    -0.003 C 
HETATM   17  C14 UNL     1      29.857  -0.602  53.516  1.00  0.00    -0.004 C 
HETATM   18  C15 UNL     1      29.074  -1.672  53.284  1.00  0.00    -0.025 C 
HETATM   19  C16 UNL     1      27.606  -1.859  53.000  1.00  0.00     0.047 C 
HETATM   20  C17 UNL     1      27.010  -0.648  52.317  1.00  0.00     0.127 C 
ENDBRANCH   4  13
BRANCH   1  21
HETATM   21  N2  UNL     1      26.600   3.525  49.290  1.00  0.00    -0.308 N 
HETATM   22  C6  UNL     1      26.820   4.914  49.215  1.00  0.00     0.246 C 
HETATM   23  O1  UNL     1      25.957   5.558  49.856  1.00  0.00    -0.268 OA
HETATM   24  H11 UNL     1      27.272   2.876  48.784  1.00  0.00     0.170 HD
BRANCH  22  25
HETATM   25  C5  UNL     1      27.932   5.459  48.467  1.00  0.00     0.072 C 
HETATM   26  C4  UNL     1      27.993   6.682  47.993  1.00  0.00     0.008 C 
BRANCH  26  27
HETATM   27  C3  UNL     1      27.086   7.839  48.020  1.00  0.00     0.299 C 
BRANCH  27  28
HETATM   28  N1  UNL     1      27.597   8.919  48.842  1.00  0.00     0.083 N 
HETATM   29  C1  UNL     1      27.045   8.915  50.166  1.00  0.00     0.309 C 
HETATM   30  C2  UNL     1      29.035   8.910  48.904  1.00  0.00     0.309 C 
ENDBRANCH  27  28
ENDBRANCH  26  27
ENDBRANCH  22  25
ENDBRANCH   1  21
TORSDOF 5
ENDMDL
MODEL 2
REMARK VINA RESULT:      -8.8      1.320      2.054
REMARK  5 active torsions:
REMARK  status: ('A' for Active; 'I' for Inactive)
REMARK    1  A    between atoms: N1_2  and  C3_4 
REMARK    2  A    between atoms: C3_4  and  C4_5 
REMARK    3  A    between atoms: C5_6  and  C6_7 
REMARK       I    between atoms: C6_7  and  N2_9 
REMARK    4  A    between atoms: N2_9  and  C7_10 
REMARK    5  A    between atoms: C10_13  and  N3_14 
ROOT
HETATM    1  C7  UNL     1      24.530   3.343  50.100  1.00  0.00     0.131 A 
HETATM    2  C8  UNL     1      24.963   2.448  51.049  1.00  0.00     0.066 A 
HETATM    3  C9  UNL     1      24.110   1.720  51.866  1.00  0.00     0.026 A 
HETATM    4  C10 UNL     1      24.639   0.834  52.799  1.00  0.00     0.065 A 
HETATM    5  C18 UNL     1      23.763   0.121  53.602  1.00  0.00     0.089 A 
HETATM    6  C19 UNL     1      24.242  -0.825  54.607  1.00  0.00     0.103 C 
HETATM    7  N4  UNL     1      24.641  -1.575  55.414  1.00  0.00    -0.191 NA
HETATM    8  C20 UNL     1      22.400   0.328  53.435  1.00  0.00     0.142 A 
HETATM    9  N5  UNL     1      21.899   1.192  52.523  1.00  0.00    -0.257 NA
HETATM   10  C21 UNL     1      22.734   1.895  51.731  1.00  0.00     0.086 A 
HETATM   11  C22 UNL     1      22.337   2.802  50.770  1.00  0.00     0.151 A 
HETATM   12  N6  UNL     1      23.199   3.487  49.999  1.00  0.00    -0.241 NA
ENDROOT
BRANCH   4  13
HETATM   13  N3  UNL     1      26.062   0.645  52.938  1.00  0.00    -0.375 N 
HETATM   14  C11 UNL     1      26.729  -0.312  52.082  1.00  0.00     0.150 C 
HETATM   15  C12 UNL     1      27.691  -1.063  52.967  1.00  0.00    -0.007 C 
HETATM   16  C13 UNL     1      28.778  -0.764  53.670  1.00  0.00    -0.003 C 
HETATM   17  C14 UNL     1      29.500   0.513  53.855  1.00  0.00    -0.004 C 
HETATM   18  C15 UNL     1      29.059   1.784  53.811  1.00  0.00    -0.025 C 
HETATM   19  C16 UNL     1      27.715   2.423  53.568  1.00  0.00     0.047 C 
HETATM   20  C17 UNL     1      26.580   1.515  53.987  1.00  0.00     0.127 C 
ENDBRANCH   4  13
BRANCH   1  21
HETATM   21  N2  UNL     1      25.437   4.074  49.287  1.00  0.00    -0.308 N 
HETATM   22  C6  UNL     1      25.827   5.407  49.523  1.00  0.00     0.246 C 
HETATM   23  O1  UNL     1      25.274   5.881  50.542  1.00  0.00    -0.268 OA
HETATM   24  H11 UNL     1      25.846   3.566  48.447  1.00  0.00     0.170 HD
BRANCH  22  25
HETATM   25  C5  UNL     1      26.760   6.083  48.647  1.00  0.00     0.072 C 
HETATM   26  C4  UNL     1      26.460   7.092  47.862  1.00  0.00     0.008 C 
BRANCH  26  27
HETATM   27  C3  UNL     1      25.227   7.845  47.586  1.00  0.00     0.299 C 
BRANCH  27  28
HETATM   28  N1  UNL     1      24.963   8.855  48.591  1.00  0.00     0.083 N 
HETATM   29  C1  UNL     1      25.112  10.189  48.086  1.00  0.00     0.309 C 
HETATM   30  C2  UNL     1      23.663   8.692  49.186  1.00  0.00     0.309 C 
ENDBRANCH  27  28
ENDBRANCH  26  27
ENDBRANCH  22  25
ENDBRANCH   1  21
TORSDOF 5
ENDMDL
MODEL 3
REMARK VINA RESULT:      -8.6      1.291      2.085
REMARK  5 active torsions:
REMARK  status: ('A' for Active; 'I' for Inactive)
REMARK    1  A    between atoms: N1_2  and  C3_4 
REMARK    2  A    between atoms: C3_4  and  C4_5 
REMARK    3  A    between atoms: C5_6  and  C6_7 
REMARK       I    between atoms: C6_7  and  N2_9 
REMARK    4  A    between atoms: N2_9  and  C7_10 
REMARK    5  A    between atoms: C10_13  and  N3_14 
ROOT
HETATM    1  C7  UNL     1      26.162   4.032  49.603  1.00  0.00     0.131 A 
HETATM    2  C8  UNL     1      26.114   3.039  50.552  1.00  0.00     0.066 A 
HETATM    3  C9  UNL     1      24.934   2.559  51.103  1.00  0.00     0.026 A 
HETATM    4  C10 UNL     1      24.982   1.549  52.059  1.00  0.00     0.065 A 
HETATM    5  C18 UNL     1      23.789   1.090  52.594  1.00  0.00     0.089 A 
HETATM    6  C19 UNL     1      23.757   0.035  53.604  1.00  0.00     0.103 C 
HETATM    7  N4  UNL     1      23.748  -0.807  54.418  1.00  0.00    -0.191 NA
HETATM    8  C20 UNL     1      22.605   1.663  52.148  1.00  0.00     0.142 A 
HETATM    9  N5  UNL     1      22.573   2.643  51.217  1.00  0.00    -0.257 NA
HETATM   10  C21 UNL     1      23.722   3.104  50.684  1.00  0.00     0.086 A 
HETATM   11  C22 UNL     1      23.811   4.099  49.732  1.00  0.00     0.151 A 
HETATM   12  N6  UNL     1      24.975   4.534  49.224  1.00  0.00    -0.241 NA
ENDROOT
BRANCH   4  13
HETATM   13  N3  UNL     1      26.234   0.978  52.492  1.00  0.00    -0.375 N 
HETATM   14  C11 UNL     1      26.758  -0.174  51.789  1.00  0.00     0.150 C 
HETATM   15  C12 UNL     1      27.268  -1.113  52.853  1.00  0.00    -0.007 C 
HETATM   16  C13 UNL     1      28.230  -1.092  53.769  1.00  0.00    -0.003 C 
HETATM   17  C14 UNL     1      29.233  -0.059  54.106  1.00  0.00    -0.004 C 
HETATM   18  C15 UNL     1      29.191   1.280  53.975  1.00  0.00    -0.025 C 
HETATM   19  C16 UNL     1      28.163   2.255  53.460  1.00  0.00     0.047 C 
HETATM   20  C17 UNL     1      26.757   1.725  53.629  1.00  0.00     0.127 C 
ENDBRANCH   4  13
BRANCH   1  21
HETATM   21  N2  UNL     1      27.391   4.500  49.066  1.00  0.00    -0.308 N 
HETATM   22  C6  UNL     1      27.579   5.769  48.485  1.00  0.00     0.246 C 
HETATM   23  O1  UNL     1      26.524   6.445  48.493  1.00  0.00    -0.268 OA
HETATM   24  H11 UNL     1      28.221   3.836  49.116  1.00  0.00     0.170 HD
BRANCH  22  25
HETATM   25  C5  UNL     1      28.866   6.173  47.962  1.00  0.00     0.072 C 
HETATM   26  C4  UNL     1      29.397   7.365  48.109  1.00  0.00     0.008 C 
BRANCH  26  27
HETATM   27  C3  UNL     1      28.965   8.606  48.769  1.00  0.00     0.299 C 
BRANCH  27  28
HETATM   28  N1  UNL     1      29.548   9.785  48.157  1.00  0.00     0.083 N 
HETATM   29  C1  UNL     1      30.152  10.664  49.116  1.00  0.00     0.309 C 
HETATM   30  C2  UNL     1      30.498   9.442  47.131  1.00  0.00     0.309 C 
ENDBRANCH  27  28
ENDBRANCH  26  27
ENDBRANCH  22  25
ENDBRANCH   1  21
TORSDOF 5
ENDMDL
MODEL 4
REMARK VINA RESULT:      -8.5      2.273      7.314
REMARK  5 active torsions:
REMARK  status: ('A' for Active; 'I' for Inactive)
REMARK    1  A    between atoms: N1_2  and  C3_4 
REMARK    2  A    between atoms: C3_4  and  C4_5 
REMARK    3  A    between atoms: C5_6  and  C6_7 
REMARK       I    between atoms: C6_7  and  N2_9 
REMARK    4  A    between atoms: N2_9  and  C7_10 
REMARK    5  A    between atoms: C10_13  and  N3_14 
ROOT
HETATM    1  C7  UNL     1      24.872   2.365  52.954  1.00  0.00     0.131 A 
HETATM    2  C8  UNL     1      24.489   3.339  52.063  1.00  0.00     0.066 A 
HETATM    3  C9  UNL     1      23.253   3.361  51.432  1.00  0.00     0.026 A 
HETATM    4  C10 UNL     1      22.951   4.388  50.544  1.00  0.00     0.065 A 
HETATM    5  C18 UNL     1      21.710   4.384  49.928  1.00  0.00     0.089 A 
HETATM    6  C19 UNL     1      21.321   5.426  48.981  1.00  0.00     0.103 C 
HETATM    7  N4  UNL     1      21.025   6.265  48.218  1.00  0.00    -0.191 NA
HETATM    8  C20 UNL     1      20.830   3.352  50.228  1.00  0.00     0.142 A 
HETATM    9  N5  UNL     1      21.136   2.360  51.095  1.00  0.00    -0.257 NA
HETATM   10  C21 UNL     1      22.338   2.345  51.706  1.00  0.00     0.086 A 
HETATM   11  C22 UNL     1      22.759   1.386  52.603  1.00  0.00     0.151 A 
HETATM   12  N6  UNL     1      23.966   1.404  53.192  1.00  0.00    -0.241 NA
ENDROOT
BRANCH   4  13
HETATM   13  N3  UNL     1      23.893   5.444  50.262  1.00  0.00    -0.375 N 
HETATM   14  C11 UNL     1      23.964   6.577  51.160  1.00  0.00     0.150 C 
HETATM   15  C12 UNL     1      24.068   7.798  50.280  1.00  0.00    -0.007 C 
HETATM   16  C13 UNL     1      24.953   8.283  49.417  1.00  0.00    -0.003 C 
HETATM   17  C14 UNL     1      26.263   7.764  48.966  1.00  0.00    -0.004 C 
HETATM   18  C15 UNL     1      26.724   6.501  48.882  1.00  0.00    -0.025 C 
HETATM   19  C16 UNL     1      26.142   5.146  49.192  1.00  0.00     0.047 C 
HETATM   20  C17 UNL     1      24.636   5.138  49.046  1.00  0.00     0.127 C 
ENDBRANCH   4  13
BRANCH   1  21
HETATM   21  N2  UNL     1      26.150   2.376  53.575  1.00  0.00    -0.308 N 
HETATM   22  C6  UNL     1      27.375   2.308  52.883  1.00  0.00     0.246 C 
HETATM   23  O1  UNL     1      27.208   2.235  51.644  1.00  0.00    -0.268 OA
HETATM   24  H11 UNL     1      26.168   2.443  54.636  1.00  0.00     0.170 HD
BRANCH  22  25
HETATM   25  C5  UNL     1      28.638   2.327  53.590  1.00  0.00     0.072 C 
HETATM   26  C4  UNL     1      29.146   1.311  54.250  1.00  0.00     0.008 C 
BRANCH  26  27
HETATM   27  C3  UNL     1      28.705  -0.067  54.509  1.00  0.00     0.299 C 
BRANCH  27  28
HETATM   28  N1  UNL     1      28.645  -0.862  53.298  1.00  0.00     0.083 N 
HETATM   29  C1  UNL     1      29.479  -2.027  53.359  1.00  0.00     0.309 C 
HETATM   30  C2  UNL     1      27.294  -1.236  52.969  1.00  0.00     0.309 C 
ENDBRANCH  27  28
ENDBRANCH  26  27
ENDBRANCH  22  25
ENDBRANCH   1  21
TORSDOF 5
ENDMDL
MODEL 5
REMARK VINA RESULT:      -8.4      2.303      5.287
REMARK  5 active torsions:
REMARK  status: ('A' for Active; 'I' for Inactive)
REMARK    1  A    between atoms: N1_2  and  C3_4 
REMARK    2  A    between atoms: C3_4  and  C4_5 
REMARK    3  A    between atoms: C5_6  and  C6_7 
REMARK       I    between atoms: C6_7  and  N2_9 
REMARK    4  A    between atoms: N2_9  and  C7_10 
REMARK    5  A    between atoms: C10_13  and  N3_14 
ROOT
HETATM    1  C7  UNL     1      25.902   2.601  51.859  1.00  0.00     0.131 A 
HETATM    2  C8  UNL     1      24.569   2.265  51.869  1.00  0.00     0.066 A 
HETATM    3  C9  UNL     1      24.041   1.234  52.632  1.00  0.00     0.026 A 
HETATM    4  C10 UNL     1      22.677   0.967  52.579  1.00  0.00     0.065 A 
HETATM    5  C18 UNL     1      22.178  -0.070  53.352  1.00  0.00     0.089 A 
HETATM    6  C19 UNL     1      20.758  -0.415  53.348  1.00  0.00     0.103 C 
HETATM    7  N4  UNL     1      19.618  -0.684  53.329  1.00  0.00    -0.191 NA
HETATM    8  C20 UNL     1      23.066  -0.790  54.140  1.00  0.00     0.142 A 
HETATM    9  N5  UNL     1      24.390  -0.518  54.184  1.00  0.00    -0.257 NA
HETATM   10  C21 UNL     1      24.897   0.486  53.440  1.00  0.00     0.086 A 
HETATM   11  C22 UNL     1      26.226   0.852  53.403  1.00  0.00     0.151 A 
HETATM   12  N6  UNL     1      26.695   1.859  52.648  1.00  0.00    -0.241 NA
ENDROOT
BRANCH   4  13
HETATM   13  N3  UNL     1      21.787   1.741  51.750  1.00  0.00    -0.375 N 
HETATM   14  C11 UNL     1      21.244   2.978  52.270  1.00  0.00     0.150 C 
HETATM   15  C12 UNL     1      19.790   2.993  51.873  1.00  0.00    -0.007 C 
HETATM   16  C13 UNL     1      19.108   3.040  50.734  1.00  0.00    -0.003 C 
HETATM   17  C14 UNL     1      19.561   3.102  49.328  1.00  0.00    -0.004 C 
HETATM   18  C15 UNL     1      20.689   2.649  48.749  1.00  0.00    -0.025 C 
HETATM   19  C16 UNL     1      21.911   1.924  49.251  1.00  0.00     0.047 C 
HETATM   20  C17 UNL     1      21.598   1.077  50.465  1.00  0.00     0.127 C 
ENDBRANCH   4  13
BRANCH   1  21
HETATM   21  N2  UNL     1      26.404   3.662  51.058  1.00  0.00    -0.308 N 
HETATM   22  C6  UNL     1      26.704   3.554  49.686  1.00  0.00     0.246 C 
HETATM   23  O1  UNL     1      26.477   2.402  49.248  1.00  0.00    -0.268 OA
HETATM   24  H11 UNL     1      26.556   4.597  51.539  1.00  0.00     0.170 HD
BRANCH  22  25
HETATM   25  C5  UNL     1      27.211   4.683  48.937  1.00  0.00     0.072 C 
HETATM   26  C4  UNL     1      26.539   5.785  48.689  1.00  0.00     0.008 C 
BRANCH  26  27
HETATM   27  C3  UNL     1      25.187   6.258  49.021  1.00  0.00     0.299 C 
BRANCH  27  28
HETATM   28  N1  UNL     1      25.147   6.960  50.288  1.00  0.00     0.083 N 
HETATM   29  C1  UNL     1      24.999   8.378  50.130  1.00  0.00     0.309 C 
HETATM   30  C2  UNL     1      24.116   6.448  51.153  1.00  0.00     0.309 C 
ENDBRANCH  27  28
ENDBRANCH  26  27
ENDBRANCH  22  25
ENDBRANCH   1  21
TORSDOF 5
ENDMDL
MODEL 6
REMARK VINA RESULT:      -8.4      2.099      4.935
REMARK  5 active torsions:
REMARK  status: ('A' for Active; 'I' for Inactive)
REMARK    1  A    between atoms: N1_2  and  C3_4 
REMARK    2  A    between atoms: C3_4  and  C4_5 
REMARK    3  A    between atoms: C5_6  and  C6_7 
REMARK       I    between atoms: C6_7  and  N2_9 
REMARK    4  A    between atoms: N2_9  and  C7_10 
REMARK    5  A    between atoms: C10_13  and  N3_14 
ROOT
HETATM    1  C7  UNL     1      25.679   3.097  50.425  1.00  0.00     0.131 A 
HETATM    2  C8  UNL     1      24.560   2.476  50.928  1.00  0.00     0.066 A 
HETATM    3  C9  UNL     1      24.598   1.514  51.926  1.00  0.00     0.026 A 
HETATM    4  C10 UNL     1      23.412   0.940  52.374  1.00  0.00     0.065 A 
HETATM    5  C18 UNL     1      23.479  -0.019  53.372  1.00  0.00     0.089 A 
HETATM    6  C19 UNL     1      22.280  -0.670  53.892  1.00  0.00     0.103 C 
HETATM    7  N4  UNL     1      21.309  -1.188  54.295  1.00  0.00    -0.191 NA
HETATM    8  C20 UNL     1      24.729  -0.359  53.874  1.00  0.00     0.142 A 
HETATM    9  N5  UNL     1      25.874   0.207  53.431  1.00  0.00    -0.257 NA
HETATM   10  C21 UNL     1      25.831   1.143  52.461  1.00  0.00     0.086 A 
HETATM   11  C22 UNL     1      26.930   1.786  51.930  1.00  0.00     0.151 A 
HETATM   12  N6  UNL     1      26.849   2.714  50.963  1.00  0.00    -0.241 NA
ENDROOT
BRANCH   4  13
HETATM   13  N3  UNL     1      22.134   1.325  51.829  1.00  0.00    -0.375 N 
HETATM   14  C11 UNL     1      21.465   2.491  52.366  1.00  0.00     0.150 C 
HETATM   15  C12 UNL     1      20.013   2.110  52.504  1.00  0.00    -0.007 C 
HETATM   16  C13 UNL     1      19.025   1.785  51.678  1.00  0.00    -0.003 C 
HETATM   17  C14 UNL     1      18.984   1.668  50.205  1.00  0.00    -0.004 C 
HETATM   18  C15 UNL     1      19.954   1.368  49.322  1.00  0.00    -0.025 C 
HETATM   19  C16 UNL     1      21.421   1.039  49.441  1.00  0.00     0.047 C 
HETATM   20  C17 UNL     1      21.743   0.398  50.773  1.00  0.00     0.127 C 
ENDBRANCH   4  13
BRANCH   1  21
HETATM   21  N2  UNL     1      25.599   4.074  49.397  1.00  0.00    -0.308 N 
HETATM   22  C6  UNL     1      25.202   5.411  49.594  1.00  0.00     0.246 C 
HETATM   23  O1  UNL     1      24.921   5.642  50.793  1.00  0.00    -0.268 OA
HETATM   24  H11 UNL     1      25.863   3.762  48.415  1.00  0.00     0.170 HD
BRANCH  22  25
HETATM   25  C5  UNL     1      25.148   6.348  48.493  1.00  0.00     0.072 C 
HETATM   26  C4  UNL     1      26.128   7.146  48.136  1.00  0.00     0.008 C 
BRANCH  26  27
HETATM   27  C3  UNL     1      27.490   7.385  48.636  1.00  0.00     0.299 C 
BRANCH  27  28
HETATM   28  N1  UNL     1      28.496   6.730  47.823  1.00  0.00     0.083 N 
HETATM   29  C1  UNL     1      29.701   7.500  47.707  1.00  0.00     0.309 C 
HETATM   30  C2  UNL     1      28.798   5.408  48.306  1.00  0.00     0.309 C 
ENDBRANCH  27  28
ENDBRANCH  26  27
ENDBRANCH  22  25
ENDBRANCH   1  21
TORSDOF 5
ENDMDL
MODEL 7
REMARK VINA RESULT:      -8.4      1.954      3.256
REMARK  5 active torsions:
REMARK  status: ('A' for Active; 'I' for Inactive)
REMARK    1  A    between atoms: N1_2  and  C3_4 
REMARK    2  A    between atoms: C3_4  and  C4_5 
REMARK    3  A    between atoms: C5_6  and  C6_7 
REMARK       I    between atoms: C6_7  and  N2_9 
REMARK    4  A    between atoms: N2_9  and  C7_10 
REMARK    5  A    between atoms: C10_13  and  N3_14 
ROOT
HETATM    1  C7  UNL     1      22.314   2.330  50.764  1.00  0.00     0.131 A 
HETATM    2  C8  UNL     1      23.173   1.678  51.616  1.00  0.00     0.066 A 
HETATM    3  C9  UNL     1      22.754   0.851  52.647  1.00  0.00     0.026 A 
HETATM    4  C10 UNL     1      23.697   0.231  53.460  1.00  0.00     0.065 A 
HETATM    5  C18 UNL     1      23.249  -0.589  54.483  1.00  0.00     0.089 A 
HETATM    6  C19 UNL     1      24.178  -1.272  55.381  1.00  0.00     0.103 C 
HETATM    7  N4  UNL     1      24.935  -1.808  56.097  1.00  0.00    -0.191 NA
HETATM    8  C20 UNL     1      21.879  -0.749  54.646  1.00  0.00     0.142 A 
HETATM    9  N5  UNL     1      20.973  -0.142  53.848  1.00  0.00    -0.257 NA
HETATM   10  C21 UNL     1      21.387   0.660  52.846  1.00  0.00     0.086 A 
HETATM   11  C22 UNL     1      20.556   1.331  51.973  1.00  0.00     0.151 A 
HETATM   12  N6  UNL     1      21.005   2.123  50.986  1.00  0.00    -0.241 NA
ENDROOT
BRANCH   4  13
HETATM   13  N3  UNL     1      25.112   0.421  53.255  1.00  0.00    -0.375 N 
HETATM   14  C11 UNL     1      25.788  -0.377  52.254  1.00  0.00     0.150 C 
HETATM   15  C12 UNL     1      27.092  -0.808  52.877  1.00  0.00    -0.007 C 
HETATM   16  C13 UNL     1      28.195  -0.204  53.304  1.00  0.00    -0.003 C 
HETATM   17  C14 UNL     1      28.580   1.224  53.326  1.00  0.00    -0.004 C 
HETATM   18  C15 UNL     1      27.824   2.335  53.401  1.00  0.00    -0.025 C 
HETATM   19  C16 UNL     1      26.342   2.594  53.491  1.00  0.00     0.047 C 
HETATM   20  C17 UNL     1      25.613   1.449  54.159  1.00  0.00     0.127 C 
ENDBRANCH   4  13
BRANCH   1  21
HETATM   21  N2  UNL     1      22.784   3.174  49.722  1.00  0.00    -0.308 N 
HETATM   22  C6  UNL     1      22.862   4.578  49.805  1.00  0.00     0.246 C 
HETATM   23  O1  UNL     1      22.462   5.003  50.913  1.00  0.00    -0.268 OA
HETATM   24  H11 UNL     1      23.099   2.699  48.824  1.00  0.00     0.170 HD
BRANCH  22  25
HETATM   25  C5  UNL     1      23.356   5.369  48.698  1.00  0.00     0.072 C 
HETATM   26  C4  UNL     1      24.593   5.789  48.567  1.00  0.00     0.008 C 
BRANCH  26  27
HETATM   27  C3  UNL     1      25.814   5.652  49.375  1.00  0.00     0.299 C 
BRANCH  27  28
HETATM   28  N1  UNL     1      26.643   4.548  48.935  1.00  0.00     0.083 N 
HETATM   29  C1  UNL     1      27.979   4.955  48.610  1.00  0.00     0.309 C 
HETATM   30  C2  UNL     1      26.670   3.480  49.900  1.00  0.00     0.309 C 
ENDBRANCH  27  28
ENDBRANCH  26  27
ENDBRANCH  22  25
ENDBRANCH   1  21
TORSDOF 5
ENDMDL
MODEL 8
REMARK VINA RESULT:      -8.3      3.935      7.422
REMARK  5 active torsions:
REMARK  status: ('A' for Active; 'I' for Inactive)
REMARK    1  A    between atoms: N1_2  and  C3_4 
REMARK    2  A    between atoms: C3_4  and  C4_5 
REMARK    3  A    between atoms: C5_6  and  C6_7 
REMARK       I    between atoms: C6_7  and  N2_9 
REMARK    4  A    between atoms: N2_9  and  C7_10 
REMARK    5  A    between atoms: C10_13  and  N3_14 
ROOT
HETATM    1  C7  UNL     1      23.805   0.315  52.857  1.00  0.00     0.131 A 
HETATM    2  C8  UNL     1      22.789   0.745  52.037  1.00  0.00     0.066 A 
HETATM    3  C9  UNL     1      21.456   0.406  52.222  1.00  0.00     0.026 A 
HETATM    4  C10 UNL     1      20.495   0.890  51.341  1.00  0.00     0.065 A 
HETATM    5  C18 UNL     1      19.171   0.534  51.548  1.00  0.00     0.089 A 
HETATM    6  C19 UNL     1      18.105   0.998  50.665  1.00  0.00     0.103 C 
HETATM    7  N4  UNL     1      17.261   1.373  49.944  1.00  0.00    -0.191 NA
HETATM    8  C20 UNL     1      18.873  -0.289  52.626  1.00  0.00     0.142 A 
HETATM    9  N5  UNL     1      19.818  -0.752  53.476  1.00  0.00    -0.257 NA
HETATM   10  C21 UNL     1      21.111  -0.417  53.293  1.00  0.00     0.086 A 
HETATM   11  C22 UNL     1      22.157  -0.830  54.092  1.00  0.00     0.151 A 
HETATM   12  N6  UNL     1      23.435  -0.477  53.877  1.00  0.00    -0.241 NA
ENDROOT
BRANCH   4  13
HETATM   13  N3  UNL     1      20.846   1.746  50.235  1.00  0.00    -0.375 N 
HETATM   14  C11 UNL     1      21.118   1.149  48.945  1.00  0.00     0.150 C 
HETATM   15  C12 UNL     1      22.332   1.861  48.404  1.00  0.00    -0.007 C 
HETATM   16  C13 UNL     1      22.624   3.098  48.019  1.00  0.00    -0.003 C 
HETATM   17  C14 UNL     1      21.801   4.326  47.975  1.00  0.00    -0.004 C 
HETATM   18  C15 UNL     1      20.745   4.701  48.720  1.00  0.00    -0.025 C 
HETATM   19  C16 UNL     1      19.984   4.072  49.859  1.00  0.00     0.047 C 
HETATM   20  C17 UNL     1      20.859   3.139  50.667  1.00  0.00     0.127 C 
ENDBRANCH   4  13
BRANCH   1  21
HETATM   21  N2  UNL     1      25.159   0.680  52.631  1.00  0.00    -0.308 N 
HETATM   22  C6  UNL     1      25.738   1.897  53.041  1.00  0.00     0.246 C 
HETATM   23  O1  UNL     1      24.912   2.631  53.632  1.00  0.00    -0.268 OA
HETATM   24  H11 UNL     1      25.768  -0.025  52.118  1.00  0.00     0.170 HD
BRANCH  22  25
HETATM   25  C5  UNL     1      27.129   2.195  52.774  1.00  0.00     0.072 C 
HETATM   26  C4  UNL     1      28.148   1.666  53.412  1.00  0.00     0.008 C 
BRANCH  26  27
HETATM   27  C3  UNL     1      28.278   0.693  54.507  1.00  0.00     0.299 C 
BRANCH  27  28
HETATM   28  N1  UNL     1      28.890  -0.547  54.071  1.00  0.00     0.083 N 
HETATM   29  C1  UNL     1      28.058  -1.284  53.163  1.00  0.00     0.309 C 
HETATM   30  C2  UNL     1      30.188  -0.328  53.487  1.00  0.00     0.309 C 
ENDBRANCH  27  28
ENDBRANCH  26  27
ENDBRANCH  22  25
ENDBRANCH   1  21
TORSDOF 5
ENDMDL
MODEL 9
REMARK VINA RESULT:      -8.1      3.262      6.725
REMARK  5 active torsions:
REMARK  status: ('A' for Active; 'I' for Inactive)
REMARK    1  A    between atoms: N1_2  and  C3_4 
REMARK    2  A    between atoms: C3_4  and  C4_5 
REMARK    3  A    between atoms: C5_6  and  C6_7 
REMARK       I    between atoms: C6_7  and  N2_9 
REMARK    4  A    between atoms: N2_9  and  C7_10 
REMARK    5  A    between atoms: C10_13  and  N3_14 
ROOT
HETATM    1  C7  UNL     1      21.586  -0.097  52.757  1.00  0.00     0.131 A 
HETATM    2  C8  UNL     1      22.717   0.681  52.675  1.00  0.00     0.066 A 
HETATM    3  C9  UNL     1      23.875   0.431  53.396  1.00  0.00     0.026 A 
HETATM    4  C10 UNL     1      24.973   1.272  53.248  1.00  0.00     0.065 A 
HETATM    5  C18 UNL     1      26.117   1.000  53.982  1.00  0.00     0.089 A 
HETATM    6  C19 UNL     1      27.309   1.838  53.884  1.00  0.00     0.103 C 
HETATM    7  N4  UNL     1      28.255   2.524  53.800  1.00  0.00    -0.191 NA
HETATM    8  C20 UNL     1      26.108  -0.101  54.829  1.00  0.00     0.142 A 
HETATM    9  N5  UNL     1      25.034  -0.911  54.963  1.00  0.00    -0.257 NA
HETATM   10  C21 UNL     1      23.911  -0.665  54.258  1.00  0.00     0.086 A 
HETATM   11  C22 UNL     1      22.758  -1.419  54.314  1.00  0.00     0.151 A 
HETATM   12  N6  UNL     1      21.657  -1.142  53.597  1.00  0.00    -0.241 NA
ENDROOT
BRANCH   4  13
HETATM   13  N3  UNL     1      24.943   2.403  52.354  1.00  0.00    -0.375 N 
HETATM   14  C11 UNL     1      24.434   3.668  52.840  1.00  0.00     0.150 C 
HETATM   15  C12 UNL     1      23.565   4.218  51.738  1.00  0.00    -0.007 C 
HETATM   16  C13 UNL     1      23.751   4.643  50.494  1.00  0.00    -0.003 C 
HETATM   17  C14 UNL     1      24.974   4.741  49.669  1.00  0.00    -0.004 C 
HETATM   18  C15 UNL     1      26.112   4.022  49.699  1.00  0.00    -0.025 C 
HETATM   19  C16 UNL     1      26.608   2.872  50.537  1.00  0.00     0.047 C 
HETATM   20  C17 UNL     1      25.467   2.020  51.048  1.00  0.00     0.127 C 
ENDBRANCH   4  13
BRANCH   1  21
HETATM   21  N2  UNL     1      20.417   0.196  52.005  1.00  0.00    -0.308 N 
HETATM   22  C6  UNL     1      19.618   1.343  52.183  1.00  0.00     0.246 C 
HETATM   23  O1  UNL     1      20.060   2.082  53.092  1.00  0.00    -0.268 OA
HETATM   24  H11 UNL     1      20.138  -0.506  51.257  1.00  0.00     0.170 HD
BRANCH  22  25
HETATM   25  C5  UNL     1      18.441   1.571  51.373  1.00  0.00     0.072 C 
HETATM   26  C4  UNL     1      18.409   2.297  50.280  1.00  0.00     0.008 C 
BRANCH  26  27
HETATM   27  C3  UNL     1      19.412   3.070  49.532  1.00  0.00     0.299 C 
BRANCH  27  28
HETATM   28  N1  UNL     1      19.938   2.336  48.398  1.00  0.00     0.083 N 
HETATM   29  C1  UNL     1      20.142   3.168  47.248  1.00  0.00     0.309 C 
HETATM   30  C2  UNL     1      21.154   1.640  48.728  1.00  0.00     0.309 C 
ENDBRANCH  27  28
ENDBRANCH  26  27
ENDBRANCH  22  25
ENDBRANCH   1  21
TORSDOF 5
ENDMDL
