MODEL 1
REMARK VINA RESULT:      -8.2      0.000      0.000
REMARK  3 active torsions:
REMARK  status: ('A' for Active; 'I' for Inactive)
REMARK    1  A    between atoms: C8_11  and  C9_12 
REMARK    2  A    between atoms: C17_22  and  C18_24 
REMARK    3  A    between atoms: C18_24  and  C19_25 
ROOT
HETATM    1  C9  UNL     1      23.972   1.891  51.399  1.00  0.00     0.155 C 
HETATM    2  N3  UNL     1      22.771   1.165  51.545  1.00  0.00    -0.392 N 
HETATM    3  C10 UNL     1      21.892   0.917  52.505  1.00  0.00     0.168 C 
HETATM    4  C11 UNL     1      21.004  -0.300  52.105  1.00  0.00     0.055 C 
HETATM    5  N4  UNL     1      20.860   1.991  52.513  1.00  0.00    -0.392 N 
HETATM    6  C12 UNL     1      21.579   3.212  52.618  1.00  0.00     0.127 C 
HETATM    7  C13 UNL     1      22.065   4.319  52.070  1.00  0.00     0.001 C 
HETATM    8  C14 UNL     1      22.408   5.375  51.070  1.00  0.00     0.010 C 
HETATM    9  C15 UNL     1      22.566   4.842  49.884  1.00  0.00    -0.028 C 
HETATM   10  C16 UNL     1      22.799   3.556  49.884  1.00  0.00     0.013 C 
HETATM   11  C17 UNL     1      23.937   3.254  50.748  1.00  0.00     0.082 C 
HETATM   12 CL1  UNL     1      24.777   4.567  51.552  1.00  0.00    -0.112 Cl
HETATM   13  H13 UNL     1      22.240   1.047  50.603  1.00  0.00     0.155 HD
HETATM   14  H18 UNL     1      19.807   1.821  52.463  1.00  0.00     0.156 HD
ENDROOT
BRANCH   1  15
HETATM   15  C8  UNL     1      25.099   1.647  52.239  1.00  0.00     0.256 C 
HETATM   16  N2  UNL     1      25.336   0.794  53.317  1.00  0.00    -0.326 N 
HETATM   17  C6  UNL     1      26.522   1.122  54.120  1.00  0.00     0.241 C 
HETATM   18  C7  UNL     1      24.959  -0.228  54.196  1.00  0.00     0.155 C 
HETATM   19  C5  UNL     1      27.625   0.289  54.784  1.00  0.00     0.251 C 
HETATM   20  O1  UNL     1      26.550   2.388  54.224  1.00  0.00    -0.271 OA
HETATM   21  N1  UNL     1      28.642   1.425  54.940  1.00  0.00    -0.292 NA
HETATM   22  C4  UNL     1      28.685   2.135  53.765  1.00  0.00     0.113 C 
HETATM   23  C3  UNL     1      27.792   1.606  52.694  1.00  0.00     0.050 C 
HETATM   24  C2  UNL     1      27.129   0.557  52.208  1.00  0.00     0.046 C 
HETATM   25  C1  UNL     1      26.523  -0.707  51.870  1.00  0.00     0.076 C 
HETATM   26  O2  UNL     1      26.170   1.043  51.191  1.00  0.00    -0.328 OA
ENDBRANCH   1  15
BRANCH  11  27
HETATM   27  C18 UNL     1      24.946   3.234  49.587  1.00  0.00     0.063 C 
BRANCH  27  28
HETATM   28  C19 UNL     1      26.068   4.193  49.677  1.00  0.00     0.224 C 
HETATM   29  F1  UNL     1      27.142   3.617  48.931  1.00  0.00    -0.255 F 
ENDBRANCH  27  28
ENDBRANCH  11  27
TORSDOF 3
ENDMDL
MODEL 2
REMARK VINA RESULT:      -7.7      8.621     11.644
REMARK  3 active torsions:
REMARK  status: ('A' for Active; 'I' for Inactive)
REMARK    1  A    between atoms: C8_11  and  C9_12 
REMARK    2  A    between atoms: C17_22  and  C18_24 
REMARK    3  A    between atoms: C18_24  and  C19_25 
ROOT
HETATM    1  C9  UNL     1      33.344   6.537  46.856  1.00  0.00     0.155 C 
HETATM    2  N3  UNL     1      34.497   7.243  47.259  1.00  0.00    -0.392 N 
HETATM    3  C10 UNL     1      35.050   7.639  48.396  1.00  0.00     0.168 C 
HETATM    4  C11 UNL     1      36.120   8.735  48.107  1.00  0.00     0.055 C 
HETATM    5  N4  UNL     1      35.932   6.556  48.915  1.00  0.00    -0.392 N 
HETATM    6  C12 UNL     1      35.113   5.397  48.984  1.00  0.00     0.127 C 
HETATM    7  C13 UNL     1      34.728   4.222  48.501  1.00  0.00     0.001 C 
HETATM    8  C14 UNL     1      34.624   3.009  47.635  1.00  0.00     0.010 C 
HETATM    9  C15 UNL     1      34.892   3.316  46.389  1.00  0.00    -0.028 C 
HETATM   10  C16 UNL     1      34.782   4.587  46.100  1.00  0.00     0.013 C 
HETATM   11  C17 UNL     1      33.461   5.076  46.488  1.00  0.00     0.082 C 
HETATM   12 CL1  UNL     1      32.302   3.960  47.185  1.00  0.00    -0.112 Cl
HETATM   13  H13 UNL     1      35.304   7.169  46.533  1.00  0.00     0.155 HD
HETATM   14  H18 UNL     1      36.958   6.684  49.180  1.00  0.00     0.156 HD
ENDROOT
BRANCH   1  15
HETATM   15  C8  UNL     1      32.037   6.965  47.235  1.00  0.00     0.256 C 
HETATM   16  N2  UNL     1      31.508   7.570  48.374  1.00  0.00    -0.326 N 
HETATM   17  C6  UNL     1      30.044   7.511  48.488  1.00  0.00     0.241 C 
HETATM   18  C7  UNL     1      31.635   8.154  49.640  1.00  0.00     0.155 C 
HETATM   19  C5  UNL     1      28.968   8.504  48.942  1.00  0.00     0.251 C 
HETATM   20  O1  UNL     1      29.698   6.351  48.099  1.00  0.00    -0.271 OA
HETATM   21  N1  UNL     1      27.780   7.804  48.272  1.00  0.00    -0.292 NA
HETATM   22  C4  UNL     1      28.146   7.451  46.997  1.00  0.00     0.113 C 
HETATM   23  C3  UNL     1      29.530   7.860  46.619  1.00  0.00     0.050 C 
HETATM   24  C2  UNL     1      30.552   8.684  46.843  1.00  0.00     0.046 C 
HETATM   25  C1  UNL     1      31.503   9.689  47.249  1.00  0.00     0.076 C 
HETATM   26  O2  UNL     1      31.747   8.139  46.162  1.00  0.00    -0.328 OA
ENDBRANCH   1  15
BRANCH  11  27
HETATM   27  C18 UNL     1      32.872   4.909  45.077  1.00  0.00     0.063 C 
BRANCH  27  28
HETATM   28  C19 UNL     1      33.518   5.689  43.999  1.00  0.00     0.224 C 
HETATM   29  F1  UNL     1      33.756   4.769  42.933  1.00  0.00    -0.255 F 
ENDBRANCH  27  28
ENDBRANCH  11  27
TORSDOF 3
ENDMDL
MODEL 3
REMARK VINA RESULT:      -7.7      2.795      4.270
REMARK  3 active torsions:
REMARK  status: ('A' for Active; 'I' for Inactive)
REMARK    1  A    between atoms: C8_11  and  C9_12 
REMARK    2  A    between atoms: C17_22  and  C18_24 
REMARK    3  A    between atoms: C18_24  and  C19_25 
ROOT
HETATM    1  C9  UNL     1      23.646   1.754  53.138  1.00  0.00     0.155 C 
HETATM    2  N3  UNL     1      23.494   3.050  52.605  1.00  0.00    -0.392 N 
HETATM    3  C10 UNL     1      23.866   3.708  51.516  1.00  0.00     0.168 C 
HETATM    4  C11 UNL     1      23.707   5.241  51.746  1.00  0.00     0.055 C 
HETATM    5  N4  UNL     1      22.845   3.505  50.450  1.00  0.00    -0.392 N 
HETATM    6  C12 UNL     1      22.704   2.097  50.318  1.00  0.00     0.127 C 
HETATM    7  C13 UNL     1      22.028   0.977  50.539  1.00  0.00     0.001 C 
HETATM    8  C14 UNL     1      20.976   0.022  51.002  1.00  0.00     0.010 C 
HETATM    9  C15 UNL     1      20.447   0.440  52.126  1.00  0.00    -0.028 C 
HETATM   10  C16 UNL     1      21.174   1.302  52.789  1.00  0.00     0.013 C 
HETATM   11  C17 UNL     1      22.513   0.763  53.010  1.00  0.00     0.082 C 
HETATM   12 CL1  UNL     1      22.895  -0.849  52.435  1.00  0.00    -0.112 Cl
HETATM   13  H13 UNL     1      22.601   3.550  52.976  1.00  0.00     0.155 HD
HETATM   14  H18 UNL     1      22.362   4.293  49.915  1.00  0.00     0.156 HD
ENDROOT
BRANCH   1  15
HETATM   15  C8  UNL     1      24.936   1.179  53.345  1.00  0.00     0.256 C 
HETATM   16  N2  UNL     1      25.847   0.522  52.518  1.00  0.00    -0.326 N 
HETATM   17  C6  UNL     1      26.900  -0.224  53.222  1.00  0.00     0.241 C 
HETATM   18  C7  UNL     1      26.273   0.051  51.271  1.00  0.00     0.155 C 
HETATM   19  C5  UNL     1      28.403  -0.420  52.994  1.00  0.00     0.251 C 
HETATM   20  O1  UNL     1      26.342  -0.785  54.216  1.00  0.00    -0.271 OA
HETATM   21  N1  UNL     1      28.744  -0.884  54.414  1.00  0.00    -0.292 NA
HETATM   22  C4  UNL     1      28.107  -0.057  55.305  1.00  0.00     0.113 C 
HETATM   23  C3  UNL     1      27.319   1.040  54.673  1.00  0.00     0.050 C 
HETATM   24  C2  UNL     1      27.138   1.811  53.602  1.00  0.00     0.046 C 
HETATM   25  C1  UNL     1      27.148   2.532  52.352  1.00  0.00     0.076 C 
HETATM   26  O2  UNL     1      25.821   2.476  53.725  1.00  0.00    -0.328 OA
ENDBRANCH   1  15
BRANCH  11  27
HETATM   27  C18 UNL     1      22.187   0.252  54.424  1.00  0.00     0.063 C 
BRANCH  27  28
HETATM   28  C19 UNL     1      22.327  -1.204  54.643  1.00  0.00     0.224 C 
HETATM   29  F1  UNL     1      20.999  -1.716  54.763  1.00  0.00    -0.255 F 
ENDBRANCH  27  28
ENDBRANCH  11  27
TORSDOF 3
ENDMDL
MODEL 4
REMARK VINA RESULT:      -7.3      3.236      6.325
REMARK  3 active torsions:
REMARK  status: ('A' for Active; 'I' for Inactive)
REMARK    1  A    between atoms: C8_11  and  C9_12 
REMARK    2  A    between atoms: C17_22  and  C18_24 
REMARK    3  A    between atoms: C18_24  and  C19_25 
ROOT
HETATM    1  C9  UNL     1      23.343   4.776  51.299  1.00  0.00     0.155 C 
HETATM    2  N3  UNL     1      24.245   4.069  52.121  1.00  0.00    -0.392 N 
HETATM    3  C10 UNL     1      24.884   2.908  52.097  1.00  0.00     0.168 C 
HETATM    4  C11 UNL     1      25.410   2.565  53.523  1.00  0.00     0.055 C 
HETATM    5  N4  UNL     1      26.180   3.077  51.382  1.00  0.00    -0.392 N 
HETATM    6  C12 UNL     1      25.850   3.642  50.120  1.00  0.00     0.127 C 
HETATM    7  C13 UNL     1      25.787   4.682  49.300  1.00  0.00     0.001 C 
HETATM    8  C14 UNL     1      25.902   6.069  48.756  1.00  0.00     0.010 C 
HETATM    9  C15 UNL     1      25.742   6.948  49.714  1.00  0.00    -0.028 C 
HETATM   10  C16 UNL     1      25.137   6.494  50.781  1.00  0.00     0.013 C 
HETATM   11  C17 UNL     1      23.863   5.883  50.413  1.00  0.00     0.082 C 
HETATM   12 CL1  UNL     1      23.359   5.894  48.733  1.00  0.00    -0.112 Cl
HETATM   13  H13 UNL     1      24.829   4.728  52.759  1.00  0.00     0.155 HD
HETATM   14  H18 UNL     1      27.131   2.799  51.778  1.00  0.00     0.156 HD
ENDROOT
BRANCH   1  15
HETATM   15  C8  UNL     1      22.099   4.206  50.893  1.00  0.00     0.256 C 
HETATM   16  N2  UNL     1      21.734   2.995  50.305  1.00  0.00    -0.326 N 
HETATM   17  C6  UNL     1      20.382   2.966  49.730  1.00  0.00     0.241 C 
HETATM   18  C7  UNL     1      22.026   1.716  49.819  1.00  0.00     0.155 C 
HETATM   19  C5  UNL     1      19.257   1.926  49.701  1.00  0.00     0.251 C 
HETATM   20  O1  UNL     1      20.207   4.090  49.161  1.00  0.00    -0.271 OA
HETATM   21  N1  UNL     1      18.120   2.895  49.360  1.00  0.00    -0.292 NA
HETATM   22  C4  UNL     1      18.247   4.009  50.154  1.00  0.00     0.113 C 
HETATM   23  C3  UNL     1      19.388   3.954  51.112  1.00  0.00     0.050 C 
HETATM   24  C2  UNL     1      20.238   3.189  51.796  1.00  0.00     0.046 C 
HETATM   25  C1  UNL     1      21.025   2.168  52.442  1.00  0.00     0.076 C 
HETATM   26  O2  UNL     1      21.330   4.049  52.306  1.00  0.00    -0.328 OA
ENDBRANCH   1  15
BRANCH  11  27
HETATM   27  C18 UNL     1      23.047   7.148  50.732  1.00  0.00     0.063 C 
BRANCH  27  28
HETATM   28  C19 UNL     1      22.263   7.721  49.618  1.00  0.00     0.224 C 
HETATM   29  F1  UNL     1      22.777   9.037  49.407  1.00  0.00    -0.255 F 
ENDBRANCH  27  28
ENDBRANCH  11  27
TORSDOF 3
ENDMDL
MODEL 5
REMARK VINA RESULT:      -7.2      3.046      5.657
REMARK  3 active torsions:
REMARK  status: ('A' for Active; 'I' for Inactive)
REMARK    1  A    between atoms: C8_11  and  C9_12 
REMARK    2  A    between atoms: C17_22  and  C18_24 
REMARK    3  A    between atoms: C18_24  and  C19_25 
ROOT
HETATM    1  C9  UNL     1      22.925   2.518  50.390  1.00  0.00     0.155 C 
HETATM    2  N3  UNL     1      23.978   1.771  50.958  1.00  0.00    -0.392 N 
HETATM    3  C10 UNL     1      24.674   1.767  52.086  1.00  0.00     0.168 C 
HETATM    4  C11 UNL     1      25.975   0.929  51.899  1.00  0.00     0.055 C 
HETATM    5  N4  UNL     1      23.971   0.923  53.092  1.00  0.00    -0.392 N 
HETATM    6  C12 UNL     1      22.650   1.441  53.169  1.00  0.00     0.127 C 
HETATM    7  C13 UNL     1      21.358   1.362  52.878  1.00  0.00     0.001 C 
HETATM    8  C14 UNL     1      20.054   0.880  52.330  1.00  0.00     0.010 C 
HETATM    9  C15 UNL     1      20.242   0.252  51.196  1.00  0.00    -0.028 C 
HETATM   10  C16 UNL     1      21.374   0.520  50.599  1.00  0.00     0.013 C 
HETATM   11  C17 UNL     1      21.520   1.963  50.428  1.00  0.00     0.082 C 
HETATM   12 CL1  UNL     1      20.233   3.026  50.967  1.00  0.00    -0.112 Cl
HETATM   13  H13 UNL     1      24.032   0.760  50.559  1.00  0.00     0.155 HD
HETATM   14  H18 UNL     1      24.421   0.117  53.628  1.00  0.00     0.156 HD
ENDROOT
BRANCH   1  15
HETATM   15  C8  UNL     1      23.015   3.933  50.229  1.00  0.00     0.256 C 
HETATM   16  N2  UNL     1      23.383   4.981  51.071  1.00  0.00    -0.326 N 
HETATM   17  C6  UNL     1      22.990   6.319  50.608  1.00  0.00     0.241 C 
HETATM   18  C7  UNL     1      23.865   5.486  52.284  1.00  0.00     0.155 C 
HETATM   19  C5  UNL     1      23.673   7.691  50.604  1.00  0.00     0.251 C 
HETATM   20  O1  UNL     1      21.821   6.204  50.120  1.00  0.00    -0.271 OA
HETATM   21  N1  UNL     1      22.789   8.332  49.528  1.00  0.00    -0.292 NA
HETATM   22  C4  UNL     1      22.642   7.438  48.497  1.00  0.00     0.113 C 
HETATM   23  C3  UNL     1      23.380   6.156  48.685  1.00  0.00     0.050 C 
HETATM   24  C2  UNL     1      24.389   5.524  49.284  1.00  0.00     0.046 C 
HETATM   25  C1  UNL     1      25.540   5.069  50.024  1.00  0.00     0.076 C 
HETATM   26  O2  UNL     1      24.186   4.067  49.123  1.00  0.00    -0.328 OA
ENDBRANCH   1  15
BRANCH  11  27
HETATM   27  C18 UNL     1      20.992   1.949  48.984  1.00  0.00     0.063 C 
BRANCH  27  28
HETATM   28  C19 UNL     1      21.900   1.392  47.959  1.00  0.00     0.224 C 
HETATM   29  F1  UNL     1      22.276   2.487  47.123  1.00  0.00    -0.255 F 
ENDBRANCH  27  28
ENDBRANCH  11  27
TORSDOF 3
ENDMDL
MODEL 6
REMARK VINA RESULT:      -7.1      3.219      4.700
REMARK  3 active torsions:
REMARK  status: ('A' for Active; 'I' for Inactive)
REMARK    1  A    between atoms: C8_11  and  C9_12 
REMARK    2  A    between atoms: C17_22  and  C18_24 
REMARK    3  A    between atoms: C18_24  and  C19_25 
ROOT
HETATM    1  C9  UNL     1      23.016   3.342  50.116  1.00  0.00     0.155 C 
HETATM    2  N3  UNL     1      22.427   3.639  48.870  1.00  0.00    -0.392 N 
HETATM    3  C10 UNL     1      21.256   4.069  48.422  1.00  0.00     0.168 C 
HETATM    4  C11 UNL     1      21.142   3.788  46.893  1.00  0.00     0.055 C 
HETATM    5  N4  UNL     1      21.256   5.559  48.406  1.00  0.00    -0.392 N 
HETATM    6  C12 UNL     1      21.610   5.955  49.724  1.00  0.00     0.127 C 
HETATM    7  C13 UNL     1      22.498   6.422  50.592  1.00  0.00     0.001 C 
HETATM    8  C14 UNL     1      23.768   6.947  51.179  1.00  0.00     0.010 C 
HETATM    9  C15 UNL     1      24.802   6.442  50.552  1.00  0.00    -0.028 C 
HETATM   10  C16 UNL     1      24.557   5.345  49.883  1.00  0.00     0.013 C 
HETATM   11  C17 UNL     1      23.939   4.352  50.757  1.00  0.00     0.082 C 
HETATM   12 CL1  UNL     1      23.683   4.739  52.449  1.00  0.00    -0.112 Cl
HETATM   13  H13 UNL     1      23.163   3.909  48.116  1.00  0.00     0.155 HD
HETATM   14  H18 UNL     1      21.015   6.156  47.555  1.00  0.00     0.156 HD
ENDROOT
BRANCH   1  15
HETATM   15  C8  UNL     1      22.431   2.399  51.013  1.00  0.00     0.256 C 
HETATM   16  N2  UNL     1      21.257   2.376  51.764  1.00  0.00    -0.326 N 
HETATM   17  C6  UNL     1      21.219   1.364  52.829  1.00  0.00     0.241 C 
HETATM   18  C7  UNL     1      20.031   2.920  52.165  1.00  0.00     0.155 C 
HETATM   19  C5  UNL     1      20.140   0.413  53.360  1.00  0.00     0.251 C 
HETATM   20  O1  UNL     1      22.375   1.351  53.357  1.00  0.00    -0.271 OA
HETATM   21  N1  UNL     1      21.088  -0.561  54.068  1.00  0.00    -0.292 NA
HETATM   22  C4  UNL     1      22.140  -0.831  53.229  1.00  0.00     0.113 C 
HETATM   23  C3  UNL     1      22.057  -0.157  51.901  1.00  0.00     0.050 C 
HETATM   24  C2  UNL     1      21.275   0.405  50.980  1.00  0.00     0.046 C 
HETATM   25  C1  UNL     1      20.238   0.941  50.133  1.00  0.00     0.076 C 
HETATM   26  O2  UNL     1      22.134   1.149  50.032  1.00  0.00    -0.328 OA
ENDBRANCH   1  15
BRANCH  11  27
HETATM   27  C18 UNL     1      25.268   3.637  51.055  1.00  0.00     0.063 C 
BRANCH  27  28
HETATM   28  C19 UNL     1      26.048   3.187  49.882  1.00  0.00     0.224 C 
HETATM   29  F1  UNL     1      26.789   2.045  50.313  1.00  0.00    -0.255 F 
ENDBRANCH  27  28
ENDBRANCH  11  27
TORSDOF 3
ENDMDL
MODEL 7
REMARK VINA RESULT:      -7.1      9.604     12.334
REMARK  3 active torsions:
REMARK  status: ('A' for Active; 'I' for Inactive)
REMARK    1  A    between atoms: C8_11  and  C9_12 
REMARK    2  A    between atoms: C17_22  and  C18_24 
REMARK    3  A    between atoms: C18_24  and  C19_25 
ROOT
HETATM    1  C9  UNL     1      32.493   5.754  45.717  1.00  0.00     0.155 C 
HETATM    2  N3  UNL     1      32.778   5.200  44.452  1.00  0.00    -0.392 N 
HETATM    3  C10 UNL     1      33.789   5.191  43.595  1.00  0.00     0.168 C 
HETATM    4  C11 UNL     1      33.290   4.719  42.196  1.00  0.00     0.055 C 
HETATM    5  N4  UNL     1      34.704   4.064  43.931  1.00  0.00    -0.392 N 
HETATM    6  C12 UNL     1      35.040   4.239  45.300  1.00  0.00     0.127 C 
HETATM    7  C13 UNL     1      34.904   3.903  46.576  1.00  0.00     0.001 C 
HETATM    8  C14 UNL     1      34.447   3.215  47.822  1.00  0.00     0.010 C 
HETATM    9  C15 UNL     1      33.202   2.826  47.694  1.00  0.00    -0.028 C 
HETATM   10  C16 UNL     1      32.527   3.440  46.757  1.00  0.00     0.013 C 
HETATM   11  C17 UNL     1      32.606   4.885  46.948  1.00  0.00     0.082 C 
HETATM   12 CL1  UNL     1      33.488   5.523  48.323  1.00  0.00    -0.112 Cl
HETATM   13  H13 UNL     1      32.197   4.301  44.252  1.00  0.00     0.155 HD
HETATM   14  H18 UNL     1      35.023   3.315  43.239  1.00  0.00     0.156 HD
ENDROOT
BRANCH   1  15
HETATM   15  C8  UNL     1      32.584   7.158  45.954  1.00  0.00     0.256 C 
HETATM   16  N2  UNL     1      33.428   8.166  45.488  1.00  0.00    -0.326 N 
HETATM   17  C6  UNL     1      33.396   9.413  46.266  1.00  0.00     0.241 C 
HETATM   18  C7  UNL     1      34.468   8.636  44.678  1.00  0.00     0.155 C 
HETATM   19  C5  UNL     1      33.415  10.901  45.898  1.00  0.00     0.251 C 
HETATM   20  O1  UNL     1      33.336   9.075  47.490  1.00  0.00    -0.271 OA
HETATM   21  N1  UNL     1      32.860  11.425  47.227  1.00  0.00    -0.292 NA
HETATM   22  C4  UNL     1      31.795  10.639  47.593  1.00  0.00     0.113 C 
HETATM   23  C3  UNL     1      31.464   9.559  46.619  1.00  0.00     0.050 C 
HETATM   24  C2  UNL     1      31.541   9.126  45.362  1.00  0.00     0.046 C 
HETATM   25  C1  UNL     1      31.729   8.882  43.953  1.00  0.00     0.076 C 
HETATM   26  O2  UNL     1      31.186   7.690  45.342  1.00  0.00    -0.328 OA
ENDBRANCH   1  15
BRANCH  11  27
HETATM   27  C18 UNL     1      31.261   4.965  47.691  1.00  0.00     0.063 C 
BRANCH  27  28
HETATM   28  C19 UNL     1      31.235   5.799  48.912  1.00  0.00     0.224 C 
HETATM   29  F1  UNL     1      30.517   6.985  48.566  1.00  0.00    -0.255 F 
ENDBRANCH  27  28
ENDBRANCH  11  27
TORSDOF 3
ENDMDL
MODEL 8
REMARK VINA RESULT:      -7.0      3.618      6.932
REMARK  3 active torsions:
REMARK  status: ('A' for Active; 'I' for Inactive)
REMARK    1  A    between atoms: C8_11  and  C9_12 
REMARK    2  A    between atoms: C17_22  and  C18_24 
REMARK    3  A    between atoms: C18_24  and  C19_25 
ROOT
HETATM    1  C9  UNL     1      23.008   3.580  49.818  1.00  0.00     0.155 C 
HETATM    2  N3  UNL     1      24.408   3.436  49.728  1.00  0.00    -0.392 N 
HETATM    3  C10 UNL     1      25.482   3.962  50.299  1.00  0.00     0.168 C 
HETATM    4  C11 UNL     1      26.744   3.645  49.440  1.00  0.00     0.055 C 
HETATM    5  N4  UNL     1      25.811   3.189  51.528  1.00  0.00    -0.392 N 
HETATM    6  C12 UNL     1      24.622   3.184  52.307  1.00  0.00     0.127 C 
HETATM    7  C13 UNL     1      23.541   2.566  52.762  1.00  0.00     0.001 C 
HETATM    8  C14 UNL     1      22.503   1.519  53.010  1.00  0.00     0.010 C 
HETATM    9  C15 UNL     1      22.372   0.751  51.957  1.00  0.00    -0.028 C 
HETATM   10  C16 UNL     1      22.819   1.266  50.841  1.00  0.00     0.013 C 
HETATM   11  C17 UNL     1      22.210   2.573  50.613  1.00  0.00     0.082 C 
HETATM   12 CL1  UNL     1      21.031   3.183  51.759  1.00  0.00    -0.112 Cl
HETATM   13  H13 UNL     1      24.702   2.453  49.367  1.00  0.00     0.155 HD
HETATM   14  H18 UNL     1      26.767   2.761  51.738  1.00  0.00     0.156 HD
ENDROOT
BRANCH   1  15
HETATM   15  C8  UNL     1      22.374   4.845  49.629  1.00  0.00     0.256 C 
HETATM   16  N2  UNL     1      22.626   6.134  50.097  1.00  0.00    -0.326 N 
HETATM   17  C6  UNL     1      21.513   7.081  49.943  1.00  0.00     0.241 C 
HETATM   18  C7  UNL     1      23.393   7.069  50.802  1.00  0.00     0.155 C 
HETATM   19  C5  UNL     1      21.414   8.556  49.537  1.00  0.00     0.251 C 
HETATM   20  O1  UNL     1      20.452   6.440  50.225  1.00  0.00    -0.271 OA
HETATM   21  N1  UNL     1      19.926   8.546  49.173  1.00  0.00    -0.292 NA
HETATM   22  C4  UNL     1      19.670   7.425  48.422  1.00  0.00     0.113 C 
HETATM   23  C3  UNL     1      20.868   6.580  48.151  1.00  0.00     0.050 C 
HETATM   24  C2  UNL     1      22.196   6.520  48.056  1.00  0.00     0.046 C 
HETATM   25  C1  UNL     1      23.624   6.705  47.991  1.00  0.00     0.076 C 
HETATM   26  O2  UNL     1      22.598   5.095  48.048  1.00  0.00    -0.328 OA
ENDBRANCH   1  15
BRANCH  11  27
HETATM   27  C18 UNL     1      21.117   2.017  49.685  1.00  0.00     0.063 C 
BRANCH  27  28
HETATM   28  C19 UNL     1      21.581   1.378  48.435  1.00  0.00     0.224 C 
HETATM   29  F1  UNL     1      21.267   2.291  47.382  1.00  0.00    -0.255 F 
ENDBRANCH  27  28
ENDBRANCH  11  27
TORSDOF 3
ENDMDL
MODEL 9
REMARK VINA RESULT:      -7.0      8.780     11.918
REMARK  3 active torsions:
REMARK  status: ('A' for Active; 'I' for Inactive)
REMARK    1  A    between atoms: C8_11  and  C9_12 
REMARK    2  A    between atoms: C17_22  and  C18_24 
REMARK    3  A    between atoms: C18_24  and  C19_25 
ROOT
HETATM    1  C9  UNL     1      32.251   7.842  46.711  1.00  0.00     0.155 C 
HETATM    2  N3  UNL     1      33.171   8.423  45.813  1.00  0.00    -0.392 N 
HETATM    3  C10 UNL     1      34.024   9.438  45.810  1.00  0.00     0.168 C 
HETATM    4  C11 UNL     1      34.436   9.775  44.345  1.00  0.00     0.055 C 
HETATM    5  N4  UNL     1      35.336   8.977  46.343  1.00  0.00    -0.392 N 
HETATM    6  C12 UNL     1      35.052   8.398  47.609  1.00  0.00     0.127 C 
HETATM    7  C13 UNL     1      34.883   7.333  48.382  1.00  0.00     0.001 C 
HETATM    8  C14 UNL     1      34.787   5.914  48.841  1.00  0.00     0.010 C 
HETATM    9  C15 UNL     1      34.347   5.151  47.871  1.00  0.00    -0.028 C 
HETATM   10  C16 UNL     1      33.723   5.785  46.913  1.00  0.00     0.013 C 
HETATM   11  C17 UNL     1      32.644   6.597  47.470  1.00  0.00     0.082 C 
HETATM   12 CL1  UNL     1      32.348   6.563  49.198  1.00  0.00    -0.112 Cl
HETATM   13  H13 UNL     1      33.537   7.712  45.075  1.00  0.00     0.155 HD
HETATM   14  H18 UNL     1      36.270   9.098  45.841  1.00  0.00     0.156 HD
ENDROOT
BRANCH   1  15
HETATM   15  C8  UNL     1      31.199   8.606  47.298  1.00  0.00     0.256 C 
HETATM   16  N2  UNL     1      31.087   9.926  47.734  1.00  0.00    -0.326 N 
HETATM   17  C6  UNL     1      29.936  10.198  48.606  1.00  0.00     0.241 C 
HETATM   18  C7  UNL     1      31.586  11.223  47.900  1.00  0.00     0.155 C 
HETATM   19  C5  UNL     1      28.934  11.353  48.722  1.00  0.00     0.251 C 
HETATM   20  O1  UNL     1      29.832   9.202  49.389  1.00  0.00    -0.271 OA
HETATM   21  N1  UNL     1      27.857  10.584  49.494  1.00  0.00    -0.292 NA
HETATM   22  C4  UNL     1      27.694   9.355  48.904  1.00  0.00     0.113 C 
HETATM   23  C3  UNL     1      28.549   9.131  47.703  1.00  0.00     0.050 C 
HETATM   24  C2  UNL     1      29.246   9.680  46.709  1.00  0.00     0.046 C 
HETATM   25  C1  UNL     1      29.911  10.493  45.721  1.00  0.00     0.076 C 
HETATM   26  O2  UNL     1      30.104   8.633  46.110  1.00  0.00    -0.328 OA
ENDBRANCH   1  15
BRANCH  11  27
HETATM   27  C18 UNL     1      31.565   5.535  47.199  1.00  0.00     0.063 C 
BRANCH  27  28
HETATM   28  C19 UNL     1      30.497   5.411  48.215  1.00  0.00     0.224 C 
HETATM   29  F1  UNL     1      29.295   5.854  47.583  1.00  0.00    -0.255 F 
ENDBRANCH  27  28
ENDBRANCH  11  27
TORSDOF 3
ENDMDL
