MODEL 1
REMARK VINA RESULT:      -7.8      0.000      0.000
REMARK  2 active torsions:
REMARK  status: ('A' for Active; 'I' for Inactive)
REMARK    1  A    between atoms: C11_12  and  O2_13 
REMARK    2  A    between atoms: O2_13  and  C12_14 
ROOT
HETATM    1  O1  UNL     1      27.590   1.717  52.676  1.00  0.00    -0.273 OA
HETATM    2  C1  UNL     1      26.531   1.611  52.031  1.00  0.00     0.222 C 
HETATM    3  C2  UNL     1      25.684   2.739  51.494  1.00  0.00     0.072 C 
HETATM    4  C3  UNL     1      24.606   3.192  50.833  1.00  0.00     0.077 C 
HETATM    5  C4  UNL     1      23.509   2.489  50.180  1.00  0.00    -0.042 A 
HETATM    6  C5  UNL     1      23.359   2.922  48.870  1.00  0.00     0.008 A 
HETATM    7  C6  UNL     1      22.412   2.452  48.000  1.00  0.00     0.001 A 
HETATM    8  C7  UNL     1      21.510   1.494  48.355  1.00  0.00     0.001 A 
HETATM    9  C8  UNL     1      21.623   1.038  49.638  1.00  0.00     0.012 A 
HETATM   10  C9  UNL     1      22.568   1.502  50.517  1.00  0.00    -0.027 A 
HETATM   11  C10 UNL     1      22.744   0.974  51.864  1.00  0.00     0.045 C 
HETATM   12  C11 UNL     1      22.839   0.508  53.098  1.00  0.00     0.057 C 
HETATM   13  C13 UNL     1      24.173   0.029  53.443  1.00  0.00     0.079 C 
HETATM   14  C14 UNL     1      25.240  -0.488  54.060  1.00  0.00    -0.013 C 
HETATM   15  C15 UNL     1      26.590  -0.650  53.626  1.00  0.00     0.014 C 
HETATM   16  C16 UNL     1      27.510  -0.475  52.697  1.00  0.00     0.090 C 
HETATM   17  N1  UNL     1      26.434   0.147  52.004  1.00  0.00    -0.337 N 
HETATM   18  H14 UNL     1      25.576   0.152  51.451  1.00  0.00     0.168 HD
ENDROOT
BRANCH  12  19
HETATM   19  O2  UNL     1      21.753   0.466  54.039  1.00  0.00    -0.345 OA
BRANCH  19  20
HETATM   20  C12 UNL     1      20.926  -0.651  54.158  1.00  0.00     0.254 C 
HETATM   21  I1  UNL     1      19.211  -0.422  52.921  1.00  0.00    -0.061 I 
ENDBRANCH  19  20
ENDBRANCH  12  19
TORSDOF 2
ENDMDL
MODEL 2
REMARK VINA RESULT:      -7.5      2.563      5.042
REMARK  2 active torsions:
REMARK  status: ('A' for Active; 'I' for Inactive)
REMARK    1  A    between atoms: C11_12  and  O2_13 
REMARK    2  A    between atoms: O2_13  and  C12_14 
ROOT
HETATM    1  O1  UNL     1      24.783   5.207  49.849  1.00  0.00    -0.273 OA
HETATM    2  C1  UNL     1      25.045   4.330  50.693  1.00  0.00     0.222 C 
HETATM    3  C2  UNL     1      26.009   3.181  50.531  1.00  0.00     0.072 C 
HETATM    4  C3  UNL     1      26.621   2.081  51.000  1.00  0.00     0.077 C 
HETATM    5  C4  UNL     1      26.519   1.391  52.280  1.00  0.00    -0.042 A 
HETATM    6  C5  UNL     1      27.774   1.218  52.847  1.00  0.00     0.008 A 
HETATM    7  C6  UNL     1      28.005   0.601  54.047  1.00  0.00     0.001 A 
HETATM    8  C7  UNL     1      26.998   0.090  54.808  1.00  0.00     0.001 A 
HETATM    9  C8  UNL     1      25.744   0.239  54.287  1.00  0.00     0.012 A 
HETATM   10  C9  UNL     1      25.500   0.856  53.086  1.00  0.00    -0.027 A 
HETATM   11  C10 UNL     1      24.163   1.084  52.554  1.00  0.00     0.045 C 
HETATM   12  C11 UNL     1      22.938   1.226  52.077  1.00  0.00     0.057 C 
HETATM   13  C13 UNL     1      22.598   2.603  51.735  1.00  0.00     0.079 C 
HETATM   14  C14 UNL     1      21.979   3.720  51.342  1.00  0.00    -0.013 C 
HETATM   15  C15 UNL     1      22.438   5.069  51.259  1.00  0.00     0.014 C 
HETATM   16  C16 UNL     1      23.416   5.944  51.398  1.00  0.00     0.090 C 
HETATM   17  N1  UNL     1      24.156   4.786  51.768  1.00  0.00    -0.337 N 
HETATM   18  H14 UNL     1      24.446   4.045  52.407  1.00  0.00     0.168 HD
ENDROOT
BRANCH  12  19
HETATM   19  O2  UNL     1      22.005   0.148  51.894  1.00  0.00    -0.345 OA
BRANCH  19  20
HETATM   20  C12 UNL     1      20.957  -0.076  52.787  1.00  0.00     0.254 C 
HETATM   21  I1  UNL     1      21.641  -1.237  54.433  1.00  0.00    -0.061 I 
ENDBRANCH  19  20
ENDBRANCH  12  19
TORSDOF 2
ENDMDL
MODEL 3
REMARK VINA RESULT:      -7.4      2.707      4.718
REMARK  2 active torsions:
REMARK  status: ('A' for Active; 'I' for Inactive)
REMARK    1  A    between atoms: C11_12  and  O2_13 
REMARK    2  A    between atoms: O2_13  and  C12_14 
ROOT
HETATM    1  O1  UNL     1      20.204  -0.459  52.588  1.00  0.00    -0.273 OA
HETATM    2  C1  UNL     1      21.048   0.379  52.223  1.00  0.00     0.222 C 
HETATM    3  C2  UNL     1      21.443   0.704  50.803  1.00  0.00     0.072 C 
HETATM    4  C3  UNL     1      22.173   1.393  49.911  1.00  0.00     0.077 C 
HETATM    5  C4  UNL     1      23.188   2.426  50.086  1.00  0.00    -0.042 A 
HETATM    6  C5  UNL     1      22.881   3.548  49.330  1.00  0.00     0.008 A 
HETATM    7  C6  UNL     1      23.644   4.684  49.282  1.00  0.00     0.001 A 
HETATM    8  C7  UNL     1      24.800   4.815  49.990  1.00  0.00     0.001 A 
HETATM    9  C8  UNL     1      25.139   3.731  50.750  1.00  0.00     0.012 A 
HETATM   10  C9  UNL     1      24.383   2.588  50.806  1.00  0.00    -0.027 A 
HETATM   11  C10 UNL     1      24.697   1.455  51.667  1.00  0.00     0.045 C 
HETATM   12  C11 UNL     1      25.042   0.423  52.419  1.00  0.00     0.057 C 
HETATM   13  C13 UNL     1      23.993  -0.011  53.334  1.00  0.00     0.079 C 
HETATM   14  C14 UNL     1      23.275  -0.638  54.272  1.00  0.00    -0.013 C 
HETATM   15  C15 UNL     1      21.932  -0.443  54.714  1.00  0.00     0.014 C 
HETATM   16  C16 UNL     1      20.784   0.194  54.600  1.00  0.00     0.090 C 
HETATM   17  N1  UNL     1      21.466   0.862  53.545  1.00  0.00    -0.337 N 
HETATM   18  H14 UNL     1      22.121   1.542  53.158  1.00  0.00     0.168 HD
ENDROOT
BRANCH  12  19
HETATM   19  O2  UNL     1      26.319  -0.234  52.364  1.00  0.00    -0.345 OA
BRANCH  19  20
HETATM   20  C12 UNL     1      27.245  -0.130  53.402  1.00  0.00     0.254 C 
HETATM   21  I1  UNL     1      28.116   1.810  53.408  1.00  0.00    -0.061 I 
ENDBRANCH  19  20
ENDBRANCH  12  19
TORSDOF 2
ENDMDL
MODEL 4
REMARK VINA RESULT:      -7.4      3.266      6.007
REMARK  2 active torsions:
REMARK  status: ('A' for Active; 'I' for Inactive)
REMARK    1  A    between atoms: C11_12  and  O2_13 
REMARK    2  A    between atoms: O2_13  and  C12_14 
ROOT
HETATM    1  O1  UNL     1      19.467  -0.317  53.325  1.00  0.00    -0.273 OA
HETATM    2  C1  UNL     1      20.670  -0.151  53.053  1.00  0.00     0.222 C 
HETATM    3  C2  UNL     1      21.840  -0.317  53.992  1.00  0.00     0.072 C 
HETATM    4  C3  UNL     1      23.157  -0.283  54.252  1.00  0.00     0.077 C 
HETATM    5  C4  UNL     1      24.299   0.041  53.406  1.00  0.00    -0.042 A 
HETATM    6  C5  UNL     1      25.246  -0.972  53.450  1.00  0.00     0.008 A 
HETATM    7  C6  UNL     1      26.431  -0.958  52.764  1.00  0.00     0.001 A 
HETATM    8  C7  UNL     1      26.792   0.079  51.958  1.00  0.00     0.001 A 
HETATM    9  C8  UNL     1      25.887   1.099  51.885  1.00  0.00     0.012 A 
HETATM   10  C9  UNL     1      24.697   1.096  52.567  1.00  0.00    -0.027 A 
HETATM   11  C10 UNL     1      23.693   2.145  52.443  1.00  0.00     0.045 C 
HETATM   12  C11 UNL     1      22.829   3.141  52.346  1.00  0.00     0.057 C 
HETATM   13  C13 UNL     1      21.485   2.716  51.969  1.00  0.00     0.079 C 
HETATM   14  C14 UNL     1      20.192   2.669  51.636  1.00  0.00    -0.013 C 
HETATM   15  C15 UNL     1      19.337   1.566  51.339  1.00  0.00     0.014 C 
HETATM   16  C16 UNL     1      19.166   0.263  51.230  1.00  0.00     0.090 C 
HETATM   17  N1  UNL     1      20.527   0.232  51.643  1.00  0.00    -0.337 N 
HETATM   18  H14 UNL     1      21.534   0.323  51.501  1.00  0.00     0.168 HD
ENDROOT
BRANCH  12  19
HETATM   19  O2  UNL     1      23.147   4.521  52.589  1.00  0.00    -0.345 OA
BRANCH  19  20
HETATM   20  C12 UNL     1      23.057   5.483  51.582  1.00  0.00     0.254 C 
HETATM   21  I1  UNL     1      24.518   5.105  50.083  1.00  0.00    -0.061 I 
ENDBRANCH  19  20
ENDBRANCH  12  19
TORSDOF 2
ENDMDL
MODEL 5
REMARK VINA RESULT:      -7.4      2.835      5.432
REMARK  2 active torsions:
REMARK  status: ('A' for Active; 'I' for Inactive)
REMARK    1  A    between atoms: C11_12  and  O2_13 
REMARK    2  A    between atoms: O2_13  and  C12_14 
ROOT
HETATM    1  O1  UNL     1      21.569   4.126  49.846  1.00  0.00    -0.273 OA
HETATM    2  C1  UNL     1      21.674   3.123  50.574  1.00  0.00     0.222 C 
HETATM    3  C2  UNL     1      20.986   2.890  51.897  1.00  0.00     0.072 C 
HETATM    4  C3  UNL     1      20.738   2.136  52.980  1.00  0.00     0.077 C 
HETATM    5  C4  UNL     1      21.229   0.821  53.374  1.00  0.00    -0.042 A 
HETATM    6  C5  UNL     1      20.172  -0.028  53.671  1.00  0.00     0.008 A 
HETATM    7  C6  UNL     1      20.312  -1.329  54.074  1.00  0.00     0.001 A 
HETATM    8  C7  UNL     1      21.531  -1.918  54.222  1.00  0.00     0.001 A 
HETATM    9  C8  UNL     1      22.600  -1.116  53.939  1.00  0.00     0.012 A 
HETATM   10  C9  UNL     1      22.473   0.188  53.534  1.00  0.00    -0.027 A 
HETATM   11  C10 UNL     1      23.602   1.031  53.161  1.00  0.00     0.045 C 
HETATM   12  C11 UNL     1      24.653   1.783  52.882  1.00  0.00     0.057 C 
HETATM   13  C13 UNL     1      24.600   2.396  51.560  1.00  0.00     0.079 C 
HETATM   14  C14 UNL     1      24.864   3.082  50.443  1.00  0.00    -0.013 C 
HETATM   15  C15 UNL     1      24.101   3.264  49.250  1.00  0.00     0.014 C 
HETATM   16  C16 UNL     1      22.992   3.047  48.571  1.00  0.00     0.090 C 
HETATM   17  N1  UNL     1      22.617   2.352  49.754  1.00  0.00    -0.337 N 
HETATM   18  H14 UNL     1      22.626   1.560  50.397  1.00  0.00     0.168 HD
ENDROOT
BRANCH  12  19
HETATM   19  O2  UNL     1      25.758   2.001  53.775  1.00  0.00    -0.345 OA
BRANCH  19  20
HETATM   20  C12 UNL     1      26.402   0.945  54.419  1.00  0.00     0.254 C 
HETATM   21  I1  UNL     1      27.196  -0.407  52.981  1.00  0.00    -0.061 I 
ENDBRANCH  19  20
ENDBRANCH  12  19
TORSDOF 2
ENDMDL
MODEL 6
REMARK VINA RESULT:      -7.2      2.952      6.299
REMARK  2 active torsions:
REMARK  status: ('A' for Active; 'I' for Inactive)
REMARK    1  A    between atoms: C11_12  and  O2_13 
REMARK    2  A    between atoms: O2_13  and  C12_14 
ROOT
HETATM    1  O1  UNL     1      20.447   2.064  50.516  1.00  0.00    -0.273 OA
HETATM    2  C1  UNL     1      21.594   1.680  50.809  1.00  0.00     0.222 C 
HETATM    3  C2  UNL     1      22.202   1.622  52.189  1.00  0.00     0.072 C 
HETATM    4  C3  UNL     1      23.225   1.351  53.016  1.00  0.00     0.077 C 
HETATM    5  C4  UNL     1      24.564   0.836  52.758  1.00  0.00    -0.042 A 
HETATM    6  C5  UNL     1      24.825  -0.272  53.551  1.00  0.00     0.008 A 
HETATM    7  C6  UNL     1      26.000  -0.975  53.540  1.00  0.00     0.001 A 
HETATM    8  C7  UNL     1      27.041  -0.640  52.728  1.00  0.00     0.001 A 
HETATM    9  C8  UNL     1      26.826   0.447  51.928  1.00  0.00     0.012 A 
HETATM   10  C9  UNL     1      25.653   1.159  51.931  1.00  0.00    -0.027 A 
HETATM   11  C10 UNL     1      25.385   2.275  51.033  1.00  0.00     0.045 C 
HETATM   12  C11 UNL     1      25.198   3.317  50.240  1.00  0.00     0.057 C 
HETATM   13  C13 UNL     1      23.994   3.222  49.423  1.00  0.00     0.079 C 
HETATM   14  C14 UNL     1      23.005   3.440  48.550  1.00  0.00    -0.013 C 
HETATM   15  C15 UNL     1      21.841   2.674  48.238  1.00  0.00     0.014 C 
HETATM   16  C16 UNL     1      21.086   1.617  48.465  1.00  0.00     0.090 C 
HETATM   17  N1  UNL     1      22.069   1.354  49.459  1.00  0.00    -0.337 N 
HETATM   18  H14 UNL     1      22.980   1.034  49.790  1.00  0.00     0.168 HD
ENDROOT
BRANCH  12  19
HETATM   19  O2  UNL     1      26.074   4.454  50.169  1.00  0.00    -0.345 OA
BRANCH  19  20
HETATM   20  C12 UNL     1      25.815   5.528  49.317  1.00  0.00     0.254 C 
HETATM   21  I1  UNL     1      24.752   7.045  50.362  1.00  0.00    -0.061 I 
ENDBRANCH  19  20
ENDBRANCH  12  19
TORSDOF 2
ENDMDL
MODEL 7
REMARK VINA RESULT:      -7.0      3.659      5.821
REMARK  2 active torsions:
REMARK  status: ('A' for Active; 'I' for Inactive)
REMARK    1  A    between atoms: C11_12  and  O2_13 
REMARK    2  A    between atoms: O2_13  and  C12_14 
ROOT
HETATM    1  O1  UNL     1      26.092   7.069  48.590  1.00  0.00    -0.273 OA
HETATM    2  C1  UNL     1      25.951   6.189  49.458  1.00  0.00     0.222 C 
HETATM    3  C2  UNL     1      26.037   4.696  49.253  1.00  0.00     0.072 C 
HETATM    4  C3  UNL     1      25.982   3.437  49.718  1.00  0.00     0.077 C 
HETATM    5  C4  UNL     1      25.733   2.912  51.055  1.00  0.00    -0.042 A 
HETATM    6  C5  UNL     1      26.740   2.036  51.433  1.00  0.00     0.008 A 
HETATM    7  C6  UNL     1      26.787   1.378  52.633  1.00  0.00     0.001 A 
HETATM    8  C7  UNL     1      25.824   1.531  53.584  1.00  0.00     0.001 A 
HETATM    9  C8  UNL     1      24.812   2.387  53.252  1.00  0.00     0.012 A 
HETATM   10  C9  UNL     1      24.755   3.051  52.054  1.00  0.00    -0.027 A 
HETATM   11  C10 UNL     1      23.720   4.020  51.717  1.00  0.00     0.045 C 
HETATM   12  C11 UNL     1      22.735   4.853  51.424  1.00  0.00     0.057 C 
HETATM   13  C13 UNL     1      23.189   6.178  51.018  1.00  0.00     0.079 C 
HETATM   14  C14 UNL     1      23.263   7.454  50.627  1.00  0.00    -0.013 C 
HETATM   15  C15 UNL     1      24.387   8.290  50.354  1.00  0.00     0.014 C 
HETATM   16  C16 UNL     1      25.695   8.435  50.261  1.00  0.00     0.090 C 
HETATM   17  N1  UNL     1      25.691   7.056  50.613  1.00  0.00    -0.337 N 
HETATM   18  H14 UNL     1      25.614   6.273  51.263  1.00  0.00     0.168 HD
ENDROOT
BRANCH  12  19
HETATM   19  O2  UNL     1      21.339   4.516  51.486  1.00  0.00    -0.345 OA
BRANCH  19  20
HETATM   20  C12 UNL     1      20.869   3.477  52.289  1.00  0.00     0.254 C 
HETATM   21  I1  UNL     1      20.567   1.729  51.115  1.00  0.00    -0.061 I 
ENDBRANCH  19  20
ENDBRANCH  12  19
TORSDOF 2
ENDMDL
MODEL 8
REMARK VINA RESULT:      -7.0      3.395      5.155
REMARK  2 active torsions:
REMARK  status: ('A' for Active; 'I' for Inactive)
REMARK    1  A    between atoms: C11_12  and  O2_13 
REMARK    2  A    between atoms: O2_13  and  C12_14 
ROOT
HETATM    1  O1  UNL     1      25.083   7.129  50.467  1.00  0.00    -0.273 OA
HETATM    2  C1  UNL     1      24.491   6.043  50.601  1.00  0.00     0.222 C 
HETATM    3  C2  UNL     1      23.761   5.557  51.828  1.00  0.00     0.072 C 
HETATM    4  C3  UNL     1      23.044   4.629  52.484  1.00  0.00     0.077 C 
HETATM    5  C4  UNL     1      22.562   3.316  52.075  1.00  0.00    -0.042 A 
HETATM    6  C5  UNL     1      21.196   3.205  52.292  1.00  0.00     0.008 A 
HETATM    7  C6  UNL     1      20.453   2.090  52.011  1.00  0.00     0.001 A 
HETATM    8  C7  UNL     1      21.004   0.963  51.480  1.00  0.00     0.001 A 
HETATM    9  C8  UNL     1      22.349   1.029  51.250  1.00  0.00     0.012 A 
HETATM   10  C9  UNL     1      23.103   2.141  51.527  1.00  0.00    -0.027 A 
HETATM   11  C10 UNL     1      24.524   2.249  51.220  1.00  0.00     0.045 C 
HETATM   12  C11 UNL     1      25.823   2.291  50.977  1.00  0.00     0.057 C 
HETATM   13  C13 UNL     1      26.229   3.427  50.157  1.00  0.00     0.079 C 
HETATM   14  C14 UNL     1      26.915   4.322  49.438  1.00  0.00    -0.013 C 
HETATM   15  C15 UNL     1      26.495   5.510  48.768  1.00  0.00     0.014 C 
HETATM   16  C16 UNL     1      25.533   6.358  48.463  1.00  0.00     0.090 C 
HETATM   17  N1  UNL     1      24.753   5.483  49.269  1.00  0.00    -0.337 N 
HETATM   18  H14 UNL     1      24.226   4.629  49.456  1.00  0.00     0.168 HD
ENDROOT
BRANCH  12  19
HETATM   19  O2  UNL     1      26.774   1.329  51.462  1.00  0.00    -0.345 OA
BRANCH  19  20
HETATM   20  C12 UNL     1      26.372   0.156  52.100  1.00  0.00     0.254 C 
HETATM   21  I1  UNL     1      26.653   0.336  54.200  1.00  0.00    -0.061 I 
ENDBRANCH  19  20
ENDBRANCH  12  19
TORSDOF 2
ENDMDL
MODEL 9
REMARK VINA RESULT:      -6.9      2.540      5.048
REMARK  2 active torsions:
REMARK  status: ('A' for Active; 'I' for Inactive)
REMARK    1  A    between atoms: C11_12  and  O2_13 
REMARK    2  A    between atoms: O2_13  and  C12_14 
ROOT
HETATM    1  O1  UNL     1      24.752   4.239  50.964  1.00  0.00    -0.273 OA
HETATM    2  C1  UNL     1      24.405   3.305  51.709  1.00  0.00     0.222 C 
HETATM    3  C2  UNL     1      25.017   1.928  51.776  1.00  0.00     0.072 C 
HETATM    4  C3  UNL     1      25.074   0.686  52.286  1.00  0.00     0.077 C 
HETATM    5  C4  UNL     1      24.276   0.027  53.312  1.00  0.00    -0.042 A 
HETATM    6  C5  UNL     1      25.092  -0.519  54.293  1.00  0.00     0.008 A 
HETATM    7  C6  UNL     1      24.638  -1.205  55.387  1.00  0.00     0.001 A 
HETATM    8  C7  UNL     1      23.311  -1.416  55.615  1.00  0.00     0.001 A 
HETATM    9  C8  UNL     1      22.472  -0.893  54.673  1.00  0.00     0.012 A 
HETATM   10  C9  UNL     1      22.915  -0.205  53.572  1.00  0.00    -0.027 A 
HETATM   11  C10 UNL     1      22.027   0.418  52.599  1.00  0.00     0.045 C 
HETATM   12  C11 UNL     1      21.192   0.924  51.706  1.00  0.00     0.057 C 
HETATM   13  C13 UNL     1      21.392   2.347  51.458  1.00  0.00     0.079 C 
HETATM   14  C14 UNL     1      21.303   3.606  51.017  1.00  0.00    -0.013 C 
HETATM   15  C15 UNL     1      22.085   4.763  51.313  1.00  0.00     0.014 C 
HETATM   16  C16 UNL     1      23.106   5.308  51.944  1.00  0.00     0.090 C 
HETATM   17  N1  UNL     1      23.301   3.976  52.405  1.00  0.00    -0.337 N 
HETATM   18  H14 UNL     1      23.098   3.168  52.995  1.00  0.00     0.168 HD
ENDROOT
BRANCH  12  19
HETATM   19  O2  UNL     1      20.176   0.171  51.023  1.00  0.00    -0.345 OA
BRANCH  19  20
HETATM   20  C12 UNL     1      18.851   0.163  51.458  1.00  0.00     0.254 C 
HETATM   21  I1  UNL     1      17.641   1.296  50.126  1.00  0.00    -0.061 I 
ENDBRANCH  19  20
ENDBRANCH  12  19
TORSDOF 2
ENDMDL
