MODEL 1
REMARK VINA RESULT:      -9.3      0.000      0.000
REMARK  2 active torsions:
REMARK  status: ('A' for Active; 'I' for Inactive)
REMARK    1  A    between atoms: C4_4  and  N1_5 
REMARK       I    between atoms: N1_5  and  C5_6 
REMARK       I    between atoms: C5_6  and  N2_8 
REMARK    2  A    between atoms: N2_8  and  C6_9 
ROOT
HETATM    1  C1  UNL     1      22.339   4.863  50.327  1.00  0.00     0.032 C 
HETATM    2  C2  UNL     1      22.434   3.606  49.528  1.00  0.00     0.083 C 
HETATM    3  C3  UNL     1      23.801   3.636  48.817  1.00  0.00     0.081 C 
HETATM    4  C4  UNL     1      24.850   3.659  49.891  1.00  0.00     0.014 C 
HETATM    5  C12 UNL     1      25.759   2.905  50.465  1.00  0.00     0.024 C 
HETATM    6  C13 UNL     1      26.844   2.737  51.487  1.00  0.00     0.199 C 
HETATM    7  O2  UNL     1      26.504   1.730  52.384  1.00  0.00    -0.367 OA
HETATM    8  C14 UNL     1      26.331   0.538  51.765  1.00  0.00     0.310 C 
HETATM    9  N3  UNL     1      25.892  -0.520  52.670  1.00  0.00    -0.290 N 
HETATM   10  N4  UNL     1      24.697  -0.555  53.370  1.00  0.00    -0.182 NA
HETATM   11  C15 UNL     1      23.661   0.155  53.200  1.00  0.00     0.060 C 
HETATM   12  C16 UNL     1      23.044   1.246  52.403  1.00  0.00     0.054 C 
HETATM   13  C17 UNL     1      22.290   1.286  51.295  1.00  0.00     0.010 C 
HETATM   14  C18 UNL     1      21.291   0.310  50.791  1.00  0.00     0.083 C 
HETATM   15  C19 UNL     1      20.236   0.143  51.793  1.00  0.00    -0.020 C 
HETATM   16  C20 UNL     1      20.293  -0.213  53.065  1.00  0.00     0.000 C 
HETATM   17  P1  UNL     1      21.305  -0.143  54.564  1.00  0.00    -0.101 P 
HETATM   18  C21 UNL     1      23.063  -0.616  54.313  1.00  0.00     0.096 C 
HETATM   19  N5  UNL     1      22.401   2.415  50.397  1.00  0.00    -0.388 N 
HETATM   20  H19 UNL     1      26.278  -1.434  53.017  1.00  0.00     0.184 HD
HETATM   21  H25 UNL     1      21.276   1.208  55.149  1.00  0.00     0.062 HD
HETATM   22  H28 UNL     1      23.153   1.734  50.054  1.00  0.00     0.159 HD
ENDROOT
BRANCH   4  23
HETATM   23  N1  UNL     1      25.158   4.768  50.711  1.00  0.00    -0.313 N 
HETATM   24  C5  UNL     1      25.609   5.937  50.026  1.00  0.00     0.325 C 
HETATM   25  O1  UNL     1      25.682   5.833  48.775  1.00  0.00    -0.247 OA
HETATM   26  N2  UNL     1      25.973   7.173  50.614  1.00  0.00    -0.309 N 
HETATM   27  H8  UNL     1      25.878   7.157  51.646  1.00  0.00     0.170 HD
HETATM   28  H7  UNL     1      25.123   4.944  51.766  1.00  0.00     0.170 HD
BRANCH  26  29
HETATM   29  C6  UNL     1      26.425   8.359  49.991  1.00  0.00     0.036 A 
HETATM   30  C7  UNL     1      27.700   8.851  49.957  1.00  0.00     0.029 A 
HETATM   31  C8  UNL     1      28.069  10.020  49.328  1.00  0.00     0.002 A 
HETATM   32  C9  UNL     1      27.110  10.756  48.686  1.00  0.00     0.000 A 
HETATM   33  C10 UNL     1      25.828  10.309  48.691  1.00  0.00     0.002 A 
HETATM   34  C11 UNL     1      25.499   9.136  49.331  1.00  0.00     0.029 A 
ENDBRANCH  26  29
ENDBRANCH   4  23
TORSDOF 2
ENDMDL
MODEL 2
REMARK VINA RESULT:      -8.7      5.478      8.645
REMARK  2 active torsions:
REMARK  status: ('A' for Active; 'I' for Inactive)
REMARK    1  A    between atoms: C4_4  and  N1_5 
REMARK       I    between atoms: N1_5  and  C5_6 
REMARK       I    between atoms: C5_6  and  N2_8 
REMARK    2  A    between atoms: N2_8  and  C6_9 
ROOT
HETATM    1  C1  UNL     1      19.019   3.661  50.914  1.00  0.00     0.032 C 
HETATM    2  C2  UNL     1      18.165   2.944  49.922  1.00  0.00     0.083 C 
HETATM    3  C3  UNL     1      18.825   1.573  49.678  1.00  0.00     0.081 C 
HETATM    4  C4  UNL     1      18.825   0.850  50.994  1.00  0.00     0.014 C 
HETATM    5  C12 UNL     1      18.240  -0.138  51.632  1.00  0.00     0.024 C 
HETATM    6  C13 UNL     1      18.096  -0.975  52.868  1.00  0.00     0.199 C 
HETATM    7  O2  UNL     1      16.806  -0.861  53.375  1.00  0.00    -0.367 OA
HETATM    8  C14 UNL     1      15.873  -1.274  52.485  1.00  0.00     0.310 C 
HETATM    9  N3  UNL     1      14.505  -1.086  52.959  1.00  0.00    -0.290 N 
HETATM   10  N4  UNL     1      13.895   0.125  53.243  1.00  0.00    -0.182 NA
HETATM   11  C15 UNL     1      14.278   1.293  52.933  1.00  0.00     0.060 C 
HETATM   12  C16 UNL     1      15.324   2.097  52.251  1.00  0.00     0.054 C 
HETATM   13  C17 UNL     1      15.479   2.570  51.006  1.00  0.00     0.010 C 
HETATM   14  C18 UNL     1      14.457   3.008  50.022  1.00  0.00     0.083 C 
HETATM   15  C19 UNL     1      13.677   4.105  50.600  1.00  0.00    -0.020 C 
HETATM   16  C20 UNL     1      12.975   4.179  51.718  1.00  0.00     0.000 C 
HETATM   17  P1  UNL     1      12.875   3.593  53.428  1.00  0.00    -0.101 P 
HETATM   18  C21 UNL     1      13.056   1.774  53.616  1.00  0.00     0.096 C 
HETATM   19  N5  UNL     1      16.810   2.707  50.456  1.00  0.00    -0.388 N 
HETATM   20  H19 UNL     1      13.689  -1.705  53.193  1.00  0.00     0.184 HD
HETATM   21  H25 UNL     1      13.901   4.241  54.262  1.00  0.00     0.062 HD
HETATM   22  H28 UNL     1      16.530   1.703  50.211  1.00  0.00     0.159 HD
ENDROOT
BRANCH   4  23
HETATM   23  N1  UNL     1      19.662   1.151  52.094  1.00  0.00    -0.313 N 
HETATM   24  C5  UNL     1      21.044   0.838  51.922  1.00  0.00     0.325 C 
HETATM   25  O1  UNL     1      21.347   0.326  50.814  1.00  0.00    -0.247 OA
HETATM   26  N2  UNL     1      22.080   1.045  52.865  1.00  0.00    -0.309 N 
HETATM   27  H8  UNL     1      21.729   1.470  53.743  1.00  0.00     0.170 HD
HETATM   28  H7  UNL     1      19.494   1.581  53.059  1.00  0.00     0.170 HD
BRANCH  26  29
HETATM   29  C6  UNL     1      23.460   0.757  52.753  1.00  0.00     0.036 A 
HETATM   30  C7  UNL     1      24.400   1.441  52.033  1.00  0.00     0.029 A 
HETATM   31  C8  UNL     1      25.734   1.100  51.969  1.00  0.00     0.002 A 
HETATM   32  C9  UNL     1      26.170   0.007  52.668  1.00  0.00     0.000 A 
HETATM   33  C10 UNL     1      25.275  -0.705  53.399  1.00  0.00     0.002 A 
HETATM   34  C11 UNL     1      23.951  -0.333  53.437  1.00  0.00     0.029 A 
ENDBRANCH  26  29
ENDBRANCH   4  23
TORSDOF 2
ENDMDL
MODEL 3
REMARK VINA RESULT:      -8.2      3.868      7.209
REMARK  2 active torsions:
REMARK  status: ('A' for Active; 'I' for Inactive)
REMARK    1  A    between atoms: C4_4  and  N1_5 
REMARK       I    between atoms: N1_5  and  C5_6 
REMARK       I    between atoms: C5_6  and  N2_8 
REMARK    2  A    between atoms: N2_8  and  C6_9 
ROOT
HETATM    1  C1  UNL     1      21.516  -0.162  51.492  1.00  0.00     0.032 C 
HETATM    2  C2  UNL     1      20.713   0.727  52.381  1.00  0.00     0.083 C 
HETATM    3  C3  UNL     1      21.700   1.357  53.384  1.00  0.00     0.081 C 
HETATM    4  C4  UNL     1      22.683   2.160  52.582  1.00  0.00     0.014 C 
HETATM    5  C12 UNL     1      23.014   3.397  52.290  1.00  0.00     0.024 C 
HETATM    6  C13 UNL     1      23.902   4.361  51.561  1.00  0.00     0.199 C 
HETATM    7  O2  UNL     1      23.148   5.137  50.686  1.00  0.00    -0.367 OA
HETATM    8  C14 UNL     1      22.201   5.856  51.334  1.00  0.00     0.310 C 
HETATM    9  N3  UNL     1      21.340   6.615  50.432  1.00  0.00    -0.290 N 
HETATM   10  N4  UNL     1      20.483   6.087  49.480  1.00  0.00    -0.182 NA
HETATM   11  C15 UNL     1      20.083   4.892  49.354  1.00  0.00     0.060 C 
HETATM   12  C16 UNL     1      20.154   3.514  49.904  1.00  0.00     0.054 C 
HETATM   13  C17 UNL     1      19.435   2.826  50.803  1.00  0.00     0.010 C 
HETATM   14  C18 UNL     1      17.991   2.917  51.134  1.00  0.00     0.083 C 
HETATM   15  C19 UNL     1      17.205   2.634  49.930  1.00  0.00    -0.020 C 
HETATM   16  C20 UNL     1      17.210   3.200  48.735  1.00  0.00     0.000 C 
HETATM   17  P1  UNL     1      18.252   4.028  47.509  1.00  0.00    -0.101 P 
HETATM   18  C21 UNL     1      19.302   5.373  48.193  1.00  0.00     0.096 C 
HETATM   19  N5  UNL     1      20.084   1.821  51.617  1.00  0.00    -0.388 N 
HETATM   20  H19 UNL     1      21.133   7.629  50.252  1.00  0.00     0.184 HD
HETATM   21  H25 UNL     1      19.134   3.060  46.835  1.00  0.00     0.062 HD
HETATM   22  H28 UNL     1      20.209   2.727  52.173  1.00  0.00     0.159 HD
ENDROOT
BRANCH   4  23
HETATM   23  N1  UNL     1      23.713   1.624  51.775  1.00  0.00    -0.313 N 
HETATM   24  C5  UNL     1      24.874   1.176  52.474  1.00  0.00     0.325 C 
HETATM   25  O1  UNL     1      24.840   1.318  53.723  1.00  0.00    -0.247 OA
HETATM   26  N2  UNL     1      26.034   0.600  51.902  1.00  0.00    -0.309 N 
HETATM   27  H8  UNL     1      25.965   0.527  50.870  1.00  0.00     0.170 HD
HETATM   28  H7  UNL     1      23.827   1.465  50.723  1.00  0.00     0.170 HD
BRANCH  26  29
HETATM   29  C6  UNL     1      27.210   0.138  52.539  1.00  0.00     0.036 A 
HETATM   30  C7  UNL     1      27.601  -1.158  52.734  1.00  0.00     0.029 A 
HETATM   31  C8  UNL     1      28.765  -1.535  53.366  1.00  0.00     0.002 A 
HETATM   32  C9  UNL     1      29.604  -0.562  53.840  1.00  0.00     0.000 A 
HETATM   33  C10 UNL     1      29.260   0.740  53.671  1.00  0.00     0.002 A 
HETATM   34  C11 UNL     1      28.088   1.077  53.034  1.00  0.00     0.029 A 
ENDBRANCH  26  29
ENDBRANCH   4  23
TORSDOF 2
ENDMDL
MODEL 4
REMARK VINA RESULT:      -8.0      4.731      8.790
REMARK  2 active torsions:
REMARK  status: ('A' for Active; 'I' for Inactive)
REMARK    1  A    between atoms: C4_4  and  N1_5 
REMARK       I    between atoms: N1_5  and  C5_6 
REMARK       I    between atoms: C5_6  and  N2_8 
REMARK    2  A    between atoms: N2_8  and  C6_9 
ROOT
HETATM    1  C1  UNL     1      21.219   2.536  49.918  1.00  0.00     0.032 C 
HETATM    2  C2  UNL     1      21.444   3.183  51.244  1.00  0.00     0.083 C 
HETATM    3  C3  UNL     1      20.153   2.979  52.061  1.00  0.00     0.081 C 
HETATM    4  C4  UNL     1      19.969   1.498  52.222  1.00  0.00     0.014 C 
HETATM    5  C12 UNL     1      20.055   0.535  53.111  1.00  0.00     0.024 C 
HETATM    6  C13 UNL     1      19.926  -0.918  53.463  1.00  0.00     0.199 C 
HETATM    7  O2  UNL     1      21.152  -1.417  53.889  1.00  0.00    -0.367 OA
HETATM    8  C14 UNL     1      21.612  -0.767  54.983  1.00  0.00     0.310 C 
HETATM    9  N3  UNL     1      22.936  -1.214  55.402  1.00  0.00    -0.290 N 
HETATM   10  N4  UNL     1      24.109  -1.099  54.673  1.00  0.00    -0.182 NA
HETATM   11  C15 UNL     1      24.333  -0.393  53.645  1.00  0.00     0.060 C 
HETATM   12  C16 UNL     1      23.755   0.571  52.674  1.00  0.00     0.054 C 
HETATM   13  C17 UNL     1      23.690   1.909  52.609  1.00  0.00     0.010 C 
HETATM   14  C18 UNL     1      24.644   2.932  53.104  1.00  0.00     0.083 C 
HETATM   15  C19 UNL     1      25.944   2.724  52.463  1.00  0.00    -0.020 C 
HETATM   16  C20 UNL     1      26.735   1.665  52.422  1.00  0.00     0.000 C 
HETATM   17  P1  UNL     1      26.761  -0.145  52.403  1.00  0.00    -0.101 P 
HETATM   18  C21 UNL     1      25.711  -0.931  53.691  1.00  0.00     0.096 C 
HETATM   19  N5  UNL     1      22.550   2.536  51.975  1.00  0.00    -0.388 N 
HETATM   20  H19 UNL     1      23.349  -1.684  56.247  1.00  0.00     0.184 HD
HETATM   21  H25 UNL     1      26.334  -0.659  51.091  1.00  0.00     0.062 HD
HETATM   22  H28 UNL     1      22.245   2.412  52.993  1.00  0.00     0.159 HD
ENDROOT
BRANCH   4  23
HETATM   23  N1  UNL     1      19.564   0.607  51.201  1.00  0.00    -0.313 N 
HETATM   24  C5  UNL     1      18.184   0.665  50.843  1.00  0.00     0.325 C 
HETATM   25  O1  UNL     1      17.495   1.499  51.485  1.00  0.00    -0.247 OA
HETATM   26  N2  UNL     1      17.534  -0.113  49.854  1.00  0.00    -0.309 N 
HETATM   27  H8  UNL     1      18.185  -0.768  49.383  1.00  0.00     0.170 HD
HETATM   28  H7  UNL     1      20.073  -0.124  50.607  1.00  0.00     0.170 HD
BRANCH  26  29
HETATM   29  C6  UNL     1      16.177  -0.100  49.456  1.00  0.00     0.036 A 
HETATM   30  C7  UNL     1      15.579   0.737  48.555  1.00  0.00     0.029 A 
HETATM   31  C8  UNL     1      14.244   0.691  48.215  1.00  0.00     0.002 A 
HETATM   32  C9  UNL     1      13.443  -0.248  48.808  1.00  0.00     0.000 A 
HETATM   33  C10 UNL     1      13.991  -1.103  49.709  1.00  0.00     0.002 A 
HETATM   34  C11 UNL     1      15.329  -1.025  50.022  1.00  0.00     0.029 A 
ENDBRANCH  26  29
ENDBRANCH   4  23
TORSDOF 2
ENDMDL
MODEL 5
REMARK VINA RESULT:      -7.9      3.691      7.345
REMARK  2 active torsions:
REMARK  status: ('A' for Active; 'I' for Inactive)
REMARK    1  A    between atoms: C4_4  and  N1_5 
REMARK       I    between atoms: N1_5  and  C5_6 
REMARK       I    between atoms: C5_6  and  N2_8 
REMARK    2  A    between atoms: N2_8  and  C6_9 
ROOT
HETATM    1  C1  UNL     1      22.536   1.685  50.177  1.00  0.00     0.032 C 
HETATM    2  C2  UNL     1      21.409   2.399  50.846  1.00  0.00     0.083 C 
HETATM    3  C3  UNL     1      21.986   3.037  52.125  1.00  0.00     0.081 C 
HETATM    4  C4  UNL     1      23.042   4.011  51.687  1.00  0.00     0.014 C 
HETATM    5  C12 UNL     1      23.278   5.298  51.573  1.00  0.00     0.024 C 
HETATM    6  C13 UNL     1      24.202   6.415  51.186  1.00  0.00     0.199 C 
HETATM    7  O2  UNL     1      23.629   7.181  50.177  1.00  0.00    -0.367 OA
HETATM    8  C14 UNL     1      22.454   7.732  50.563  1.00  0.00     0.310 C 
HETATM    9  N3  UNL     1      21.789   8.472  49.497  1.00  0.00    -0.290 N 
HETATM   10  N4  UNL     1      21.307   7.944  48.309  1.00  0.00    -0.182 NA
HETATM   11  C15 UNL     1      21.117   6.729  48.006  1.00  0.00     0.060 C 
HETATM   12  C16 UNL     1      21.209   5.322  48.475  1.00  0.00     0.054 C 
HETATM   13  C17 UNL     1      20.362   4.482  49.087  1.00  0.00     0.010 C 
HETATM   14  C18 UNL     1      18.884   4.386  48.992  1.00  0.00     0.083 C 
HETATM   15  C19 UNL     1      18.510   4.132  47.599  1.00  0.00    -0.020 C 
HETATM   16  C20 UNL     1      18.775   4.801  46.490  1.00  0.00     0.000 C 
HETATM   17  P1  UNL     1      20.002   5.845  45.666  1.00  0.00    -0.101 P 
HETATM   18  C21 UNL     1      20.636   7.228  46.698  1.00  0.00     0.096 C 
HETATM   19  N5  UNL     1      20.882   3.483  49.996  1.00  0.00    -0.388 N 
HETATM   20  H19 UNL     1      21.511   9.471  49.322  1.00  0.00     0.184 HD
HETATM   21  H25 UNL     1      21.154   5.043  45.221  1.00  0.00     0.062 HD
HETATM   22  H28 UNL     1      20.728   4.343  50.615  1.00  0.00     0.159 HD
ENDROOT
BRANCH   4  23
HETATM   23  N1  UNL     1      24.317   3.665  51.183  1.00  0.00    -0.313 N 
HETATM   24  C5  UNL     1      25.144   2.907  52.064  1.00  0.00     0.325 C 
HETATM   25  O1  UNL     1      24.638   2.644  53.185  1.00  0.00    -0.247 OA
HETATM   26  N2  UNL     1      26.453   2.435  51.798  1.00  0.00    -0.309 N 
HETATM   27  H8  UNL     1      26.779   2.703  50.851  1.00  0.00     0.170 HD
HETATM   28  H7  UNL     1      24.822   3.842  50.256  1.00  0.00     0.170 HD
BRANCH  26  29
HETATM   29  C6  UNL     1      27.317   1.683  52.627  1.00  0.00     0.036 A 
HETATM   30  C7  UNL     1      27.360   0.324  52.774  1.00  0.00     0.029 A 
HETATM   31  C8  UNL     1      28.233  -0.343  53.605  1.00  0.00     0.002 A 
HETATM   32  C9  UNL     1      29.129   0.383  54.342  1.00  0.00     0.000 A 
HETATM   33  C10 UNL     1      29.127   1.736  54.230  1.00  0.00     0.002 A 
HETATM   34  C11 UNL     1      28.239   2.367  53.389  1.00  0.00     0.029 A 
ENDBRANCH  26  29
ENDBRANCH   4  23
TORSDOF 2
ENDMDL
MODEL 6
REMARK VINA RESULT:      -7.8      3.499      7.598
REMARK  2 active torsions:
REMARK  status: ('A' for Active; 'I' for Inactive)
REMARK    1  A    between atoms: C4_4  and  N1_5 
REMARK       I    between atoms: N1_5  and  C5_6 
REMARK       I    between atoms: C5_6  and  N2_8 
REMARK    2  A    between atoms: N2_8  and  C6_9 
ROOT
HETATM    1  C1  UNL     1      25.668   7.143  50.573  1.00  0.00     0.032 C 
HETATM    2  C2  UNL     1      25.576   7.103  49.084  1.00  0.00     0.083 C 
HETATM    3  C3  UNL     1      26.061   5.706  48.648  1.00  0.00     0.081 C 
HETATM    4  C4  UNL     1      25.123   4.708  49.262  1.00  0.00     0.014 C 
HETATM    5  C12 UNL     1      24.148   3.882  48.958  1.00  0.00     0.024 C 
HETATM    6  C13 UNL     1      23.138   2.859  49.386  1.00  0.00     0.199 C 
HETATM    7  O2  UNL     1      21.852   3.311  49.105  1.00  0.00    -0.367 OA
HETATM    8  C14 UNL     1      21.673   3.541  47.783  1.00  0.00     0.310 C 
HETATM    9  N3  UNL     1      20.360   4.096  47.470  1.00  0.00    -0.290 N 
HETATM   10  N4  UNL     1      19.867   5.320  47.890  1.00  0.00    -0.182 NA
HETATM   11  C15 UNL     1      20.499   6.293  48.399  1.00  0.00     0.060 C 
HETATM   12  C16 UNL     1      21.827   6.794  48.837  1.00  0.00     0.054 C 
HETATM   13  C17 UNL     1      22.806   7.493  48.244  1.00  0.00     0.010 C 
HETATM   14  C18 UNL     1      22.725   8.535  47.190  1.00  0.00     0.083 C 
HETATM   15  C19 UNL     1      21.900   9.643  47.676  1.00  0.00    -0.020 C 
HETATM   16  C20 UNL     1      20.658   9.670  48.130  1.00  0.00     0.000 C 
HETATM   17  P1  UNL     1      19.406   8.724  49.032  1.00  0.00    -0.101 P 
HETATM   18  C21 UNL     1      19.196   6.994  48.445  1.00  0.00     0.096 C 
HETATM   19  N5  UNL     1      24.181   7.260  48.629  1.00  0.00    -0.388 N 
HETATM   20  H19 UNL     1      19.517   3.792  46.921  1.00  0.00     0.184 HD
HETATM   21  H25 UNL     1      19.721   8.682  50.470  1.00  0.00     0.062 HD
HETATM   22  H28 UNL     1      24.004   6.545  47.853  1.00  0.00     0.159 HD
ENDROOT
BRANCH   4  23
HETATM   23  N1  UNL     1      25.080   4.358  50.631  1.00  0.00    -0.313 N 
HETATM   24  C5  UNL     1      26.025   3.372  51.046  1.00  0.00     0.325 C 
HETATM   25  O1  UNL     1      26.777   2.931  50.140  1.00  0.00    -0.247 OA
HETATM   26  N2  UNL     1      26.188   2.857  52.356  1.00  0.00    -0.309 N 
HETATM   27  H8  UNL     1      25.523   3.283  53.028  1.00  0.00     0.170 HD
HETATM   28  H7  UNL     1      24.485   4.678  51.462  1.00  0.00     0.170 HD
BRANCH  26  29
HETATM   29  C6  UNL     1      27.101   1.885  52.826  1.00  0.00     0.036 A 
HETATM   30  C7  UNL     1      28.296   2.098  53.458  1.00  0.00     0.029 A 
HETATM   31  C8  UNL     1      29.138   1.097  53.889  1.00  0.00     0.002 A 
HETATM   32  C9  UNL     1      28.775  -0.207  53.683  1.00  0.00     0.000 A 
HETATM   33  C10 UNL     1      27.598  -0.470  53.060  1.00  0.00     0.002 A 
HETATM   34  C11 UNL     1      26.784   0.558  52.643  1.00  0.00     0.029 A 
ENDBRANCH  26  29
ENDBRANCH   4  23
TORSDOF 2
ENDMDL
MODEL 7
REMARK VINA RESULT:      -7.7      3.365      5.870
REMARK  2 active torsions:
REMARK  status: ('A' for Active; 'I' for Inactive)
REMARK    1  A    between atoms: C4_4  and  N1_5 
REMARK       I    between atoms: N1_5  and  C5_6 
REMARK       I    between atoms: C5_6  and  N2_8 
REMARK    2  A    between atoms: N2_8  and  C6_9 
ROOT
HETATM    1  C1  UNL     1      26.190   3.736  49.077  1.00  0.00     0.032 C 
HETATM    2  C2  UNL     1      26.022   4.234  50.474  1.00  0.00     0.083 C 
HETATM    3  C3  UNL     1      24.565   4.723  50.597  1.00  0.00     0.081 C 
HETATM    4  C4  UNL     1      23.684   3.532  50.351  1.00  0.00     0.014 C 
HETATM    5  C12 UNL     1      22.894   2.684  50.969  1.00  0.00     0.024 C 
HETATM    6  C13 UNL     1      21.977   1.499  50.921  1.00  0.00     0.199 C 
HETATM    7  O2  UNL     1      22.477   0.474  51.717  1.00  0.00    -0.367 OA
HETATM    8  C14 UNL     1      22.598   0.851  53.012  1.00  0.00     0.310 C 
HETATM    9  N3  UNL     1      23.200  -0.177  53.855  1.00  0.00    -0.290 N 
HETATM   10  N4  UNL     1      24.485  -0.681  53.741  1.00  0.00    -0.182 NA
HETATM   11  C15 UNL     1      25.460  -0.215  53.080  1.00  0.00     0.060 C 
HETATM   12  C16 UNL     1      25.918   0.874  52.178  1.00  0.00     0.054 C 
HETATM   13  C17 UNL     1      26.500   2.066  52.371  1.00  0.00     0.010 C 
HETATM   14  C18 UNL     1      27.446   2.501  53.428  1.00  0.00     0.083 C 
HETATM   15  C19 UNL     1      28.641   1.656  53.379  1.00  0.00    -0.020 C 
HETATM   16  C20 UNL     1      28.783   0.344  53.461  1.00  0.00     0.000 C 
HETATM   17  P1  UNL     1      27.999  -1.242  53.080  1.00  0.00    -0.101 P 
HETATM   18  C21 UNL     1      26.240  -1.361  53.598  1.00  0.00     0.096 C 
HETATM   19  N5  UNL     1      26.221   3.152  51.456  1.00  0.00    -0.388 N 
HETATM   20  H19 UNL     1      22.900  -0.759  54.677  1.00  0.00     0.184 HD
HETATM   21  H25 UNL     1      28.068  -1.524  51.636  1.00  0.00     0.062 HD
HETATM   22  H28 UNL     1      25.450   3.230  52.195  1.00  0.00     0.159 HD
ENDROOT
BRANCH   4  23
HETATM   23  N1  UNL     1      23.463   2.922  49.094  1.00  0.00    -0.313 N 
HETATM   24  C5  UNL     1      22.659   3.667  48.180  1.00  0.00     0.325 C 
HETATM   25  O1  UNL     1      22.241   4.774  48.608  1.00  0.00    -0.247 OA
HETATM   26  N2  UNL     1      22.297   3.282  46.866  1.00  0.00    -0.309 N 
HETATM   27  H8  UNL     1      22.689   2.358  46.608  1.00  0.00     0.170 HD
HETATM   28  H7  UNL     1      23.775   2.000  48.651  1.00  0.00     0.170 HD
BRANCH  26  29
HETATM   29  C6  UNL     1      21.507   3.974  45.918  1.00  0.00     0.036 A 
HETATM   30  C7  UNL     1      21.911   4.948  45.046  1.00  0.00     0.029 A 
HETATM   31  C8  UNL     1      21.082   5.581  44.146  1.00  0.00     0.002 A 
HETATM   32  C9  UNL     1      19.760   5.227  44.104  1.00  0.00     0.000 A 
HETATM   33  C10 UNL     1      19.311   4.265  44.949  1.00  0.00     0.002 A 
HETATM   34  C11 UNL     1      20.170   3.655  45.835  1.00  0.00     0.029 A 
ENDBRANCH  26  29
ENDBRANCH   4  23
TORSDOF 2
ENDMDL
MODEL 8
REMARK VINA RESULT:      -7.6      3.590      9.326
REMARK  2 active torsions:
REMARK  status: ('A' for Active; 'I' for Inactive)
REMARK    1  A    between atoms: C4_4  and  N1_5 
REMARK       I    between atoms: N1_5  and  C5_6 
REMARK       I    between atoms: C5_6  and  N2_8 
REMARK    2  A    between atoms: N2_8  and  C6_9 
ROOT
HETATM    1  C1  UNL     1      23.139   3.408  52.419  1.00  0.00     0.032 C 
HETATM    2  C2  UNL     1      24.177   3.061  51.405  1.00  0.00     0.083 C 
HETATM    3  C3  UNL     1      23.716   1.754  50.730  1.00  0.00     0.081 C 
HETATM    4  C4  UNL     1      22.404   2.048  50.062  1.00  0.00     0.014 C 
HETATM    5  C12 UNL     1      21.863   2.229  48.879  1.00  0.00     0.024 C 
HETATM    6  C13 UNL     1      20.654   2.515  48.039  1.00  0.00     0.199 C 
HETATM    7  O2  UNL     1      20.840   3.689  47.317  1.00  0.00    -0.367 OA
HETATM    8  C14 UNL     1      21.909   3.612  46.489  1.00  0.00     0.310 C 
HETATM    9  N3  UNL     1      22.179   4.859  45.782  1.00  0.00    -0.290 N 
HETATM   10  N4  UNL     1      22.540   6.066  46.357  1.00  0.00    -0.182 NA
HETATM   11  C15 UNL     1      22.943   6.288  47.538  1.00  0.00     0.060 C 
HETATM   12  C16 UNL     1      23.262   5.682  48.856  1.00  0.00     0.054 C 
HETATM   13  C17 UNL     1      24.377   5.187  49.413  1.00  0.00     0.010 C 
HETATM   14  C18 UNL     1      25.794   5.582  49.216  1.00  0.00     0.083 C 
HETATM   15  C19 UNL     1      25.952   6.992  49.577  1.00  0.00    -0.020 C 
HETATM   16  C20 UNL     1      25.341   8.078  49.134  1.00  0.00     0.000 C 
HETATM   17  P1  UNL     1      23.777   8.719  48.486  1.00  0.00    -0.101 P 
HETATM   18  C21 UNL     1      23.046   7.709  47.135  1.00  0.00     0.096 C 
HETATM   19  N5  UNL     1      24.276   4.100  50.363  1.00  0.00    -0.388 N 
HETATM   20  H19 UNL     1      22.184   5.180  44.781  1.00  0.00     0.184 HD
HETATM   21  H25 UNL     1      22.776   8.834  49.561  1.00  0.00     0.062 HD
HETATM   22  H28 UNL     1      24.341   3.610  49.413  1.00  0.00     0.159 HD
ENDROOT
BRANCH   4  23
HETATM   23  N1  UNL     1      21.171   2.239  50.727  1.00  0.00    -0.313 N 
HETATM   24  C5  UNL     1      20.534   1.051  51.197  1.00  0.00     0.325 C 
HETATM   25  O1  UNL     1      21.146  -0.021  50.956  1.00  0.00    -0.247 OA
HETATM   26  N2  UNL     1      19.303   0.972  51.893  1.00  0.00    -0.309 N 
HETATM   27  H8  UNL     1      18.878   1.905  52.042  1.00  0.00     0.170 HD
HETATM   28  H7  UNL     1      20.586   3.099  50.975  1.00  0.00     0.170 HD
BRANCH  26  29
HETATM   29  C6  UNL     1      18.625  -0.169  52.381  1.00  0.00     0.036 A 
HETATM   30  C7  UNL     1      19.056  -1.054  53.331  1.00  0.00     0.029 A 
HETATM   31  C8  UNL     1      18.338  -2.150  53.759  1.00  0.00     0.002 A 
HETATM   32  C9  UNL     1      17.107  -2.388  53.211  1.00  0.00     0.000 A 
HETATM   33  C10 UNL     1      16.634  -1.538  52.264  1.00  0.00     0.002 A 
HETATM   34  C11 UNL     1      17.381  -0.454  51.862  1.00  0.00     0.029 A 
ENDBRANCH  26  29
ENDBRANCH   4  23
TORSDOF 2
ENDMDL
MODEL 9
REMARK VINA RESULT:      -7.6      3.843      9.021
REMARK  2 active torsions:
REMARK  status: ('A' for Active; 'I' for Inactive)
REMARK    1  A    between atoms: C4_4  and  N1_5 
REMARK       I    between atoms: N1_5  and  C5_6 
REMARK       I    between atoms: C5_6  and  N2_8 
REMARK    2  A    between atoms: N2_8  and  C6_9 
ROOT
HETATM    1  C1  UNL     1      24.006   5.546  51.178  1.00  0.00     0.032 C 
HETATM    2  C2  UNL     1      24.933   5.372  50.021  1.00  0.00     0.083 C 
HETATM    3  C3  UNL     1      24.959   3.865  49.698  1.00  0.00     0.081 C 
HETATM    4  C4  UNL     1      23.560   3.476  49.317  1.00  0.00     0.014 C 
HETATM    5  C12 UNL     1      22.824   3.146  48.280  1.00  0.00     0.024 C 
HETATM    6  C13 UNL     1      21.496   2.746  47.711  1.00  0.00     0.199 C 
HETATM    7  O2  UNL     1      21.070   3.689  46.781  1.00  0.00    -0.367 OA
HETATM    8  C14 UNL     1      21.940   3.814  45.751  1.00  0.00     0.310 C 
HETATM    9  N3  UNL     1      21.562   4.857  44.804  1.00  0.00    -0.290 N 
HETATM   10  N4  UNL     1      21.472   6.214  45.070  1.00  0.00    -0.182 NA
HETATM   11  C15 UNL     1      21.917   6.852  46.070  1.00  0.00     0.060 C 
HETATM   12  C16 UNL     1      22.649   6.752  47.358  1.00  0.00     0.054 C 
HETATM   13  C17 UNL     1      23.938   6.860  47.713  1.00  0.00     0.010 C 
HETATM   14  C18 UNL     1      25.019   7.691  47.128  1.00  0.00     0.083 C 
HETATM   15  C19 UNL     1      24.631   9.102  47.203  1.00  0.00    -0.020 C 
HETATM   16  C20 UNL     1      23.567   9.738  46.742  1.00  0.00     0.000 C 
HETATM   17  P1  UNL     1      21.801   9.571  46.381  1.00  0.00    -0.101 P 
HETATM   18  C21 UNL     1      21.363   8.064  45.425  1.00  0.00     0.096 C 
HETATM   19  N5  UNL     1      24.437   6.083  48.827  1.00  0.00    -0.388 N 
HETATM   20  H19 UNL     1      21.285   4.901  43.791  1.00  0.00     0.184 HD
HETATM   21  H25 UNL     1      21.013   9.567  47.625  1.00  0.00     0.062 HD
HETATM   22  H28 UNL     1      24.558   5.435  47.983  1.00  0.00     0.159 HD
ENDROOT
BRANCH   4  23
HETATM   23  N1  UNL     1      22.472   3.351  50.211  1.00  0.00    -0.313 N 
HETATM   24  C5  UNL     1      22.493   2.197  51.051  1.00  0.00     0.325 C 
HETATM   25  O1  UNL     1      23.475   1.429  50.887  1.00  0.00    -0.247 OA
HETATM   26  N2  UNL     1      21.529   1.846  52.028  1.00  0.00    -0.309 N 
HETATM   27  H8  UNL     1      20.762   2.540  52.086  1.00  0.00     0.170 HD
HETATM   28  H7  UNL     1      21.607   3.947  50.417  1.00  0.00     0.170 HD
BRANCH  26  29
HETATM   29  C6  UNL     1      21.495   0.722  52.885  1.00  0.00     0.036 A 
HETATM   30  C7  UNL     1      22.498   0.255  53.690  1.00  0.00     0.029 A 
HETATM   31  C8  UNL     1      22.394  -0.853  54.503  1.00  0.00     0.002 A 
HETATM   32  C9  UNL     1      21.215  -1.548  54.523  1.00  0.00     0.000 A 
HETATM   33  C10 UNL     1      20.189  -1.124  53.742  1.00  0.00     0.002 A 
HETATM   34  C11 UNL     1      20.332  -0.013  52.943  1.00  0.00     0.029 A 
ENDBRANCH  26  29
ENDBRANCH   4  23
TORSDOF 2
ENDMDL
