MODEL 1
REMARK VINA RESULT:      -7.5      0.000      0.000
REMARK  8 active torsions:
REMARK  status: ('A' for Active; 'I' for Inactive)
REMARK    1  A    between atoms: C2_2  and  C3_3 
REMARK    2  A    between atoms: C3_3  and  N1_4 
REMARK    3  A    between atoms: C4_5  and  C5_6 
REMARK    4  A    between atoms: C5_6  and  C6_7 
REMARK    5  A    between atoms: C9_11  and  N3_12 
REMARK    6  A    between atoms: N3_12  and  C10_13 
REMARK    7  A    between atoms: C12_15  and  C13_16 
REMARK    8  A    between atoms: C13_16  and  N4_17 
ROOT
HETATM    1  C10 UNL     1      25.885   3.380  50.675  1.00  0.00     0.020 C 
HETATM    2  C11 UNL     1      26.408   3.181  49.300  1.00  0.00     0.068 C 
HETATM    3  C12 UNL     1      24.678   3.719  51.036  1.00  0.00     0.018 C 
ENDROOT
BRANCH   3   4
HETATM    4  C13 UNL     1      23.519   3.972  50.029  1.00  0.00     0.155 C 
BRANCH   4   5
HETATM    5  N4  UNL     1      22.517   2.983  50.391  1.00  0.00    -0.344 N 
HETATM    6  C14 UNL     1      21.888   3.441  51.618  1.00  0.00     0.145 C 
HETATM    7  C15 UNL     1      21.102   4.648  51.235  1.00  0.00     0.136 C 
HETATM    8  N5  UNL     1      20.199   4.503  50.146  1.00  0.00    -0.414 N 
HETATM    9  C16 UNL     1      19.050   3.689  50.352  1.00  0.00     0.143 C 
HETATM   10  C17 UNL     1      19.981   5.734  49.427  1.00  0.00     0.136 C 
HETATM   11  C18 UNL     1      21.103   6.237  48.549  1.00  0.00     0.138 C 
HETATM   12  N6  UNL     1      21.333   5.599  47.300  1.00  0.00    -0.397 N 
HETATM   13  C19 UNL     1      21.588   4.951  46.014  1.00  0.00     0.083 C 
HETATM   14  H27 UNL     1      20.466   4.985  47.271  1.00  0.00     0.158 HD
HETATM   15  C20 UNL     1      21.994   3.623  45.932  1.00  0.00     0.017 C 
HETATM   16  C21 UNL     1      22.043   3.306  47.284  1.00  0.00     0.007 C 
HETATM   17  C22 UNL     1      22.300   2.238  47.932  1.00  0.00     0.074 C 
HETATM   18  C23 UNL     1      22.350   1.982  49.357  1.00  0.00     0.243 C 
HETATM   19  O1  UNL     1      22.379   1.290  50.294  1.00  0.00    -0.268 OA
ENDBRANCH   4   5
ENDBRANCH   3   4
BRANCH   1  20
HETATM   20  N3  UNL     1      26.887   3.171  51.701  1.00  0.00    -0.193 N 
HETATM   21  H9  UNL     1      27.700   3.746  52.047  1.00  0.00     0.184 HD
BRANCH  20  22
HETATM   22  C9  UNL     1      26.879   1.969  52.459  1.00  0.00     0.726 A 
HETATM   23  N2  UNL     1      28.177   1.754  52.808  1.00  0.00    -0.075 NA
HETATM   24  C8  UNL     1      28.456   0.620  53.542  1.00  0.00     0.138 A 
HETATM   25  C7  UNL     1      27.387  -0.184  53.851  1.00  0.00     0.048 A 
HETATM   26  C6  UNL     1      26.057   0.074  53.474  1.00  0.00     0.059 A 
HETATM   27  N7  UNL     1      25.814   1.179  52.761  1.00  0.00    -0.067 NA
BRANCH  26  28
HETATM   28  C5  UNL     1      25.031  -0.903  53.861  1.00  0.00     0.106 C 
BRANCH  28  29
HETATM   29  C4  UNL     1      24.840  -1.070  55.325  1.00  0.00     0.096 C 
HETATM   30  N1  UNL     1      23.624  -1.287  55.757  1.00  0.00    -0.269 NA
BRANCH  30  31
HETATM   31  C3  UNL     1      22.596  -1.351  54.791  1.00  0.00     0.166 C 
BRANCH  31  32
HETATM   32  C2  UNL     1      21.555  -0.553  54.723  1.00  0.00    -0.136 C 
HETATM   33  C1  UNL     1      20.691   0.345  54.280  1.00  0.00     0.098 C 
ENDBRANCH  31  32
ENDBRANCH  30  31
ENDBRANCH  28  29
ENDBRANCH  26  28
ENDBRANCH  20  22
ENDBRANCH   1  20
TORSDOF 8
ENDMDL
MODEL 2
REMARK VINA RESULT:      -7.5      5.381      7.703
REMARK  8 active torsions:
REMARK  status: ('A' for Active; 'I' for Inactive)
REMARK    1  A    between atoms: C2_2  and  C3_3 
REMARK    2  A    between atoms: C3_3  and  N1_4 
REMARK    3  A    between atoms: C4_5  and  C5_6 
REMARK    4  A    between atoms: C5_6  and  C6_7 
REMARK    5  A    between atoms: C9_11  and  N3_12 
REMARK    6  A    between atoms: N3_12  and  C10_13 
REMARK    7  A    between atoms: C12_15  and  C13_16 
REMARK    8  A    between atoms: C13_16  and  N4_17 
ROOT
HETATM    1  C10 UNL     1      26.439   5.726  48.949  1.00  0.00     0.020 C 
HETATM    2  C11 UNL     1      27.645   4.929  48.615  1.00  0.00     0.068 C 
HETATM    3  C12 UNL     1      26.348   7.016  49.121  1.00  0.00     0.018 C 
ENDROOT
BRANCH   3   4
HETATM    4  C13 UNL     1      27.555   7.988  48.984  1.00  0.00     0.155 C 
BRANCH   4   5
HETATM    5  N4  UNL     1      27.181   8.861  47.883  1.00  0.00    -0.344 N 
HETATM    6  C14 UNL     1      26.678  10.092  48.466  1.00  0.00     0.145 C 
HETATM    7  C15 UNL     1      27.863  10.754  49.082  1.00  0.00     0.136 C 
HETATM    8  N5  UNL     1      28.999  10.937  48.246  1.00  0.00    -0.414 N 
HETATM    9  C16 UNL     1      28.887  11.881  47.188  1.00  0.00     0.143 C 
HETATM   10  C17 UNL     1      30.241  10.951  48.978  1.00  0.00     0.136 C 
HETATM   11  C18 UNL     1      30.742   9.635  49.528  1.00  0.00     0.138 C 
HETATM   12  N6  UNL     1      31.330   8.700  48.633  1.00  0.00    -0.397 N 
HETATM   13  C19 UNL     1      31.933   7.724  47.726  1.00  0.00     0.083 C 
HETATM   14  H27 UNL     1      31.392   9.319  47.771  1.00  0.00     0.158 HD
HETATM   15  C20 UNL     1      31.202   7.126  46.704  1.00  0.00     0.017 C 
HETATM   16  C21 UNL     1      29.966   7.725  46.915  1.00  0.00     0.007 C 
HETATM   17  C22 UNL     1      28.843   7.667  46.314  1.00  0.00     0.074 C 
HETATM   18  C23 UNL     1      27.579   8.312  46.602  1.00  0.00     0.243 C 
HETATM   19  O1  UNL     1      26.496   8.655  46.339  1.00  0.00    -0.268 OA
ENDBRANCH   4   5
ENDBRANCH   3   4
BRANCH   1  20
HETATM   20  N3  UNL     1      25.247   4.917  49.104  1.00  0.00    -0.193 N 
HETATM   21  H9  UNL     1      24.412   4.733  48.488  1.00  0.00     0.184 HD
BRANCH  20  22
HETATM   22  C9  UNL     1      25.046   4.178  50.301  1.00  0.00     0.726 A 
HETATM   23  N2  UNL     1      24.033   4.812  50.951  1.00  0.00    -0.075 NA
HETATM   24  C8  UNL     1      23.648   4.303  52.174  1.00  0.00     0.138 A 
HETATM   25  C7  UNL     1      24.333   3.198  52.616  1.00  0.00     0.048 A 
HETATM   26  C6  UNL     1      25.375   2.569  51.913  1.00  0.00     0.059 A 
HETATM   27  N7  UNL     1      25.729   3.083  50.731  1.00  0.00    -0.067 NA
BRANCH  26  28
HETATM   28  C5  UNL     1      26.025   1.411  52.540  1.00  0.00     0.106 C 
BRANCH  28  29
HETATM   29  C4  UNL     1      26.209   1.511  54.011  1.00  0.00     0.096 C 
HETATM   30  N1  UNL     1      27.420   1.362  54.483  1.00  0.00    -0.269 NA
BRANCH  30  31
HETATM   31  C3  UNL     1      28.453   1.125  53.550  1.00  0.00     0.166 C 
BRANCH  31  32
HETATM   32  C2  UNL     1      29.371   0.191  53.641  1.00  0.00    -0.136 C 
HETATM   33  C1  UNL     1      29.955  -0.996  53.654  1.00  0.00     0.098 C 
ENDBRANCH  31  32
ENDBRANCH  30  31
ENDBRANCH  28  29
ENDBRANCH  26  28
ENDBRANCH  20  22
ENDBRANCH   1  20
TORSDOF 8
ENDMDL
MODEL 3
REMARK VINA RESULT:      -7.4      2.765      5.168
REMARK  8 active torsions:
REMARK  status: ('A' for Active; 'I' for Inactive)
REMARK    1  A    between atoms: C2_2  and  C3_3 
REMARK    2  A    between atoms: C3_3  and  N1_4 
REMARK    3  A    between atoms: C4_5  and  C5_6 
REMARK    4  A    between atoms: C5_6  and  C6_7 
REMARK    5  A    between atoms: C9_11  and  N3_12 
REMARK    6  A    between atoms: N3_12  and  C10_13 
REMARK    7  A    between atoms: C12_15  and  C13_16 
REMARK    8  A    between atoms: C13_16  and  N4_17 
ROOT
HETATM    1  C10 UNL     1      22.009   3.007  49.947  1.00  0.00     0.020 C 
HETATM    2  C11 UNL     1      20.856   3.710  50.562  1.00  0.00     0.068 C 
HETATM    3  C12 UNL     1      23.018   3.526  49.303  1.00  0.00     0.018 C 
ENDROOT
BRANCH   3   4
HETATM    4  C13 UNL     1      23.196   5.054  49.073  1.00  0.00     0.155 C 
BRANCH   4   5
HETATM    5  N4  UNL     1      24.031   5.482  50.183  1.00  0.00    -0.344 N 
HETATM    6  C14 UNL     1      25.378   5.012  49.911  1.00  0.00     0.145 C 
HETATM    7  C15 UNL     1      25.854   5.817  48.751  1.00  0.00     0.136 C 
HETATM    8  N5  UNL     1      25.754   7.231  48.871  1.00  0.00    -0.414 N 
HETATM    9  C16 UNL     1      26.614   7.871  49.807  1.00  0.00     0.143 C 
HETATM   10  C17 UNL     1      25.595   7.894  47.601  1.00  0.00     0.136 C 
HETATM   11  C18 UNL     1      24.258   7.765  46.909  1.00  0.00     0.138 C 
HETATM   12  N6  UNL     1      23.160   8.527  47.395  1.00  0.00    -0.397 N 
HETATM   13  C19 UNL     1      22.018   9.299  47.884  1.00  0.00     0.083 C 
HETATM   14  H27 UNL     1      23.685   9.145  48.082  1.00  0.00     0.158 HD
HETATM   15  C20 UNL     1      21.487   9.093  49.154  1.00  0.00     0.017 C 
HETATM   16  C21 UNL     1      22.321   8.074  49.597  1.00  0.00     0.007 C 
HETATM   17  C22 UNL     1      22.425   7.434  50.695  1.00  0.00     0.074 C 
HETATM   18  C23 UNL     1      23.316   6.361  51.087  1.00  0.00     0.243 C 
HETATM   19  O1  UNL     1      23.833   5.662  51.863  1.00  0.00    -0.268 OA
ENDBRANCH   4   5
ENDBRANCH   3   4
BRANCH   1  20
HETATM   20  N3  UNL     1      21.946   1.567  50.101  1.00  0.00    -0.193 N 
HETATM   21  H9  UNL     1      21.509   0.797  49.530  1.00  0.00     0.184 HD
BRANCH  20  22
HETATM   22  C9  UNL     1      22.557   0.951  51.226  1.00  0.00     0.726 A 
HETATM   23  N2  UNL     1      21.581   0.197  51.800  1.00  0.00    -0.075 NA
HETATM   24  C8  UNL     1      21.908  -0.501  52.943  1.00  0.00     0.138 A 
HETATM   25  C7  UNL     1      23.198  -0.362  53.393  1.00  0.00     0.048 A 
HETATM   26  C6  UNL     1      24.181   0.426  52.770  1.00  0.00     0.059 A 
HETATM   27  N7  UNL     1      23.837   1.093  51.663  1.00  0.00    -0.067 NA
BRANCH  26  28
HETATM   28  C5  UNL     1      25.509   0.490  53.395  1.00  0.00     0.106 C 
BRANCH  28  29
HETATM   29  C4  UNL     1      25.650  -0.287  54.654  1.00  0.00     0.096 C 
HETATM   30  N1  UNL     1      26.834  -0.336  55.207  1.00  0.00    -0.269 NA
BRANCH  30  31
HETATM   31  C3  UNL     1      27.879   0.361  54.562  1.00  0.00     0.166 C 
BRANCH  31  32
HETATM   32  C2  UNL     1      29.048  -0.138  54.233  1.00  0.00    -0.136 C 
HETATM   33  C1  UNL     1      30.026  -0.680  53.527  1.00  0.00     0.098 C 
ENDBRANCH  31  32
ENDBRANCH  30  31
ENDBRANCH  28  29
ENDBRANCH  26  28
ENDBRANCH  20  22
ENDBRANCH   1  20
TORSDOF 8
ENDMDL
MODEL 4
REMARK VINA RESULT:      -7.3      6.058      9.224
REMARK  8 active torsions:
REMARK  status: ('A' for Active; 'I' for Inactive)
REMARK    1  A    between atoms: C2_2  and  C3_3 
REMARK    2  A    between atoms: C3_3  and  N1_4 
REMARK    3  A    between atoms: C4_5  and  C5_6 
REMARK    4  A    between atoms: C5_6  and  C6_7 
REMARK    5  A    between atoms: C9_11  and  N3_12 
REMARK    6  A    between atoms: N3_12  and  C10_13 
REMARK    7  A    between atoms: C12_15  and  C13_16 
REMARK    8  A    between atoms: C13_16  and  N4_17 
ROOT
HETATM    1  C10 UNL     1      28.268   6.621  48.198  1.00  0.00     0.020 C 
HETATM    2  C11 UNL     1      27.982   7.504  47.041  1.00  0.00     0.068 C 
HETATM    3  C12 UNL     1      29.339   5.911  48.425  1.00  0.00     0.018 C 
ENDROOT
BRANCH   3   4
HETATM    4  C13 UNL     1      30.567   5.882  47.472  1.00  0.00     0.155 C 
BRANCH   4   5
HETATM    5  N4  UNL     1      31.419   6.952  47.962  1.00  0.00    -0.344 N 
HETATM    6  C14 UNL     1      31.904   6.547  49.270  1.00  0.00     0.145 C 
HETATM    7  C15 UNL     1      32.837   5.413  49.015  1.00  0.00     0.136 C 
HETATM    8  N5  UNL     1      33.871   5.638  48.063  1.00  0.00    -0.414 N 
HETATM    9  C16 UNL     1      34.904   6.548  48.423  1.00  0.00     0.143 C 
HETATM   10  C17 UNL     1      34.293   4.433  47.395  1.00  0.00     0.136 C 
HETATM   11  C18 UNL     1      33.355   3.836  46.372  1.00  0.00     0.138 C 
HETATM   12  N6  UNL     1      33.251   4.456  45.097  1.00  0.00    -0.397 N 
HETATM   13  C19 UNL     1      33.127   5.082  43.781  1.00  0.00     0.083 C 
HETATM   14  H27 UNL     1      34.058   5.142  45.185  1.00  0.00     0.158 HD
HETATM   15  C20 UNL     1      32.625   6.371  43.629  1.00  0.00     0.017 C 
HETATM   16  C21 UNL     1      32.357   6.679  44.957  1.00  0.00     0.007 C 
HETATM   17  C22 UNL     1      31.919   7.719  45.551  1.00  0.00     0.074 C 
HETATM   18  C23 UNL     1      31.645   7.966  46.952  1.00  0.00     0.243 C 
HETATM   19  O1  UNL     1      31.424   8.651  47.869  1.00  0.00    -0.268 OA
ENDBRANCH   4   5
ENDBRANCH   3   4
BRANCH   1  20
HETATM   20  N3  UNL     1      27.182   6.571  49.157  1.00  0.00    -0.193 N 
HETATM   21  H9  UNL     1      26.737   7.290  49.785  1.00  0.00     0.184 HD
BRANCH  20  22
HETATM   22  C9  UNL     1      26.506   5.343  49.394  1.00  0.00     0.726 A 
HETATM   23  N2  UNL     1      25.255   5.515  48.887  1.00  0.00    -0.075 NA
HETATM   24  C8  UNL     1      24.372   4.464  49.009  1.00  0.00     0.138 A 
HETATM   25  C7  UNL     1      24.848   3.338  49.634  1.00  0.00     0.048 A 
HETATM   26  C6  UNL     1      26.150   3.196  50.144  1.00  0.00     0.059 A 
HETATM   27  N7  UNL     1      26.986   4.232  50.014  1.00  0.00    -0.067 NA
BRANCH  26  28
HETATM   28  C5  UNL     1      26.494   1.934  50.811  1.00  0.00     0.106 C 
BRANCH  28  29
HETATM   29  C4  UNL     1      27.114   2.080  52.154  1.00  0.00     0.096 C 
HETATM   30  N1  UNL     1      26.922   1.118  53.019  1.00  0.00    -0.269 NA
BRANCH  30  31
HETATM   31  C3  UNL     1      26.143   0.018  52.600  1.00  0.00     0.166 C 
BRANCH  31  32
HETATM   32  C2  UNL     1      26.514  -1.241  52.629  1.00  0.00    -0.136 C 
HETATM   33  C1  UNL     1      27.252  -2.334  52.522  1.00  0.00     0.098 C 
ENDBRANCH  31  32
ENDBRANCH  30  31
ENDBRANCH  28  29
ENDBRANCH  26  28
ENDBRANCH  20  22
ENDBRANCH   1  20
TORSDOF 8
ENDMDL
MODEL 5
REMARK VINA RESULT:      -7.2      2.110      4.526
REMARK  8 active torsions:
REMARK  status: ('A' for Active; 'I' for Inactive)
REMARK    1  A    between atoms: C2_2  and  C3_3 
REMARK    2  A    between atoms: C3_3  and  N1_4 
REMARK    3  A    between atoms: C4_5  and  C5_6 
REMARK    4  A    between atoms: C5_6  and  C6_7 
REMARK    5  A    between atoms: C9_11  and  N3_12 
REMARK    6  A    between atoms: N3_12  and  C10_13 
REMARK    7  A    between atoms: C12_15  and  C13_16 
REMARK    8  A    between atoms: C13_16  and  N4_17 
ROOT
HETATM    1  C10 UNL     1      21.009   1.676  51.637  1.00  0.00     0.020 C 
HETATM    2  C11 UNL     1      19.827   2.261  52.318  1.00  0.00     0.068 C 
HETATM    3  C12 UNL     1      21.877   2.277  50.871  1.00  0.00     0.018 C 
ENDROOT
BRANCH   3   4
HETATM    4  C13 UNL     1      21.821   3.796  50.537  1.00  0.00     0.155 C 
BRANCH   4   5
HETATM    5  N4  UNL     1      21.749   3.835  49.086  1.00  0.00    -0.344 N 
HETATM    6  C14 UNL     1      20.344   3.923  48.730  1.00  0.00     0.145 C 
HETATM    7  C15 UNL     1      19.908   5.281  49.163  1.00  0.00     0.136 C 
HETATM    8  N5  UNL     1      20.687   6.379  48.702  1.00  0.00    -0.414 N 
HETATM    9  C16 UNL     1      20.629   6.685  47.314  1.00  0.00     0.143 C 
HETATM   10  C17 UNL     1      20.659   7.506  49.601  1.00  0.00     0.136 C 
HETATM   11  C18 UNL     1      21.427   7.384  50.897  1.00  0.00     0.138 C 
HETATM   12  N6  UNL     1      22.843   7.500  50.865  1.00  0.00    -0.397 N 
HETATM   13  C19 UNL     1      24.302   7.612  50.851  1.00  0.00     0.083 C 
HETATM   14  H27 UNL     1      22.956   7.822  49.858  1.00  0.00     0.158 HD
HETATM   15  C20 UNL     1      25.099   6.688  50.182  1.00  0.00     0.017 C 
HETATM   16  C21 UNL     1      24.116   5.839  49.690  1.00  0.00     0.007 C 
HETATM   17  C22 UNL     1      24.136   4.800  48.950  1.00  0.00     0.074 C 
HETATM   18  C23 UNL     1      23.063   3.946  48.485  1.00  0.00     0.243 C 
HETATM   19  O1  UNL     1      22.605   3.121  47.801  1.00  0.00    -0.268 OA
ENDBRANCH   4   5
ENDBRANCH   3   4
BRANCH   1  20
HETATM   20  N3  UNL     1      21.159   0.255  51.879  1.00  0.00    -0.193 N 
HETATM   21  H9  UNL     1      20.708  -0.602  51.464  1.00  0.00     0.184 HD
BRANCH  20  22
HETATM   22  C9  UNL     1      22.071  -0.199  52.871  1.00  0.00     0.726 A 
HETATM   23  N2  UNL     1      21.303  -0.807  53.816  1.00  0.00    -0.075 NA
HETATM   24  C8  UNL     1      21.948  -1.325  54.919  1.00  0.00     0.138 A 
HETATM   25  C7  UNL     1      23.312  -1.173  54.954  1.00  0.00     0.048 A 
HETATM   26  C6  UNL     1      24.072  -0.540  53.955  1.00  0.00     0.059 A 
HETATM   27  N7  UNL     1      23.421  -0.046  52.896  1.00  0.00    -0.067 NA
BRANCH  26  28
HETATM   28  C5  UNL     1      25.523  -0.436  54.157  1.00  0.00     0.106 C 
BRANCH  28  29
HETATM   29  C4  UNL     1      26.352  -1.171  53.166  1.00  0.00     0.096 C 
HETATM   30  N1  UNL     1      27.193  -0.476  52.445  1.00  0.00    -0.269 NA
BRANCH  30  31
HETATM   31  C3  UNL     1      27.246   0.916  52.674  1.00  0.00     0.166 C 
BRANCH  31  32
HETATM   32  C2  UNL     1      26.740   1.843  51.894  1.00  0.00    -0.136 C 
HETATM   33  C1  UNL     1      25.881   2.539  51.168  1.00  0.00     0.098 C 
ENDBRANCH  31  32
ENDBRANCH  30  31
ENDBRANCH  28  29
ENDBRANCH  26  28
ENDBRANCH  20  22
ENDBRANCH   1  20
TORSDOF 8
ENDMDL
MODEL 6
REMARK VINA RESULT:      -6.9      2.753      4.783
REMARK  8 active torsions:
REMARK  status: ('A' for Active; 'I' for Inactive)
REMARK    1  A    between atoms: C2_2  and  C3_3 
REMARK    2  A    between atoms: C3_3  and  N1_4 
REMARK    3  A    between atoms: C4_5  and  C5_6 
REMARK    4  A    between atoms: C5_6  and  C6_7 
REMARK    5  A    between atoms: C9_11  and  N3_12 
REMARK    6  A    between atoms: N3_12  and  C10_13 
REMARK    7  A    between atoms: C12_15  and  C13_16 
REMARK    8  A    between atoms: C13_16  and  N4_17 
ROOT
HETATM    1  C10 UNL     1      24.587   1.709  52.650  1.00  0.00     0.020 C 
HETATM    2  C11 UNL     1      25.752   1.470  51.763  1.00  0.00     0.068 C 
HETATM    3  C12 UNL     1      23.818   2.761  52.704  1.00  0.00     0.018 C 
ENDROOT
BRANCH   3   4
HETATM    4  C13 UNL     1      23.997   4.004  51.786  1.00  0.00     0.155 C 
BRANCH   4   5
HETATM    5  N4  UNL     1      23.049   3.784  50.707  1.00  0.00    -0.344 N 
HETATM    6  C14 UNL     1      21.742   4.188  51.196  1.00  0.00     0.145 C 
HETATM    7  C15 UNL     1      21.811   5.670  51.337  1.00  0.00     0.136 C 
HETATM    8  N5  UNL     1      22.249   6.400  50.197  1.00  0.00    -0.414 N 
HETATM    9  C16 UNL     1      21.378   6.440  49.072  1.00  0.00     0.143 C 
HETATM   10  C17 UNL     1      22.899   7.641  50.539  1.00  0.00     0.136 C 
HETATM   11  C18 UNL     1      24.285   7.561  51.134  1.00  0.00     0.138 C 
HETATM   12  N6  UNL     1      25.382   7.272  50.277  1.00  0.00    -0.397 N 
HETATM   13  C19 UNL     1      26.522   6.971  49.412  1.00  0.00     0.083 C 
HETATM   14  H27 UNL     1      24.882   7.352  49.343  1.00  0.00     0.158 HD
HETATM   15  C20 UNL     1      26.634   5.753  48.749  1.00  0.00     0.017 C 
HETATM   16  C21 UNL     1      25.476   5.131  49.197  1.00  0.00     0.007 C 
HETATM   17  C22 UNL     1      24.926   4.007  48.952  1.00  0.00     0.074 C 
HETATM   18  C23 UNL     1      23.713   3.410  49.474  1.00  0.00     0.243 C 
HETATM   19  O1  UNL     1      22.848   2.630  49.472  1.00  0.00    -0.268 OA
ENDBRANCH   4   5
ENDBRANCH   3   4
BRANCH   1  20
HETATM   20  N3  UNL     1      24.327   0.608  53.556  1.00  0.00    -0.193 N 
HETATM   21  H9  UNL     1      24.929   0.071  54.234  1.00  0.00     0.184 HD
BRANCH  20  22
HETATM   22  C9  UNL     1      23.024   0.044  53.625  1.00  0.00     0.726 A 
HETATM   23  N2  UNL     1      23.093  -0.908  54.594  1.00  0.00    -0.075 NA
HETATM   24  C8  UNL     1      21.950  -1.636  54.850  1.00  0.00     0.138 A 
HETATM   25  C7  UNL     1      20.847  -1.323  54.094  1.00  0.00     0.048 A 
HETATM   26  C6  UNL     1      20.814  -0.329  53.101  1.00  0.00     0.059 A 
HETATM   27  N7  UNL     1      21.937   0.361  52.872  1.00  0.00    -0.067 NA
BRANCH  26  28
HETATM   28  C5  UNL     1      19.560  -0.138  52.362  1.00  0.00     0.106 C 
BRANCH  28  29
HETATM   29  C4  UNL     1      19.697   0.566  51.060  1.00  0.00     0.096 C 
HETATM   30  N1  UNL     1      18.614   0.738  50.346  1.00  0.00    -0.269 NA
BRANCH  30  31
HETATM   31  C3  UNL     1      17.403   0.244  50.879  1.00  0.00     0.166 C 
BRANCH  31  32
HETATM   32  C2  UNL     1      16.571  -0.569  50.270  1.00  0.00    -0.136 C 
HETATM   33  C1  UNL     1      15.466  -1.067  49.741  1.00  0.00     0.098 C 
ENDBRANCH  31  32
ENDBRANCH  30  31
ENDBRANCH  28  29
ENDBRANCH  26  28
ENDBRANCH  20  22
ENDBRANCH   1  20
TORSDOF 8
ENDMDL
MODEL 7
REMARK VINA RESULT:      -6.9      4.951      8.095
REMARK  8 active torsions:
REMARK  status: ('A' for Active; 'I' for Inactive)
REMARK    1  A    between atoms: C2_2  and  C3_3 
REMARK    2  A    between atoms: C3_3  and  N1_4 
REMARK    3  A    between atoms: C4_5  and  C5_6 
REMARK    4  A    between atoms: C5_6  and  C6_7 
REMARK    5  A    between atoms: C9_11  and  N3_12 
REMARK    6  A    between atoms: N3_12  and  C10_13 
REMARK    7  A    between atoms: C12_15  and  C13_16 
REMARK    8  A    between atoms: C13_16  and  N4_17 
ROOT
HETATM    1  C10 UNL     1      25.716   7.160  50.213  1.00  0.00     0.020 C 
HETATM    2  C11 UNL     1      26.359   6.521  49.039  1.00  0.00     0.068 C 
HETATM    3  C12 UNL     1      24.548   6.899  50.734  1.00  0.00     0.018 C 
ENDROOT
BRANCH   3   4
HETATM    4  C13 UNL     1      23.589   5.804  50.185  1.00  0.00     0.155 C 
BRANCH   4   5
HETATM    5  N4  UNL     1      23.898   4.632  50.987  1.00  0.00    -0.344 N 
HETATM    6  C14 UNL     1      23.451   4.910  52.341  1.00  0.00     0.145 C 
HETATM    7  C15 UNL     1      21.963   4.934  52.272  1.00  0.00     0.136 C 
HETATM    8  N5  UNL     1      21.332   3.805  51.680  1.00  0.00    -0.414 N 
HETATM    9  C16 UNL     1      21.386   2.576  52.395  1.00  0.00     0.143 C 
HETATM   10  C17 UNL     1      20.068   4.124  51.064  1.00  0.00     0.136 C 
HETATM   11  C18 UNL     1      20.100   4.901  49.769  1.00  0.00     0.138 C 
HETATM   12  N6  UNL     1      20.462   4.222  48.573  1.00  0.00    -0.397 N 
HETATM   13  C19 UNL     1      20.838   3.543  47.333  1.00  0.00     0.083 C 
HETATM   14  H27 UNL     1      20.461   3.227  48.946  1.00  0.00     0.158 HD
HETATM   15  C20 UNL     1      22.108   3.004  47.151  1.00  0.00     0.017 C 
HETATM   16  C21 UNL     1      22.687   3.347  48.367  1.00  0.00     0.007 C 
HETATM   17  C22 UNL     1      23.828   3.128  48.893  1.00  0.00     0.074 C 
HETATM   18  C23 UNL     1      24.376   3.533  50.172  1.00  0.00     0.243 C 
HETATM   19  O1  UNL     1      25.152   3.483  51.040  1.00  0.00    -0.268 OA
ENDBRANCH   4   5
ENDBRANCH   3   4
BRANCH   1  20
HETATM   20  N3  UNL     1      26.526   8.204  50.808  1.00  0.00    -0.193 N 
HETATM   21  H9  UNL     1      26.759   8.462  51.802  1.00  0.00     0.184 HD
BRANCH  20  22
HETATM   22  C9  UNL     1      27.187   9.146  49.972  1.00  0.00     0.726 A 
HETATM   23  N2  UNL     1      26.199   9.925  49.455  1.00  0.00    -0.075 NA
HETATM   24  C8  UNL     1      26.572  10.922  48.578  1.00  0.00     0.138 A 
HETATM   25  C7  UNL     1      27.915  11.028  48.312  1.00  0.00     0.048 A 
HETATM   26  C6  UNL     1      28.908  10.203  48.870  1.00  0.00     0.059 A 
HETATM   27  N7  UNL     1      28.519   9.244  49.716  1.00  0.00    -0.067 NA
BRANCH  26  28
HETATM   28  C5  UNL     1      30.299  10.431  48.459  1.00  0.00     0.106 C 
BRANCH  28  29
HETATM   29  C4  UNL     1      30.703   9.753  47.200  1.00  0.00     0.096 C 
HETATM   30  N1  UNL     1      31.578   8.784  47.285  1.00  0.00    -0.269 NA
BRANCH  30  31
HETATM   31  C3  UNL     1      32.060   8.460  48.572  1.00  0.00     0.166 C 
BRANCH  31  32
HETATM   32  C2  UNL     1      32.161   7.251  49.073  1.00  0.00    -0.136 C 
HETATM   33  C1  UNL     1      31.865   6.126  49.703  1.00  0.00     0.098 C 
ENDBRANCH  31  32
ENDBRANCH  30  31
ENDBRANCH  28  29
ENDBRANCH  26  28
ENDBRANCH  20  22
ENDBRANCH   1  20
TORSDOF 8
ENDMDL
MODEL 8
REMARK VINA RESULT:      -6.8      3.851      5.952
REMARK  8 active torsions:
REMARK  status: ('A' for Active; 'I' for Inactive)
REMARK    1  A    between atoms: C2_2  and  C3_3 
REMARK    2  A    between atoms: C3_3  and  N1_4 
REMARK    3  A    between atoms: C4_5  and  C5_6 
REMARK    4  A    between atoms: C5_6  and  C6_7 
REMARK    5  A    between atoms: C9_11  and  N3_12 
REMARK    6  A    between atoms: N3_12  and  C10_13 
REMARK    7  A    between atoms: C12_15  and  C13_16 
REMARK    8  A    between atoms: C13_16  and  N4_17 
ROOT
HETATM    1  C10 UNL     1      22.897   6.271  51.465  1.00  0.00     0.020 C 
HETATM    2  C11 UNL     1      21.601   6.779  50.950  1.00  0.00     0.068 C 
HETATM    3  C12 UNL     1      24.100   6.592  51.076  1.00  0.00     0.018 C 
ENDROOT
BRANCH   3   4
HETATM    4  C13 UNL     1      24.391   7.628  49.953  1.00  0.00     0.155 C 
BRANCH   4   5
HETATM    5  N4  UNL     1      24.627   6.812  48.773  1.00  0.00    -0.344 N 
HETATM    6  C14 UNL     1      23.445   6.919  47.936  1.00  0.00     0.145 C 
HETATM    7  C15 UNL     1      23.443   8.320  47.427  1.00  0.00     0.136 C 
HETATM    8  N5  UNL     1      24.636   8.772  46.797  1.00  0.00    -0.414 N 
HETATM    9  C16 UNL     1      24.967   8.201  45.537  1.00  0.00     0.143 C 
HETATM   10  C17 UNL     1      24.832  10.196  46.919  1.00  0.00     0.136 C 
HETATM   11  C18 UNL     1      25.234  10.732  48.273  1.00  0.00     0.138 C 
HETATM   12  N6  UNL     1      26.575  10.553  48.708  1.00  0.00    -0.397 N 
HETATM   13  C19 UNL     1      27.950  10.375  49.175  1.00  0.00     0.083 C 
HETATM   14  H27 UNL     1      26.992  10.190  47.800  1.00  0.00     0.158 HD
HETATM   15  C20 UNL     1      28.483   9.111  49.412  1.00  0.00     0.017 C 
HETATM   16  C21 UNL     1      27.381   8.326  49.097  1.00  0.00     0.007 C 
HETATM   17  C22 UNL     1      27.178   7.068  49.052  1.00  0.00     0.074 C 
HETATM   18  C23 UNL     1      25.986   6.311  48.728  1.00  0.00     0.243 C 
HETATM   19  O1  UNL     1      25.410   5.338  48.443  1.00  0.00    -0.268 OA
ENDBRANCH   4   5
ENDBRANCH   3   4
BRANCH   1  20
HETATM   20  N3  UNL     1      22.744   5.291  52.522  1.00  0.00    -0.193 N 
HETATM   21  H9  UNL     1      22.233   5.294  53.443  1.00  0.00     0.184 HD
BRANCH  20  22
HETATM   22  C9  UNL     1      23.382   4.026  52.408  1.00  0.00     0.726 A 
HETATM   23  N2  UNL     1      22.717   3.374  51.416  1.00  0.00    -0.075 NA
HETATM   24  C8  UNL     1      23.128   2.093  51.113  1.00  0.00     0.138 A 
HETATM   25  C7  UNL     1      24.176   1.600  51.851  1.00  0.00     0.048 A 
HETATM   26  C6  UNL     1      24.840   2.306  52.869  1.00  0.00     0.059 A 
HETATM   27  N7  UNL     1      24.421   3.546  53.142  1.00  0.00    -0.067 NA
BRANCH  26  28
HETATM   28  C5  UNL     1      25.927   1.623  53.582  1.00  0.00     0.106 C 
BRANCH  28  29
HETATM   29  C4  UNL     1      25.632   0.224  53.987  1.00  0.00     0.096 C 
HETATM   30  N1  UNL     1      26.587  -0.452  54.573  1.00  0.00    -0.269 NA
BRANCH  30  31
HETATM   31  C3  UNL     1      27.818   0.211  54.776  1.00  0.00     0.166 C 
BRANCH  31  32
HETATM   32  C2  UNL     1      28.966  -0.117  54.230  1.00  0.00    -0.136 C 
HETATM   33  C1  UNL     1      29.912  -0.814  53.622  1.00  0.00     0.098 C 
ENDBRANCH  31  32
ENDBRANCH  30  31
ENDBRANCH  28  29
ENDBRANCH  26  28
ENDBRANCH  20  22
ENDBRANCH   1  20
TORSDOF 8
ENDMDL
MODEL 9
REMARK VINA RESULT:      -6.6      2.087      4.959
REMARK  8 active torsions:
REMARK  status: ('A' for Active; 'I' for Inactive)
REMARK    1  A    between atoms: C2_2  and  C3_3 
REMARK    2  A    between atoms: C3_3  and  N1_4 
REMARK    3  A    between atoms: C4_5  and  C5_6 
REMARK    4  A    between atoms: C5_6  and  C6_7 
REMARK    5  A    between atoms: C9_11  and  N3_12 
REMARK    6  A    between atoms: N3_12  and  C10_13 
REMARK    7  A    between atoms: C12_15  and  C13_16 
REMARK    8  A    between atoms: C13_16  and  N4_17 
ROOT
HETATM    1  C10 UNL     1      20.092   2.361  51.866  1.00  0.00     0.020 C 
HETATM    2  C11 UNL     1      19.676   1.537  50.704  1.00  0.00     0.068 C 
HETATM    3  C12 UNL     1      20.472   3.609  51.874  1.00  0.00     0.018 C 
ENDROOT
BRANCH   3   4
HETATM    4  C13 UNL     1      20.544   4.493  50.595  1.00  0.00     0.155 C 
BRANCH   4   5
HETATM    5  N4  UNL     1      21.480   5.547  50.948  1.00  0.00    -0.344 N 
HETATM    6  C14 UNL     1      22.358   5.014  51.974  1.00  0.00     0.145 C 
HETATM    7  C15 UNL     1      23.193   3.986  51.289  1.00  0.00     0.136 C 
HETATM    8  N5  UNL     1      23.873   4.399  50.110  1.00  0.00    -0.414 N 
HETATM    9  C16 UNL     1      24.944   5.323  50.261  1.00  0.00     0.143 C 
HETATM   10  C17 UNL     1      24.095   3.318  49.181  1.00  0.00     0.136 C 
HETATM   11  C18 UNL     1      22.899   2.794  48.420  1.00  0.00     0.138 C 
HETATM   12  N6  UNL     1      22.388   3.562  47.338  1.00  0.00    -0.397 N 
HETATM   13  C19 UNL     1      21.845   4.340  46.225  1.00  0.00     0.083 C 
HETATM   14  H27 UNL     1      23.165   4.284  47.272  1.00  0.00     0.158 HD
HETATM   15  C20 UNL     1      21.289   5.601  46.418  1.00  0.00     0.017 C 
HETATM   16  C21 UNL     1      21.441   5.719  47.793  1.00  0.00     0.007 C 
HETATM   17  C22 UNL     1      21.185   6.644  48.633  1.00  0.00     0.074 C 
HETATM   18  C23 UNL     1      21.355   6.694  50.071  1.00  0.00     0.243 C 
HETATM   19  O1  UNL     1      21.414   7.241  51.098  1.00  0.00    -0.268 OA
ENDBRANCH   4   5
ENDBRANCH   3   4
BRANCH   1  20
HETATM   20  N3  UNL     1      20.064   1.633  53.119  1.00  0.00    -0.193 N 
HETATM   21  H9  UNL     1      19.386   1.605  53.924  1.00  0.00     0.184 HD
BRANCH  20  22
HETATM   22  C9  UNL     1      21.128   0.748  53.444  1.00  0.00     0.726 A 
HETATM   23  N2  UNL     1      20.530  -0.372  53.932  1.00  0.00    -0.075 NA
HETATM   24  C8  UNL     1      21.351  -1.398  54.350  1.00  0.00     0.138 A 
HETATM   25  C7  UNL     1      22.702  -1.184  54.231  1.00  0.00     0.048 A 
HETATM   26  C6  UNL     1      23.283  -0.011  53.718  1.00  0.00     0.059 A 
HETATM   27  N7  UNL     1      22.464   0.968  53.321  1.00  0.00    -0.067 NA
BRANCH  26  28
HETATM   28  C5  UNL     1      24.749   0.071  53.684  1.00  0.00     0.106 C 
BRANCH  28  29
HETATM   29  C4  UNL     1      25.335   0.310  52.339  1.00  0.00     0.096 C 
HETATM   30  N1  UNL     1      26.590  -0.012  52.158  1.00  0.00    -0.269 NA
BRANCH  30  31
HETATM   31  C3  UNL     1      27.280  -0.567  53.258  1.00  0.00     0.166 C 
BRANCH  31  32
HETATM   32  C2  UNL     1      28.550  -0.901  53.279  1.00  0.00    -0.136 C 
HETATM   33  C1  UNL     1      29.818  -0.987  53.646  1.00  0.00     0.098 C 
ENDBRANCH  31  32
ENDBRANCH  30  31
ENDBRANCH  28  29
ENDBRANCH  26  28
ENDBRANCH  20  22
ENDBRANCH   1  20
TORSDOF 8
ENDMDL
