MODEL 1
REMARK VINA RESULT:      -9.0      0.000      0.000
REMARK  6 active torsions:
REMARK  status: ('A' for Active; 'I' for Inactive)
REMARK       I    between atoms: N1_2  and  C2_3 
REMARK    1  A    between atoms: C2_3  and  C3_5 
REMARK    2  A    between atoms: C5_8  and  C6_9 
REMARK    3  A    between atoms: C7_10  and  C8_11 
REMARK    4  A    between atoms: C8_11  and  S1_13 
REMARK    5  A    between atoms: S1_13  and  N3_16 
REMARK    6  A    between atoms: C18_27  and  N5_28 
ROOT
HETATM    1  C6  UNL     1      26.683   3.538  49.641  1.00  0.00     0.001 C 
HETATM    2  C7  UNL     1      25.990   2.788  50.473  1.00  0.00     0.010 C 
ENDROOT
BRANCH   1   3
HETATM    3  C5  UNL     1      26.326   4.847  49.115  1.00  0.00     0.029 C 
HETATM    4  C4  UNL     1      27.249   5.644  48.573  1.00  0.00     0.055 A 
HETATM    5  N2  UNL     1      28.567   5.123  48.554  1.00  0.00    -0.242 NA
HETATM    6  C17 UNL     1      26.930   6.983  48.026  1.00  0.00     0.210 A 
HETATM    7  C3  UNL     1      29.581   5.752  48.066  1.00  0.00     0.169 A 
HETATM    8  C18 UNL     1      29.278   7.056  47.529  1.00  0.00     0.151 A 
HETATM    9  N4  UNL     1      28.115   7.608  47.506  1.00  0.00    -0.265 NA
BRANCH   7  10
HETATM   10  C2  UNL     1      30.875   5.105  48.109  1.00  0.00     0.273 C 
HETATM   11  N1  UNL     1      31.554   4.351  47.126  1.00  0.00    -0.360 N 
HETATM   12  C1  UNL     1      32.858   3.833  47.496  1.00  0.00     0.149 C 
HETATM   13  H4  UNL     1      31.064   4.229  46.217  1.00  0.00     0.162 HD
HETATM   14  O1  UNL     1      31.573   5.181  49.163  1.00  0.00    -0.266 OA
ENDBRANCH   7  10
BRANCH   8  15
HETATM   15  N5  UNL     1      30.319   7.835  46.967  1.00  0.00    -0.382 N 
HETATM   16  H25 UNL     1      30.080   8.835  46.811  1.00  0.00     0.157 HD
HETATM   17  H26 UNL     1      31.075   7.120  46.868  1.00  0.00     0.157 HD
ENDBRANCH   8  15
ENDBRANCH   1   3
BRANCH   2  18
HETATM   18  C8  UNL     1      24.679   3.034  51.115  1.00  0.00     0.243 C 
HETATM   19 CL1  UNL     1      23.401   2.444  50.032  1.00  0.00    -0.103 Cl
BRANCH  18  20
HETATM   20  S1  UNL     1      24.671   2.232  52.689  1.00  0.00     0.233 S 
HETATM   21  O2  UNL     1      24.718   3.267  53.759  1.00  0.00    -0.209 OA
HETATM   22  O3  UNL     1      23.383   1.463  52.782  1.00  0.00    -0.209 OA
BRANCH  20  23
HETATM   23  N3  UNL     1      25.986   1.162  52.909  1.00  0.00    -0.201 NA
HETATM   24  C9  UNL     1      25.592  -0.198  53.089  1.00  0.00     0.141 C 
HETATM   25  C10 UNL     1      26.845  -1.023  52.916  1.00  0.00    -0.068 C 
HETATM   26  C11 UNL     1      26.918  -2.181  51.981  1.00  0.00     0.045 C 
HETATM   27  C12 UNL     1      27.875  -0.632  53.666  1.00  0.00    -0.079 C 
HETATM   28  C13 UNL     1      29.151  -1.402  53.550  1.00  0.00     0.044 C 
HETATM   29  C14 UNL     1      27.706   0.540  54.574  1.00  0.00     0.054 C 
HETATM   30  C15 UNL     1      26.993   1.640  53.804  1.00  0.00     0.074 C 
HETATM   31  C16 UNL     1      28.074   2.320  52.964  1.00  0.00     0.027 C 
ENDBRANCH  20  23
ENDBRANCH  18  20
ENDBRANCH   2  18
TORSDOF 6
ENDMDL
MODEL 2
REMARK VINA RESULT:      -8.5      1.460      2.254
REMARK  6 active torsions:
REMARK  status: ('A' for Active; 'I' for Inactive)
REMARK       I    between atoms: N1_2  and  C2_3 
REMARK    1  A    between atoms: C2_3  and  C3_5 
REMARK    2  A    between atoms: C5_8  and  C6_9 
REMARK    3  A    between atoms: C7_10  and  C8_11 
REMARK    4  A    between atoms: C8_11  and  S1_13 
REMARK    5  A    between atoms: S1_13  and  N3_16 
REMARK    6  A    between atoms: C18_27  and  N5_28 
ROOT
HETATM    1  C6  UNL     1      27.156   4.193  48.854  1.00  0.00     0.001 C 
HETATM    2  C7  UNL     1      26.252   3.619  49.620  1.00  0.00     0.010 C 
ENDROOT
BRANCH   1   3
HETATM    3  C5  UNL     1      27.383   5.617  48.658  1.00  0.00     0.029 C 
HETATM    4  C4  UNL     1      28.575   6.075  48.271  1.00  0.00     0.055 A 
HETATM    5  N2  UNL     1      29.572   5.087  48.074  1.00  0.00    -0.242 NA
HETATM    6  C17 UNL     1      28.849   7.516  48.060  1.00  0.00     0.210 A 
HETATM    7  C3  UNL     1      30.777   5.348  47.698  1.00  0.00     0.169 A 
HETATM    8  C18 UNL     1      31.052   6.748  47.487  1.00  0.00     0.151 A 
HETATM    9  N4  UNL     1      30.211   7.711  47.643  1.00  0.00    -0.265 NA
BRANCH   7  10
HETATM   10  C2  UNL     1      31.698   4.243  47.534  1.00  0.00     0.273 C 
HETATM   11  N1  UNL     1      32.838   3.883  48.286  1.00  0.00    -0.360 N 
HETATM   12  C1  UNL     1      33.553   2.698  47.848  1.00  0.00     0.149 C 
HETATM   13  H4  UNL     1      33.072   4.495  49.093  1.00  0.00     0.162 HD
HETATM   14  O1  UNL     1      31.522   3.423  46.585  1.00  0.00    -0.266 OA
ENDBRANCH   7  10
BRANCH   8  15
HETATM   15  N5  UNL     1      32.345   7.148  47.072  1.00  0.00    -0.382 N 
HETATM   16  H25 UNL     1      33.056   6.388  47.061  1.00  0.00     0.157 HD
HETATM   17  H26 UNL     1      32.192   8.165  46.886  1.00  0.00     0.157 HD
ENDBRANCH   8  15
ENDBRANCH   1   3
BRANCH   2  18
HETATM   18  C8  UNL     1      25.219   4.222  50.493  1.00  0.00     0.243 C 
HETATM   19 CL1  UNL     1      24.006   5.018  49.469  1.00  0.00    -0.103 Cl
BRANCH  18  20
HETATM   20  S1  UNL     1      24.533   2.946  51.505  1.00  0.00     0.233 S 
HETATM   21  O2  UNL     1      23.680   3.567  52.555  1.00  0.00    -0.209 OA
HETATM   22  O3  UNL     1      23.688   2.084  50.609  1.00  0.00    -0.209 OA
BRANCH  20  23
HETATM   23  N3  UNL     1      25.718   1.979  52.269  1.00  0.00    -0.201 NA
HETATM   24  C9  UNL     1      27.057   2.396  51.999  1.00  0.00     0.141 C 
HETATM   25  C10 UNL     1      27.928   1.680  53.003  1.00  0.00    -0.068 C 
HETATM   26  C11 UNL     1      28.908   2.397  53.866  1.00  0.00     0.045 C 
HETATM   27  C12 UNL     1      27.750   0.360  53.052  1.00  0.00    -0.079 C 
HETATM   28  C13 UNL     1      28.578  -0.418  54.022  1.00  0.00     0.044 C 
HETATM   29  C14 UNL     1      26.743  -0.268  52.147  1.00  0.00     0.054 C 
HETATM   30  C15 UNL     1      25.477   0.573  52.184  1.00  0.00     0.074 C 
HETATM   31  C16 UNL     1      24.743   0.152  53.457  1.00  0.00     0.027 C 
ENDBRANCH  20  23
ENDBRANCH  18  20
ENDBRANCH   2  18
TORSDOF 6
ENDMDL
MODEL 3
REMARK VINA RESULT:      -8.5      3.573      8.064
REMARK  6 active torsions:
REMARK  status: ('A' for Active; 'I' for Inactive)
REMARK       I    between atoms: N1_2  and  C2_3 
REMARK    1  A    between atoms: C2_3  and  C3_5 
REMARK    2  A    between atoms: C5_8  and  C6_9 
REMARK    3  A    between atoms: C7_10  and  C8_11 
REMARK    4  A    between atoms: C8_11  and  S1_13 
REMARK    5  A    between atoms: S1_13  and  N3_16 
REMARK    6  A    between atoms: C18_27  and  N5_28 
ROOT
HETATM    1  C6  UNL     1      21.936   0.910  50.702  1.00  0.00     0.001 C 
HETATM    2  C7  UNL     1      22.327   2.148  50.477  1.00  0.00     0.010 C 
ENDROOT
BRANCH   1   3
HETATM    3  C5  UNL     1      21.100   0.424  51.789  1.00  0.00     0.029 C 
HETATM    4  C4  UNL     1      21.641  -0.123  52.880  1.00  0.00     0.055 A 
HETATM    5  N2  UNL     1      23.057  -0.189  52.888  1.00  0.00    -0.242 NA
HETATM    6  C17 UNL     1      20.827  -0.629  54.009  1.00  0.00     0.210 A 
HETATM    7  C3  UNL     1      23.747  -0.680  53.860  1.00  0.00     0.169 A 
HETATM    8  C18 UNL     1      22.962  -1.174  54.965  1.00  0.00     0.151 A 
HETATM    9  N4  UNL     1      21.677  -1.157  55.042  1.00  0.00    -0.265 NA
BRANCH   7  10
HETATM   10  C2  UNL     1      25.190  -0.687  53.743  1.00  0.00     0.273 C 
HETATM   11  N1  UNL     1      26.014  -0.639  52.597  1.00  0.00    -0.360 N 
HETATM   12  C1  UNL     1      27.446  -0.662  52.831  1.00  0.00     0.149 C 
HETATM   13  H4  UNL     1      25.528  -0.591  51.680  1.00  0.00     0.162 HD
HETATM   14  O1  UNL     1      25.898  -0.742  54.791  1.00  0.00    -0.266 OA
ENDBRANCH   7  10
BRANCH   8  15
HETATM   15  N5  UNL     1      23.618  -1.736  56.087  1.00  0.00    -0.382 N 
HETATM   16  H25 UNL     1      24.067  -1.045  56.723  1.00  0.00     0.157 HD
HETATM   17  H26 UNL     1      23.445  -2.755  55.933  1.00  0.00     0.157 HD
ENDBRANCH   8  15
ENDBRANCH   1   3
BRANCH   2  18
HETATM   18  C8  UNL     1      22.046   3.390  51.233  1.00  0.00     0.243 C 
HETATM   19 CL1  UNL     1      20.655   3.101  52.299  1.00  0.00    -0.103 Cl
BRANCH  18  20
HETATM   20  S1  UNL     1      23.507   3.846  52.115  1.00  0.00     0.233 S 
HETATM   21  O2  UNL     1      23.218   5.053  52.938  1.00  0.00    -0.209 OA
HETATM   22  O3  UNL     1      23.854   2.691  53.013  1.00  0.00    -0.209 OA
BRANCH  20  23
HETATM   23  N3  UNL     1      24.835   4.189  51.094  1.00  0.00    -0.201 NA
HETATM   24  C9  UNL     1      24.550   5.170  50.097  1.00  0.00     0.141 C 
HETATM   25  C10 UNL     1      25.885   5.596  49.536  1.00  0.00    -0.068 C 
HETATM   26  C11 UNL     1      26.294   7.025  49.443  1.00  0.00     0.045 C 
HETATM   27  C12 UNL     1      26.664   4.592  49.131  1.00  0.00    -0.079 C 
HETATM   28  C13 UNL     1      28.002   4.936  48.563  1.00  0.00     0.044 C 
HETATM   29  C14 UNL     1      26.166   3.192  49.265  1.00  0.00     0.054 C 
HETATM   30  C15 UNL     1      25.547   3.035  50.644  1.00  0.00     0.074 C 
HETATM   31  C16 UNL     1      26.721   2.814  51.598  1.00  0.00     0.027 C 
ENDBRANCH  20  23
ENDBRANCH  18  20
ENDBRANCH   2  18
TORSDOF 6
ENDMDL
MODEL 4
REMARK VINA RESULT:      -8.3      3.959      8.437
REMARK  6 active torsions:
REMARK  status: ('A' for Active; 'I' for Inactive)
REMARK       I    between atoms: N1_2  and  C2_3 
REMARK    1  A    between atoms: C2_3  and  C3_5 
REMARK    2  A    between atoms: C5_8  and  C6_9 
REMARK    3  A    between atoms: C7_10  and  C8_11 
REMARK    4  A    between atoms: C8_11  and  S1_13 
REMARK    5  A    between atoms: S1_13  and  N3_16 
REMARK    6  A    between atoms: C18_27  and  N5_28 
ROOT
HETATM    1  C6  UNL     1      21.967   0.981  50.723  1.00  0.00     0.001 C 
HETATM    2  C7  UNL     1      22.353   2.232  50.585  1.00  0.00     0.010 C 
ENDROOT
BRANCH   1   3
HETATM    3  C5  UNL     1      21.137   0.416  51.776  1.00  0.00     0.029 C 
HETATM    4  C4  UNL     1      21.685  -0.135  52.861  1.00  0.00     0.055 A 
HETATM    5  N2  UNL     1      23.102  -0.124  52.898  1.00  0.00    -0.242 NA
HETATM    6  C17 UNL     1      20.877  -0.720  53.956  1.00  0.00     0.210 A 
HETATM    7  C3  UNL     1      23.798  -0.608  53.870  1.00  0.00     0.169 A 
HETATM    8  C18 UNL     1      23.020  -1.178  54.942  1.00  0.00     0.151 A 
HETATM    9  N4  UNL     1      21.734  -1.233  54.991  1.00  0.00    -0.265 NA
BRANCH   7  10
HETATM   10  C2  UNL     1      25.241  -0.533  53.784  1.00  0.00     0.273 C 
HETATM   11  N1  UNL     1      26.084  -0.403  52.658  1.00  0.00    -0.360 N 
HETATM   12  C1  UNL     1      27.511  -0.356  52.923  1.00  0.00     0.149 C 
HETATM   13  H4  UNL     1      25.615  -0.352  51.733  1.00  0.00     0.162 HD
HETATM   14  O1  UNL     1      25.930  -0.583  54.845  1.00  0.00    -0.266 OA
ENDBRANCH   7  10
BRANCH   8  15
HETATM   15  N5  UNL     1      23.682  -1.739  56.060  1.00  0.00    -0.382 N 
HETATM   16  H25 UNL     1      23.674  -1.147  56.916  1.00  0.00     0.157 HD
HETATM   17  H26 UNL     1      24.009  -2.650  55.666  1.00  0.00     0.157 HD
ENDBRANCH   8  15
ENDBRANCH   1   3
BRANCH   2  18
HETATM   18  C8  UNL     1      22.072   3.417  51.428  1.00  0.00     0.243 C 
HETATM   19 CL1  UNL     1      23.275   3.480  52.733  1.00  0.00    -0.103 Cl
BRANCH  18  20
HETATM   20  S1  UNL     1      22.100   4.852  50.397  1.00  0.00     0.233 S 
HETATM   21  O2  UNL     1      21.152   4.652  49.265  1.00  0.00    -0.209 OA
HETATM   22  O3  UNL     1      21.643   6.007  51.243  1.00  0.00    -0.209 OA
BRANCH  20  23
HETATM   23  N3  UNL     1      23.647   5.195  49.756  1.00  0.00    -0.201 NA
HETATM   24  C9  UNL     1      24.719   4.670  50.540  1.00  0.00     0.141 C 
HETATM   25  C10 UNL     1      25.951   4.753  49.672  1.00  0.00    -0.068 C 
HETATM   26  C11 UNL     1      26.840   3.582  49.431  1.00  0.00     0.045 C 
HETATM   27  C12 UNL     1      26.178   5.956  49.143  1.00  0.00    -0.079 C 
HETATM   28  C13 UNL     1      27.382   6.116  48.272  1.00  0.00     0.044 C 
HETATM   29  C14 UNL     1      25.231   7.068  49.443  1.00  0.00     0.054 C 
HETATM   30  C15 UNL     1      23.813   6.538  49.300  1.00  0.00     0.074 C 
HETATM   31  C16 UNL     1      23.517   6.557  47.800  1.00  0.00     0.027 C 
ENDBRANCH  20  23
ENDBRANCH  18  20
ENDBRANCH   2  18
TORSDOF 6
ENDMDL
MODEL 5
REMARK VINA RESULT:      -8.3      5.468      8.684
REMARK  6 active torsions:
REMARK  status: ('A' for Active; 'I' for Inactive)
REMARK       I    between atoms: N1_2  and  C2_3 
REMARK    1  A    between atoms: C2_3  and  C3_5 
REMARK    2  A    between atoms: C5_8  and  C6_9 
REMARK    3  A    between atoms: C7_10  and  C8_11 
REMARK    4  A    between atoms: C8_11  and  S1_13 
REMARK    5  A    between atoms: S1_13  and  N3_16 
REMARK    6  A    between atoms: C18_27  and  N5_28 
ROOT
HETATM    1  C6  UNL     1      21.603   0.474  51.013  1.00  0.00     0.001 C 
HETATM    2  C7  UNL     1      20.969   1.130  50.064  1.00  0.00     0.010 C 
ENDROOT
BRANCH   1   3
HETATM    3  C5  UNL     1      21.052  -0.049  52.254  1.00  0.00     0.029 C 
HETATM    4  C4  UNL     1      21.850  -0.436  53.251  1.00  0.00     0.055 A 
HETATM    5  N2  UNL     1      23.240  -0.299  53.005  1.00  0.00    -0.242 NA
HETATM    6  C17 UNL     1      21.332  -0.973  54.530  1.00  0.00     0.210 A 
HETATM    7  C3  UNL     1      24.155  -0.618  53.856  1.00  0.00     0.169 A 
HETATM    8  C18 UNL     1      23.658  -1.140  55.105  1.00  0.00     0.151 A 
HETATM    9  N4  UNL     1      22.418  -1.301  55.413  1.00  0.00    -0.265 NA
BRANCH   7  10
HETATM   10  C2  UNL     1      25.539  -0.427  53.479  1.00  0.00     0.273 C 
HETATM   11  N1  UNL     1      26.616  -1.340  53.460  1.00  0.00    -0.360 N 
HETATM   12  C1  UNL     1      27.897  -0.818  53.021  1.00  0.00     0.149 C 
HETATM   13  H4  UNL     1      26.404  -2.312  53.763  1.00  0.00     0.162 HD
HETATM   14  O1  UNL     1      25.925   0.715  53.090  1.00  0.00    -0.266 OA
ENDBRANCH   7  10
BRANCH   8  15
HETATM   15  N5  UNL     1      24.576  -1.523  56.113  1.00  0.00    -0.382 N 
HETATM   16  H25 UNL     1      24.272  -1.313  57.085  1.00  0.00     0.157 HD
HETATM   17  H26 UNL     1      25.346  -1.935  55.538  1.00  0.00     0.157 HD
ENDBRANCH   8  15
ENDBRANCH   1   3
BRANCH   2  18
HETATM   18  C8  UNL     1      19.546   1.527  49.963  1.00  0.00     0.243 C 
HETATM   19 CL1  UNL     1      18.546   0.216  50.623  1.00  0.00    -0.103 Cl
BRANCH  18  20
HETATM   20  S1  UNL     1      19.333   3.055  50.824  1.00  0.00     0.233 S 
HETATM   21  O2  UNL     1      18.318   3.876  50.108  1.00  0.00    -0.209 OA
HETATM   22  O3  UNL     1      18.833   2.716  52.200  1.00  0.00    -0.209 OA
BRANCH  20  23
HETATM   23  N3  UNL     1      20.775   3.964  50.954  1.00  0.00    -0.201 NA
HETATM   24  C9  UNL     1      21.288   4.034  52.285  1.00  0.00     0.141 C 
HETATM   25  C10 UNL     1      22.701   4.552  52.162  1.00  0.00    -0.068 C 
HETATM   26  C11 UNL     1      23.863   3.860  52.785  1.00  0.00     0.045 C 
HETATM   27  C12 UNL     1      22.822   5.675  51.453  1.00  0.00    -0.079 C 
HETATM   28  C13 UNL     1      24.191   6.248  51.287  1.00  0.00     0.044 C 
HETATM   29  C14 UNL     1      21.598   6.295  50.866  1.00  0.00     0.054 C 
HETATM   30  C15 UNL     1      20.765   5.194  50.228  1.00  0.00     0.074 C 
HETATM   31  C16 UNL     1      21.407   4.933  48.865  1.00  0.00     0.027 C 
ENDBRANCH  20  23
ENDBRANCH  18  20
ENDBRANCH   2  18
TORSDOF 6
ENDMDL
MODEL 6
REMARK VINA RESULT:      -8.2      4.128      8.026
REMARK  6 active torsions:
REMARK  status: ('A' for Active; 'I' for Inactive)
REMARK       I    between atoms: N1_2  and  C2_3 
REMARK    1  A    between atoms: C2_3  and  C3_5 
REMARK    2  A    between atoms: C5_8  and  C6_9 
REMARK    3  A    between atoms: C7_10  and  C8_11 
REMARK    4  A    between atoms: C8_11  and  S1_13 
REMARK    5  A    between atoms: S1_13  and  N3_16 
REMARK    6  A    between atoms: C18_27  and  N5_28 
ROOT
HETATM    1  C6  UNL     1      21.968   0.649  51.036  1.00  0.00     0.001 C 
HETATM    2  C7  UNL     1      21.734   1.828  50.498  1.00  0.00     0.010 C 
ENDROOT
BRANCH   1   3
HETATM    3  C5  UNL     1      21.353   0.074  52.223  1.00  0.00     0.029 C 
HETATM    4  C4  UNL     1      22.097  -0.355  53.243  1.00  0.00     0.055 A 
HETATM    5  N2  UNL     1      23.497  -0.209  53.078  1.00  0.00    -0.242 NA
HETATM    6  C17 UNL     1      21.512  -0.946  54.469  1.00  0.00     0.210 A 
HETATM    7  C3  UNL     1      24.366  -0.565  53.962  1.00  0.00     0.169 A 
HETATM    8  C18 UNL     1      23.804  -1.139  55.160  1.00  0.00     0.151 A 
HETATM    9  N4  UNL     1      22.550  -1.311  55.394  1.00  0.00    -0.265 NA
BRANCH   7  10
HETATM   10  C2  UNL     1      25.768  -0.360  53.667  1.00  0.00     0.273 C 
HETATM   11  N1  UNL     1      26.711   0.506  54.264  1.00  0.00    -0.360 N 
HETATM   12  C1  UNL     1      28.057   0.466  53.722  1.00  0.00     0.149 C 
HETATM   13  H4  UNL     1      26.364   1.100  55.043  1.00  0.00     0.162 HD
HETATM   14  O1  UNL     1      26.312  -1.026  52.737  1.00  0.00    -0.266 OA
ENDBRANCH   7  10
BRANCH   8  15
HETATM   15  N5  UNL     1      24.668  -1.565  56.197  1.00  0.00    -0.382 N 
HETATM   16  H25 UNL     1      24.267  -1.499  57.155  1.00  0.00     0.157 HD
HETATM   17  H26 UNL     1      25.517  -1.840  55.653  1.00  0.00     0.157 HD
ENDBRANCH   8  15
ENDBRANCH   1   3
BRANCH   2  18
HETATM   18  C8  UNL     1      20.803   2.901  50.915  1.00  0.00     0.243 C 
HETATM   19 CL1  UNL     1      19.891   2.338  52.331  1.00  0.00    -0.103 Cl
BRANCH  18  20
HETATM   20  S1  UNL     1      21.745   4.360  51.238  1.00  0.00     0.233 S 
HETATM   21  O2  UNL     1      21.024   5.536  50.677  1.00  0.00    -0.209 OA
HETATM   22  O3  UNL     1      21.847   4.493  52.732  1.00  0.00    -0.209 OA
BRANCH  20  23
HETATM   23  N3  UNL     1      23.316   4.313  50.566  1.00  0.00    -0.201 NA
HETATM   24  C9  UNL     1      24.333   3.984  51.512  1.00  0.00     0.141 C 
HETATM   25  C10 UNL     1      25.564   3.648  50.704  1.00  0.00    -0.068 C 
HETATM   26  C11 UNL     1      26.328   2.384  50.900  1.00  0.00     0.045 C 
HETATM   27  C12 UNL     1      25.908   4.571  49.806  1.00  0.00    -0.079 C 
HETATM   28  C13 UNL     1      27.117   4.307  48.968  1.00  0.00     0.044 C 
HETATM   29  C14 UNL     1      25.080   5.805  49.683  1.00  0.00     0.054 C 
HETATM   30  C15 UNL     1      23.614   5.399  49.686  1.00  0.00     0.074 C 
HETATM   31  C16 UNL     1      23.315   4.935  48.260  1.00  0.00     0.027 C 
ENDBRANCH  20  23
ENDBRANCH  18  20
ENDBRANCH   2  18
TORSDOF 6
ENDMDL
MODEL 7
REMARK VINA RESULT:      -8.2      3.559      5.102
REMARK  6 active torsions:
REMARK  status: ('A' for Active; 'I' for Inactive)
REMARK       I    between atoms: N1_2  and  C2_3 
REMARK    1  A    between atoms: C2_3  and  C3_5 
REMARK    2  A    between atoms: C5_8  and  C6_9 
REMARK    3  A    between atoms: C7_10  and  C8_11 
REMARK    4  A    between atoms: C8_11  and  S1_13 
REMARK    5  A    between atoms: S1_13  and  N3_16 
REMARK    6  A    between atoms: C18_27  and  N5_28 
ROOT
HETATM    1  C6  UNL     1      26.357   3.083  50.784  1.00  0.00     0.001 C 
HETATM    2  C7  UNL     1      26.802   2.165  51.617  1.00  0.00     0.010 C 
ENDROOT
BRANCH   1   3
HETATM    3  C5  UNL     1      25.123   3.064  50.015  1.00  0.00     0.029 C 
HETATM    4  C4  UNL     1      24.682   4.160  49.395  1.00  0.00     0.055 A 
HETATM    5  N2  UNL     1      25.495   5.312  49.547  1.00  0.00    -0.242 NA
HETATM    6  C17 UNL     1      23.432   4.185  48.602  1.00  0.00     0.210 A 
HETATM    7  C3  UNL     1      25.227   6.456  49.015  1.00  0.00     0.169 A 
HETATM    8  C18 UNL     1      24.012   6.487  48.239  1.00  0.00     0.151 A 
HETATM    9  N4  UNL     1      23.214   5.494  48.050  1.00  0.00    -0.265 NA
BRANCH   7  10
HETATM   10  C2  UNL     1      26.143   7.552  49.248  1.00  0.00     0.273 C 
HETATM   11  N1  UNL     1      26.610   8.111  50.458  1.00  0.00    -0.360 N 
HETATM   12  C1  UNL     1      27.538   9.222  50.339  1.00  0.00     0.149 C 
HETATM   13  H4  UNL     1      26.252   7.683  51.334  1.00  0.00     0.162 HD
HETATM   14  O1  UNL     1      26.650   8.158  48.259  1.00  0.00    -0.266 OA
ENDBRANCH   7  10
BRANCH   8  15
HETATM   15  N5  UNL     1      23.620   7.694  47.610  1.00  0.00    -0.382 N 
HETATM   16  H25 UNL     1      22.615   7.744  47.347  1.00  0.00     0.157 HD
HETATM   17  H26 UNL     1      24.525   8.216  47.594  1.00  0.00     0.157 HD
ENDBRANCH   8  15
ENDBRANCH   1   3
BRANCH   2  18
HETATM   18  C8  UNL     1      26.205   0.870  52.020  1.00  0.00     0.243 C 
HETATM   19 CL1  UNL     1      27.517  -0.285  52.330  1.00  0.00    -0.103 Cl
BRANCH  18  20
HETATM   20  S1  UNL     1      25.182   1.146  53.433  1.00  0.00     0.233 S 
HETATM   21  O2  UNL     1      25.674   0.304  54.559  1.00  0.00    -0.209 OA
HETATM   22  O3  UNL     1      25.314   2.600  53.792  1.00  0.00    -0.209 OA
BRANCH  20  23
HETATM   23  N3  UNL     1      23.535   0.778  53.159  1.00  0.00    -0.201 NA
HETATM   24  C9  UNL     1      23.209  -0.591  53.396  1.00  0.00     0.141 C 
HETATM   25  C10 UNL     1      21.701  -0.659  53.451  1.00  0.00    -0.068 C 
HETATM   26  C11 UNL     1      20.970  -1.294  54.583  1.00  0.00     0.045 C 
HETATM   27  C12 UNL     1      21.082  -0.106  52.408  1.00  0.00    -0.079 C 
HETATM   28  C13 UNL     1      19.588  -0.134  52.391  1.00  0.00     0.044 C 
HETATM   29  C14 UNL     1      21.901   0.508  51.322  1.00  0.00     0.054 C 
HETATM   30  C15 UNL     1      22.994   1.347  51.965  1.00  0.00     0.074 C 
HETATM   31  C16 UNL     1      22.326   2.669  52.344  1.00  0.00     0.027 C 
ENDBRANCH  20  23
ENDBRANCH  18  20
ENDBRANCH   2  18
TORSDOF 6
ENDMDL
MODEL 8
REMARK VINA RESULT:      -7.9      2.346      3.957
REMARK  6 active torsions:
REMARK  status: ('A' for Active; 'I' for Inactive)
REMARK       I    between atoms: N1_2  and  C2_3 
REMARK    1  A    between atoms: C2_3  and  C3_5 
REMARK    2  A    between atoms: C5_8  and  C6_9 
REMARK    3  A    between atoms: C7_10  and  C8_11 
REMARK    4  A    between atoms: C8_11  and  S1_13 
REMARK    5  A    between atoms: S1_13  and  N3_16 
REMARK    6  A    between atoms: C18_27  and  N5_28 
ROOT
HETATM    1  C6  UNL     1      24.459   4.255  49.393  1.00  0.00     0.001 C 
HETATM    2  C7  UNL     1      23.765   4.131  50.505  1.00  0.00     0.010 C 
ENDROOT
BRANCH   1   3
HETATM    3  C5  UNL     1      25.902   4.161  49.228  1.00  0.00     0.029 C 
HETATM    4  C4  UNL     1      26.615   5.207  48.808  1.00  0.00     0.055 A 
HETATM    5  N2  UNL     1      25.871   6.383  48.542  1.00  0.00    -0.242 NA
HETATM    6  C17 UNL     1      28.085   5.154  48.628  1.00  0.00     0.210 A 
HETATM    7  C3  UNL     1      26.395   7.488  48.134  1.00  0.00     0.169 A 
HETATM    8  C18 UNL     1      27.825   7.446  47.958  1.00  0.00     0.151 A 
HETATM    9  N4  UNL     1      28.580   6.425  48.172  1.00  0.00    -0.265 NA
BRANCH   7  10
HETATM   10  C2  UNL     1      25.520   8.617  47.900  1.00  0.00     0.273 C 
HETATM   11  N1  UNL     1      24.429   8.761  47.014  1.00  0.00    -0.360 N 
HETATM   12  C1  UNL     1      23.752  10.045  47.027  1.00  0.00     0.149 C 
HETATM   13  H4  UNL     1      24.200   7.936  46.425  1.00  0.00     0.162 HD
HETATM   14  O1  UNL     1      25.695   9.686  48.557  1.00  0.00    -0.266 OA
ENDBRANCH   7  10
BRANCH   8  15
HETATM   15  N5  UNL     1      28.505   8.605  47.512  1.00  0.00    -0.382 N 
HETATM   16  H25 UNL     1      29.361   8.846  48.053  1.00  0.00     0.157 HD
HETATM   17  H26 UNL     1      27.901   8.898  46.711  1.00  0.00     0.157 HD
ENDBRANCH   8  15
ENDBRANCH   1   3
BRANCH   2  18
HETATM   18  C8  UNL     1      24.218   3.864  51.889  1.00  0.00     0.243 C 
HETATM   19 CL1  UNL     1      23.250   4.853  53.002  1.00  0.00    -0.103 Cl
BRANCH  18  20
HETATM   20  S1  UNL     1      24.066   2.131  52.199  1.00  0.00     0.233 S 
HETATM   21  O2  UNL     1      23.019   1.915  53.235  1.00  0.00    -0.209 OA
HETATM   22  O3  UNL     1      23.641   1.492  50.906  1.00  0.00    -0.209 OA
BRANCH  20  23
HETATM   23  N3  UNL     1      25.521   1.410  52.736  1.00  0.00    -0.201 NA
HETATM   24  C9  UNL     1      26.694   2.038  52.218  1.00  0.00     0.141 C 
HETATM   25  C10 UNL     1      27.845   1.520  53.047  1.00  0.00    -0.068 C 
HETATM   26  C11 UNL     1      28.826   2.426  53.708  1.00  0.00     0.045 C 
HETATM   27  C12 UNL     1      27.911   0.191  53.138  1.00  0.00    -0.079 C 
HETATM   28  C13 UNL     1      29.025  -0.396  53.942  1.00  0.00     0.044 C 
HETATM   29  C14 UNL     1      26.882  -0.633  52.440  1.00  0.00     0.054 C 
HETATM   30  C15 UNL     1      25.517  -0.018  52.707  1.00  0.00     0.074 C 
HETATM   31  C16 UNL     1      25.111  -0.508  54.097  1.00  0.00     0.027 C 
ENDBRANCH  20  23
ENDBRANCH  18  20
ENDBRANCH   2  18
TORSDOF 6
ENDMDL
MODEL 9
REMARK VINA RESULT:      -7.9      2.244      2.754
REMARK  6 active torsions:
REMARK  status: ('A' for Active; 'I' for Inactive)
REMARK       I    between atoms: N1_2  and  C2_3 
REMARK    1  A    between atoms: C2_3  and  C3_5 
REMARK    2  A    between atoms: C5_8  and  C6_9 
REMARK    3  A    between atoms: C7_10  and  C8_11 
REMARK    4  A    between atoms: C8_11  and  S1_13 
REMARK    5  A    between atoms: S1_13  and  N3_16 
REMARK    6  A    between atoms: C18_27  and  N5_28 
ROOT
HETATM    1  C6  UNL     1      27.440   4.656  48.629  1.00  0.00     0.001 C 
HETATM    2  C7  UNL     1      26.476   4.085  49.322  1.00  0.00     0.010 C 
ENDROOT
BRANCH   1   3
HETATM    3  C5  UNL     1      27.791   6.068  48.590  1.00  0.00     0.029 C 
HETATM    4  C4  UNL     1      29.038   6.458  48.322  1.00  0.00     0.055 A 
HETATM    5  N2  UNL     1      29.965   5.412  48.087  1.00  0.00    -0.242 NA
HETATM    6  C17 UNL     1      29.438   7.883  48.271  1.00  0.00     0.210 A 
HETATM    7  C3  UNL     1      31.210   5.603  47.811  1.00  0.00     0.169 A 
HETATM    8  C18 UNL     1      31.607   6.989  47.756  1.00  0.00     0.151 A 
HETATM    9  N4  UNL     1      30.836   8.000  47.957  1.00  0.00    -0.265 NA
BRANCH   7  10
HETATM   10  C2  UNL     1      32.050   4.445  47.592  1.00  0.00     0.273 C 
HETATM   11  N1  UNL     1      31.822   3.282  46.826  1.00  0.00    -0.360 N 
HETATM   12  C1  UNL     1      32.887   2.295  46.818  1.00  0.00     0.149 C 
HETATM   13  H4  UNL     1      30.911   3.226  46.330  1.00  0.00     0.162 HD
HETATM   14  O1  UNL     1      33.190   4.392  48.143  1.00  0.00    -0.266 OA
ENDBRANCH   7  10
BRANCH   8  15
HETATM   15  N5  UNL     1      32.953   7.315  47.461  1.00  0.00    -0.382 N 
HETATM   16  H25 UNL     1      33.244   7.125  46.480  1.00  0.00     0.157 HD
HETATM   17  H26 UNL     1      33.281   7.676  48.385  1.00  0.00     0.157 HD
ENDBRANCH   8  15
ENDBRANCH   1   3
BRANCH   2  18
HETATM   18  C8  UNL     1      25.482   4.679  50.246  1.00  0.00     0.243 C 
HETATM   19 CL1  UNL     1      24.992   6.262  49.608  1.00  0.00    -0.103 Cl
BRANCH  18  20
HETATM   20  S1  UNL     1      24.130   3.553  50.406  1.00  0.00     0.233 S 
HETATM   21  O2  UNL     1      22.920   4.308  50.833  1.00  0.00    -0.209 OA
HETATM   22  O3  UNL     1      23.900   2.950  49.048  1.00  0.00    -0.209 OA
BRANCH  20  23
HETATM   23  N3  UNL     1      24.420   2.305  51.538  1.00  0.00    -0.201 NA
HETATM   24  C9  UNL     1      23.297   2.019  52.372  1.00  0.00     0.141 C 
HETATM   25  C10 UNL     1      23.599   0.701  53.043  1.00  0.00    -0.068 C 
HETATM   26  C11 UNL     1      22.646  -0.445  53.020  1.00  0.00     0.045 C 
HETATM   27  C12 UNL     1      24.782   0.646  53.654  1.00  0.00    -0.079 C 
HETATM   28  C13 UNL     1      25.152  -0.629  54.340  1.00  0.00     0.044 C 
HETATM   29  C14 UNL     1      25.669   1.845  53.622  1.00  0.00     0.054 C 
HETATM   30  C15 UNL     1      25.681   2.392  52.203  1.00  0.00     0.074 C 
HETATM   31  C16 UNL     1      26.671   1.516  51.435  1.00  0.00     0.027 C 
ENDBRANCH  20  23
ENDBRANCH  18  20
ENDBRANCH   2  18
TORSDOF 6
ENDMDL
