MODEL 1
REMARK VINA RESULT:      -8.7      0.000      0.000
REMARK  5 active torsions:
REMARK  status: ('A' for Active; 'I' for Inactive)
REMARK    1  A    between atoms: N1_1  and  C1_2 
REMARK    2  A    between atoms: C1_2  and  C14_19 
REMARK    3  A    between atoms: C2_3  and  C3_4 
REMARK    4  A    between atoms: C5_6  and  C6_7 
REMARK    5  A    between atoms: C17_22  and  O1_23 
ROOT
HETATM    1  C3  UNL     1      25.461   3.335  51.070  1.00  0.00     0.136 C 
HETATM    2  C4  UNL     1      23.963   3.306  50.929  1.00  0.00     0.061 C 
HETATM    3  C5  UNL     1      23.259   4.136  51.957  1.00  0.00     0.117 C 
HETATM    4  N2  UNL     1      23.769   5.461  52.129  1.00  0.00    -0.376 N 
HETATM    5  C12 UNL     1      24.432   6.424  51.304  1.00  0.00     0.204 C 
HETATM    6  N3  UNL     1      25.247   6.380  50.314  1.00  0.00    -0.238 NA
HETATM    7  C13 UNL     1      25.848   5.302  49.604  1.00  0.00     0.228 C 
HETATM    8  N4  UNL     1      25.964   4.024  49.872  1.00  0.00    -0.274 NA
HETATM    9  H12 UNL     1      23.605   5.800  53.123  1.00  0.00     0.161 HD
ENDROOT
BRANCH   1  10
HETATM   10  C2  UNL     1      26.085   1.997  51.147  1.00  0.00     0.030 C 
HETATM   11  C1  UNL     1      26.466   1.648  52.344  1.00  0.00     0.034 C 
BRANCH  11  12
HETATM   12  N1  UNL     1      26.252   2.554  53.417  1.00  0.00    -0.399 N 
HETATM   13  H1  UNL     1      25.532   3.274  53.645  1.00  0.00     0.156 HD
HETATM   14  H2  UNL     1      26.775   2.741  54.284  1.00  0.00     0.156 HD
ENDBRANCH  11  12
BRANCH  11  15
HETATM   15  C14 UNL     1      27.102   0.370  52.633  1.00  0.00    -0.010 A 
HETATM   16  C15 UNL     1      28.327   0.258  53.256  1.00  0.00     0.016 A 
HETATM   17  C16 UNL     1      28.961  -0.932  53.547  1.00  0.00     0.037 A 
HETATM   18  C17 UNL     1      28.330  -2.104  53.191  1.00  0.00     0.065 A 
HETATM   19  C18 UNL     1      27.112  -2.044  52.571  1.00  0.00     0.037 A 
HETATM   20  C19 UNL     1      26.503  -0.824  52.294  1.00  0.00     0.016 A 
BRANCH  18  21
HETATM   21  O1  UNL     1      28.883  -3.365  53.439  1.00  0.00    -0.361 OA
HETATM   22  H17 UNL     1      28.296  -4.125  53.702  1.00  0.00     0.217 HD
ENDBRANCH  18  21
ENDBRANCH  11  15
ENDBRANCH   1  10
BRANCH   3  23
HETATM   23  C6  UNL     1      21.820   4.235  51.543  1.00  0.00    -0.035 A 
HETATM   24  C7  UNL     1      21.256   5.082  50.622  1.00  0.00     0.010 A 
HETATM   25  C8  UNL     1      19.914   5.014  50.386  1.00  0.00     0.019 A 
HETATM   26  C9  UNL     1      19.060   4.119  51.037  1.00  0.00     0.011 A 
HETATM   27 BR1  UNL     1      17.193   4.077  50.661  1.00  0.00    -0.051 Br
HETATM   28  C10 UNL     1      19.661   3.284  51.956  1.00  0.00     0.019 A 
HETATM   29  C11 UNL     1      21.024   3.321  52.224  1.00  0.00     0.010 A 
ENDBRANCH   3  23
TORSDOF 5
ENDMDL
MODEL 2
REMARK VINA RESULT:      -8.6      3.201      4.828
REMARK  5 active torsions:
REMARK  status: ('A' for Active; 'I' for Inactive)
REMARK    1  A    between atoms: N1_1  and  C1_2 
REMARK    2  A    between atoms: C1_2  and  C14_19 
REMARK    3  A    between atoms: C2_3  and  C3_4 
REMARK    4  A    between atoms: C5_6  and  C6_7 
REMARK    5  A    between atoms: C17_22  and  O1_23 
ROOT
HETATM    1  C3  UNL     1      24.608   2.646  51.471  1.00  0.00     0.136 C 
HETATM    2  C4  UNL     1      25.568   3.512  50.701  1.00  0.00     0.061 C 
HETATM    3  C5  UNL     1      24.970   4.089  49.456  1.00  0.00     0.117 C 
HETATM    4  N2  UNL     1      23.687   4.700  49.617  1.00  0.00    -0.376 N 
HETATM    5  C12 UNL     1      22.990   5.367  50.675  1.00  0.00     0.204 C 
HETATM    6  N3  UNL     1      22.967   5.285  51.955  1.00  0.00    -0.238 NA
HETATM    7  C13 UNL     1      23.659   4.456  52.882  1.00  0.00     0.228 C 
HETATM    8  N4  UNL     1      24.354   3.354  52.735  1.00  0.00    -0.274 NA
HETATM    9  H12 UNL     1      23.124   4.634  48.718  1.00  0.00     0.161 HD
ENDROOT
BRANCH   1  10
HETATM   10  C2  UNL     1      25.127   1.296  51.778  1.00  0.00     0.030 C 
HETATM   11  C1  UNL     1      26.371   1.273  52.168  1.00  0.00     0.034 C 
BRANCH  11  12
HETATM   12  N1  UNL     1      27.079   2.501  52.256  1.00  0.00    -0.399 N 
HETATM   13  H1  UNL     1      27.265   3.296  51.607  1.00  0.00     0.156 HD
HETATM   14  H2  UNL     1      27.615   2.942  53.017  1.00  0.00     0.156 HD
ENDBRANCH  11  12
BRANCH  11  15
HETATM   15  C14 UNL     1      27.070   0.043  52.518  1.00  0.00    -0.010 A 
HETATM   16  C15 UNL     1      28.297   0.023  53.147  1.00  0.00     0.016 A 
HETATM   17  C16 UNL     1      28.989  -1.118  53.495  1.00  0.00     0.037 A 
HETATM   18  C17 UNL     1      28.419  -2.336  53.195  1.00  0.00     0.065 A 
HETATM   19  C18 UNL     1      27.202  -2.367  52.572  1.00  0.00     0.037 A 
HETATM   20  C19 UNL     1      26.532  -1.194  52.237  1.00  0.00     0.016 A 
BRANCH  18  21
HETATM   21  O1  UNL     1      29.034  -3.554  53.504  1.00  0.00    -0.361 OA
HETATM   22  H17 UNL     1      29.187  -4.231  52.791  1.00  0.00     0.217 HD
ENDBRANCH  18  21
ENDBRANCH  11  15
ENDBRANCH   1  10
BRANCH   3  23
HETATM   23  C6  UNL     1      25.924   5.127  48.940  1.00  0.00    -0.035 A 
HETATM   24  C7  UNL     1      25.651   6.413  48.549  1.00  0.00     0.010 A 
HETATM   25  C8  UNL     1      26.669   7.206  48.105  1.00  0.00     0.019 A 
HETATM   26  C9  UNL     1      27.999   6.781  48.023  1.00  0.00     0.011 A 
HETATM   27 BR1  UNL     1      29.373   7.942  47.394  1.00  0.00    -0.051 Br
HETATM   28  C10 UNL     1      28.236   5.484  48.424  1.00  0.00     0.019 A 
HETATM   29  C11 UNL     1      27.227   4.644  48.882  1.00  0.00     0.010 A 
ENDBRANCH   3  23
TORSDOF 5
ENDMDL
MODEL 3
REMARK VINA RESULT:      -8.4      4.211      6.086
REMARK  5 active torsions:
REMARK  status: ('A' for Active; 'I' for Inactive)
REMARK    1  A    between atoms: N1_1  and  C1_2 
REMARK    2  A    between atoms: C1_2  and  C14_19 
REMARK    3  A    between atoms: C2_3  and  C3_4 
REMARK    4  A    between atoms: C5_6  and  C6_7 
REMARK    5  A    between atoms: C17_22  and  O1_23 
ROOT
HETATM    1  C3  UNL     1      23.601   4.068  51.134  1.00  0.00     0.136 C 
HETATM    2  C4  UNL     1      24.890   4.663  50.634  1.00  0.00     0.061 C 
HETATM    3  C5  UNL     1      25.011   4.636  49.142  1.00  0.00     0.117 C 
HETATM    4  N2  UNL     1      23.870   5.115  48.425  1.00  0.00    -0.376 N 
HETATM    5  C12 UNL     1      22.825   6.062  48.669  1.00  0.00     0.204 C 
HETATM    6  N3  UNL     1      22.191   6.487  49.700  1.00  0.00    -0.238 NA
HETATM    7  C13 UNL     1      22.279   6.170  51.086  1.00  0.00     0.228 C 
HETATM    8  N4  UNL     1      22.850   5.182  51.732  1.00  0.00    -0.274 NA
HETATM    9  H12 UNL     1      23.795   4.640  47.476  1.00  0.00     0.161 HD
ENDROOT
BRANCH   1  10
HETATM   10  C2  UNL     1      23.780   3.013  52.153  1.00  0.00     0.030 C 
HETATM   11  C1  UNL     1      22.817   2.135  52.195  1.00  0.00     0.034 C 
BRANCH  11  12
HETATM   12  N1  UNL     1      21.731   2.274  51.291  1.00  0.00    -0.399 N 
HETATM   13  H1  UNL     1      21.636   2.516  50.281  1.00  0.00     0.156 HD
HETATM   14  H2  UNL     1      20.713   2.166  51.405  1.00  0.00     0.156 HD
ENDBRANCH  11  12
BRANCH  11  15
HETATM   15  C14 UNL     1      22.804   1.017  53.128  1.00  0.00    -0.010 A 
HETATM   16  C15 UNL     1      21.657   0.556  53.740  1.00  0.00     0.016 A 
HETATM   17  C16 UNL     1      21.603  -0.499  54.628  1.00  0.00     0.037 A 
HETATM   18  C17 UNL     1      22.780  -1.148  54.933  1.00  0.00     0.065 A 
HETATM   19  C18 UNL     1      23.944  -0.727  54.350  1.00  0.00     0.037 A 
HETATM   20  C19 UNL     1      23.959   0.341  53.458  1.00  0.00     0.016 A 
BRANCH  18  21
HETATM   21  O1  UNL     1      22.839  -2.229  55.819  1.00  0.00    -0.361 OA
HETATM   22  H17 UNL     1      22.013  -2.736  56.043  1.00  0.00     0.217 HD
ENDBRANCH  18  21
ENDBRANCH  11  15
ENDBRANCH   1  10
BRANCH   3  23
HETATM   23  C6  UNL     1      26.191   5.486  48.772  1.00  0.00    -0.035 A 
HETATM   24  C7  UNL     1      26.219   6.832  48.503  1.00  0.00     0.010 A 
HETATM   25  C8  UNL     1      27.405   7.424  48.183  1.00  0.00     0.019 A 
HETATM   26  C9  UNL     1      28.618   6.733  48.111  1.00  0.00     0.011 A 
HETATM   27 BR1  UNL     1      30.241   7.623  47.658  1.00  0.00    -0.051 Br
HETATM   28  C10 UNL     1      28.553   5.384  48.387  1.00  0.00     0.019 A 
HETATM   29  C11 UNL     1      27.364   4.742  48.717  1.00  0.00     0.010 A 
ENDBRANCH   3  23
TORSDOF 5
ENDMDL
MODEL 4
REMARK VINA RESULT:      -8.3      3.028      3.795
REMARK  5 active torsions:
REMARK  status: ('A' for Active; 'I' for Inactive)
REMARK    1  A    between atoms: N1_1  and  C1_2 
REMARK    2  A    between atoms: C1_2  and  C14_19 
REMARK    3  A    between atoms: C2_3  and  C3_4 
REMARK    4  A    between atoms: C5_6  and  C6_7 
REMARK    5  A    between atoms: C17_22  and  O1_23 
ROOT
HETATM    1  C3  UNL     1      23.110   1.549  51.820  1.00  0.00     0.136 C 
HETATM    2  C4  UNL     1      21.860   0.712  51.813  1.00  0.00     0.061 C 
HETATM    3  C5  UNL     1      20.816   1.205  52.767  1.00  0.00     0.117 C 
HETATM    4  N2  UNL     1      20.538   2.606  52.702  1.00  0.00    -0.376 N 
HETATM    5  C12 UNL     1      20.589   3.620  51.692  1.00  0.00     0.204 C 
HETATM    6  N3  UNL     1      21.306   3.846  50.653  1.00  0.00    -0.238 NA
HETATM    7  C13 UNL     1      22.393   3.146  50.058  1.00  0.00     0.228 C 
HETATM    8  N4  UNL     1      23.173   2.188  50.496  1.00  0.00    -0.274 NA
HETATM    9  H12 UNL     1      20.213   2.969  53.647  1.00  0.00     0.161 HD
ENDROOT
BRANCH   1  10
HETATM   10  C2  UNL     1      24.352   0.778  52.036  1.00  0.00     0.030 C 
HETATM   11  C1  UNL     1      25.296   1.437  52.647  1.00  0.00     0.034 C 
BRANCH  11  12
HETATM   12  N1  UNL     1      25.049   2.782  53.031  1.00  0.00    -0.399 N 
HETATM   13  H1  UNL     1      24.366   3.258  53.659  1.00  0.00     0.156 HD
HETATM   14  H2  UNL     1      25.500   3.671  52.777  1.00  0.00     0.156 HD
ENDBRANCH  11  12
BRANCH  11  15
HETATM   15  C14 UNL     1      26.596   0.856  52.956  1.00  0.00    -0.010 A 
HETATM   16  C15 UNL     1      27.663   1.594  53.422  1.00  0.00     0.016 A 
HETATM   17  C16 UNL     1      28.908   1.083  53.726  1.00  0.00     0.037 A 
HETATM   18  C17 UNL     1      29.110  -0.269  53.552  1.00  0.00     0.065 A 
HETATM   19  C18 UNL     1      28.081  -1.044  53.092  1.00  0.00     0.037 A 
HETATM   20  C19 UNL     1      26.838  -0.491  52.797  1.00  0.00     0.016 A 
BRANCH  18  21
HETATM   21  O1  UNL     1      30.332  -0.892  53.830  1.00  0.00    -0.361 OA
HETATM   22  H17 UNL     1      31.185  -0.468  53.543  1.00  0.00     0.217 HD
ENDBRANCH  18  21
ENDBRANCH  11  15
ENDBRANCH   1  10
BRANCH   3  23
HETATM   23  C6  UNL     1      19.548   0.459  52.468  1.00  0.00    -0.035 A 
HETATM   24  C7  UNL     1      18.684   0.637  51.416  1.00  0.00     0.010 A 
HETATM   25  C8  UNL     1      17.575  -0.151  51.323  1.00  0.00     0.019 A 
HETATM   26  C9  UNL     1      17.258  -1.150  52.249  1.00  0.00     0.011 A 
HETATM   27 BR1  UNL     1      15.690  -2.217  52.058  1.00  0.00    -0.051 Br
HETATM   28  C10 UNL     1      18.147  -1.301  53.291  1.00  0.00     0.019 A 
HETATM   29  C11 UNL     1      19.288  -0.517  53.423  1.00  0.00     0.010 A 
ENDBRANCH   3  23
TORSDOF 5
ENDMDL
MODEL 5
REMARK VINA RESULT:      -8.1      4.660      7.714
REMARK  5 active torsions:
REMARK  status: ('A' for Active; 'I' for Inactive)
REMARK    1  A    between atoms: N1_1  and  C1_2 
REMARK    2  A    between atoms: C1_2  and  C14_19 
REMARK    3  A    between atoms: C2_3  and  C3_4 
REMARK    4  A    between atoms: C5_6  and  C6_7 
REMARK    5  A    between atoms: C17_22  and  O1_23 
ROOT
HETATM    1  C3  UNL     1      22.232   2.493  52.118  1.00  0.00     0.136 C 
HETATM    2  C4  UNL     1      23.530   1.886  52.578  1.00  0.00     0.061 C 
HETATM    3  C5  UNL     1      24.470   1.584  51.453  1.00  0.00     0.117 C 
HETATM    4  N2  UNL     1      24.663   2.644  50.513  1.00  0.00    -0.376 N 
HETATM    5  C12 UNL     1      24.621   4.074  50.552  1.00  0.00     0.204 C 
HETATM    6  N3  UNL     1      23.966   4.957  51.215  1.00  0.00    -0.238 NA
HETATM    7  C13 UNL     1      22.970   4.862  52.227  1.00  0.00     0.228 C 
HETATM    8  N4  UNL     1      22.223   3.868  52.642  1.00  0.00    -0.274 NA
HETATM    9  H12 UNL     1      24.896   2.256  49.551  1.00  0.00     0.161 HD
ENDROOT
BRANCH   1  10
HETATM   10  C2  UNL     1      21.029   1.789  52.609  1.00  0.00     0.030 C 
HETATM   11  C1  UNL     1      20.502   0.960  51.751  1.00  0.00     0.034 C 
BRANCH  11  12
HETATM   12  N1  UNL     1      21.113   0.820  50.476  1.00  0.00    -0.399 N 
HETATM   13  H1  UNL     1      21.040   0.136  49.693  1.00  0.00     0.156 HD
HETATM   14  H2  UNL     1      21.815   1.384  49.976  1.00  0.00     0.156 HD
ENDBRANCH  11  12
BRANCH  11  15
HETATM   15  C14 UNL     1      19.314   0.168  52.041  1.00  0.00    -0.010 A 
HETATM   16  C15 UNL     1      18.184   0.184  51.251  1.00  0.00     0.016 A 
HETATM   17  C16 UNL     1      17.040  -0.550  51.490  1.00  0.00     0.037 A 
HETATM   18  C17 UNL     1      17.016  -1.364  52.602  1.00  0.00     0.065 A 
HETATM   19  C18 UNL     1      18.115  -1.414  53.416  1.00  0.00     0.037 A 
HETATM   20  C19 UNL     1      19.251  -0.659  53.141  1.00  0.00     0.016 A 
BRANCH  18  21
HETATM   21  O1  UNL     1      15.910  -2.151  52.938  1.00  0.00    -0.361 OA
HETATM   22  H17 UNL     1      15.455  -2.698  52.242  1.00  0.00     0.217 HD
ENDBRANCH  18  21
ENDBRANCH  11  15
ENDBRANCH   1  10
BRANCH   3  23
HETATM   23  C6  UNL     1      25.800   1.245  52.060  1.00  0.00    -0.035 A 
HETATM   24  C7  UNL     1      26.778   2.101  52.500  1.00  0.00     0.010 A 
HETATM   25  C8  UNL     1      27.927   1.589  53.026  1.00  0.00     0.019 A 
HETATM   26  C9  UNL     1      28.177   0.218  53.147  1.00  0.00     0.011 A 
HETATM   27 BR1  UNL     1      29.806  -0.430  53.892  1.00  0.00    -0.051 Br
HETATM   28  C10 UNL     1      27.174  -0.612  52.695  1.00  0.00     0.019 A 
HETATM   29  C11 UNL     1      25.988  -0.130  52.153  1.00  0.00     0.010 A 
ENDBRANCH   3  23
TORSDOF 5
ENDMDL
MODEL 6
REMARK VINA RESULT:      -7.9      5.907      7.128
REMARK  5 active torsions:
REMARK  status: ('A' for Active; 'I' for Inactive)
REMARK    1  A    between atoms: N1_1  and  C1_2 
REMARK    2  A    between atoms: C1_2  and  C14_19 
REMARK    3  A    between atoms: C2_3  and  C3_4 
REMARK    4  A    between atoms: C5_6  and  C6_7 
REMARK    5  A    between atoms: C17_22  and  O1_23 
ROOT
HETATM    1  C3  UNL     1      29.169   7.166  48.326  1.00  0.00     0.136 C 
HETATM    2  C4  UNL     1      27.772   6.910  47.830  1.00  0.00     0.061 C 
HETATM    3  C5  UNL     1      26.796   6.641  48.933  1.00  0.00     0.117 C 
HETATM    4  N2  UNL     1      26.831   7.567  50.023  1.00  0.00    -0.376 N 
HETATM    5  C12 UNL     1      27.167   8.949  50.189  1.00  0.00     0.204 C 
HETATM    6  N3  UNL     1      27.985   9.768  49.637  1.00  0.00    -0.238 NA
HETATM    7  C13 UNL     1      28.934   9.625  48.585  1.00  0.00     0.228 C 
HETATM    8  N4  UNL     1      29.458   8.573  48.005  1.00  0.00    -0.274 NA
HETATM    9  H12 UNL     1      26.529   7.096  50.926  1.00  0.00     0.161 HD
ENDROOT
BRANCH   1  10
HETATM   10  C2  UNL     1      30.198   6.313  47.695  1.00  0.00     0.030 C 
HETATM   11  C1  UNL     1      31.242   6.085  48.443  1.00  0.00     0.034 C 
BRANCH  11  12
HETATM   12  N1  UNL     1      31.286   6.658  49.742  1.00  0.00    -0.399 N 
HETATM   13  H1  UNL     1      31.759   6.418  50.640  1.00  0.00     0.156 HD
HETATM   14  H2  UNL     1      30.843   7.493  50.149  1.00  0.00     0.156 HD
ENDBRANCH  11  12
BRANCH  11  15
HETATM   15  C14 UNL     1      32.367   5.268  48.007  1.00  0.00    -0.010 A 
HETATM   16  C15 UNL     1      33.672   5.523  48.371  1.00  0.00     0.016 A 
HETATM   17  C16 UNL     1      34.763   4.774  47.980  1.00  0.00     0.037 A 
HETATM   18  C17 UNL     1      34.542   3.687  47.163  1.00  0.00     0.065 A 
HETATM   19  C18 UNL     1      33.263   3.394  46.775  1.00  0.00     0.037 A 
HETATM   20  C19 UNL     1      32.186   4.173  47.191  1.00  0.00     0.016 A 
BRANCH  18  21
HETATM   21  O1  UNL     1      35.574   2.861  46.709  1.00  0.00    -0.361 OA
HETATM   22  H17 UNL     1      35.628   2.610  45.747  1.00  0.00     0.217 HD
ENDBRANCH  18  21
ENDBRANCH  11  15
ENDBRANCH   1  10
BRANCH   3  23
HETATM   23  C6  UNL     1      25.421   6.673  48.332  1.00  0.00    -0.035 A 
HETATM   24  C7  UNL     1      24.895   7.592  47.460  1.00  0.00     0.010 A 
HETATM   25  C8  UNL     1      23.611   7.442  47.026  1.00  0.00     0.019 A 
HETATM   26  C9  UNL     1      22.780   6.389  47.422  1.00  0.00     0.011 A 
HETATM   27 BR1  UNL     1      20.993   6.239  46.777  1.00  0.00    -0.051 Br
HETATM   28  C10 UNL     1      23.341   5.485  48.300  1.00  0.00     0.019 A 
HETATM   29  C11 UNL     1      24.646   5.603  48.765  1.00  0.00     0.010 A 
ENDBRANCH   3  23
TORSDOF 5
ENDMDL
MODEL 7
REMARK VINA RESULT:      -7.7      4.103      6.271
REMARK  5 active torsions:
REMARK  status: ('A' for Active; 'I' for Inactive)
REMARK    1  A    between atoms: N1_1  and  C1_2 
REMARK    2  A    between atoms: C1_2  and  C14_19 
REMARK    3  A    between atoms: C2_3  and  C3_4 
REMARK    4  A    between atoms: C5_6  and  C6_7 
REMARK    5  A    between atoms: C17_22  and  O1_23 
ROOT
HETATM    1  C3  UNL     1      24.664   5.373  49.567  1.00  0.00     0.136 C 
HETATM    2  C4  UNL     1      24.277   4.086  50.244  1.00  0.00     0.061 C 
HETATM    3  C5  UNL     1      24.012   4.248  51.709  1.00  0.00     0.117 C 
HETATM    4  N2  UNL     1      23.150   5.334  52.060  1.00  0.00    -0.376 N 
HETATM    5  C12 UNL     1      22.070   6.034  51.435  1.00  0.00     0.204 C 
HETATM    6  N3  UNL     1      21.745   6.337  50.232  1.00  0.00    -0.238 NA
HETATM    7  C13 UNL     1      22.361   6.087  48.972  1.00  0.00     0.228 C 
HETATM    8  N4  UNL     1      23.565   5.687  48.642  1.00  0.00    -0.274 NA
HETATM    9  H12 UNL     1      23.384   5.700  53.031  1.00  0.00     0.161 HD
ENDROOT
BRANCH   1  10
HETATM   10  C2  UNL     1      25.925   5.294  48.800  1.00  0.00     0.030 C 
HETATM   11  C1  UNL     1      26.751   6.278  49.020  1.00  0.00     0.034 C 
BRANCH  11  12
HETATM   12  N1  UNL     1      26.374   7.292  49.940  1.00  0.00    -0.399 N 
HETATM   13  H1  UNL     1      26.787   7.691  50.811  1.00  0.00     0.156 HD
HETATM   14  H2  UNL     1      25.559   7.920  49.987  1.00  0.00     0.156 HD
ENDBRANCH  11  12
BRANCH  11  15
HETATM   15  C14 UNL     1      28.048   6.387  48.363  1.00  0.00    -0.010 A 
HETATM   16  C15 UNL     1      29.025   5.418  48.453  1.00  0.00     0.016 A 
HETATM   17  C16 UNL     1      30.262   5.483  47.848  1.00  0.00     0.037 A 
HETATM   18  C17 UNL     1      30.554   6.598  47.092  1.00  0.00     0.065 A 
HETATM   19  C18 UNL     1      29.616   7.586  46.972  1.00  0.00     0.037 A 
HETATM   20  C19 UNL     1      28.376   7.485  47.598  1.00  0.00     0.016 A 
BRANCH  18  21
HETATM   21  O1  UNL     1      31.777   6.766  46.434  1.00  0.00    -0.361 OA
HETATM   22  H17 UNL     1      32.631   6.584  46.912  1.00  0.00     0.217 HD
ENDBRANCH  18  21
ENDBRANCH  11  15
ENDBRANCH   1  10
BRANCH   3  23
HETATM   23  C6  UNL     1      23.385   2.973  52.195  1.00  0.00    -0.035 A 
HETATM   24  C7  UNL     1      22.055   2.641  52.232  1.00  0.00     0.010 A 
HETATM   25  C8  UNL     1      21.685   1.420  52.715  1.00  0.00     0.019 A 
HETATM   26  C9  UNL     1      22.596   0.467  53.183  1.00  0.00     0.011 A 
HETATM   27 BR1  UNL     1      22.012  -1.221  53.846  1.00  0.00    -0.051 Br
HETATM   28  C10 UNL     1      23.923   0.835  53.131  1.00  0.00     0.019 A 
HETATM   29  C11 UNL     1      24.341   2.070  52.646  1.00  0.00     0.010 A 
ENDBRANCH   3  23
TORSDOF 5
ENDMDL
MODEL 8
REMARK VINA RESULT:      -7.6      3.143      3.857
REMARK  5 active torsions:
REMARK  status: ('A' for Active; 'I' for Inactive)
REMARK    1  A    between atoms: N1_1  and  C1_2 
REMARK    2  A    between atoms: C1_2  and  C14_19 
REMARK    3  A    between atoms: C2_3  and  C3_4 
REMARK    4  A    between atoms: C5_6  and  C6_7 
REMARK    5  A    between atoms: C17_22  and  O1_23 
ROOT
HETATM    1  C3  UNL     1      23.963   2.975  51.070  1.00  0.00     0.136 C 
HETATM    2  C4  UNL     1      23.802   3.618  49.719  1.00  0.00     0.061 C 
HETATM    3  C5  UNL     1      22.633   3.086  48.950  1.00  0.00     0.117 C 
HETATM    4  N2  UNL     1      21.402   3.017  49.674  1.00  0.00    -0.376 N 
HETATM    5  C12 UNL     1      20.804   3.736  50.757  1.00  0.00     0.204 C 
HETATM    6  N3  UNL     1      21.230   4.352  51.798  1.00  0.00    -0.238 NA
HETATM    7  C13 UNL     1      22.536   4.579  52.320  1.00  0.00     0.228 C 
HETATM    8  N4  UNL     1      23.700   4.037  52.054  1.00  0.00    -0.274 NA
HETATM    9  H12 UNL     1      20.791   2.230  49.302  1.00  0.00     0.161 HD
ENDROOT
BRANCH   1  10
HETATM   10  C2  UNL     1      25.310   2.421  51.318  1.00  0.00     0.030 C 
HETATM   11  C1  UNL     1      25.367   1.557  52.293  1.00  0.00     0.034 C 
BRANCH  11  12
HETATM   12  N1  UNL     1      24.173   1.246  52.996  1.00  0.00    -0.399 N 
HETATM   13  H1  UNL     1      23.342   0.643  52.811  1.00  0.00     0.156 HD
HETATM   14  H2  UNL     1      23.804   1.549  53.908  1.00  0.00     0.156 HD
ENDBRANCH  11  12
BRANCH  11  15
HETATM   15  C14 UNL     1      26.601   0.895  52.695  1.00  0.00    -0.010 A 
HETATM   16  C15 UNL     1      27.709   1.576  53.153  1.00  0.00     0.016 A 
HETATM   17  C16 UNL     1      28.894   0.987  53.543  1.00  0.00     0.037 A 
HETATM   18  C17 UNL     1      28.986  -0.386  53.474  1.00  0.00     0.065 A 
HETATM   19  C18 UNL     1      27.912  -1.106  53.027  1.00  0.00     0.037 A 
HETATM   20  C19 UNL     1      26.732  -0.475  52.642  1.00  0.00     0.016 A 
BRANCH  18  21
HETATM   21  O1  UNL     1      30.140  -1.086  53.846  1.00  0.00    -0.361 OA
HETATM   22  H17 UNL     1      30.206  -2.065  53.679  1.00  0.00     0.217 HD
ENDBRANCH  18  21
ENDBRANCH  11  15
ENDBRANCH   1  10
BRANCH   3  23
HETATM   23  C6  UNL     1      22.432   3.984  47.764  1.00  0.00    -0.035 A 
HETATM   24  C7  UNL     1      22.644   5.337  47.675  1.00  0.00     0.010 A 
HETATM   25  C8  UNL     1      22.398   5.975  46.495  1.00  0.00     0.019 A 
HETATM   26  C9  UNL     1      21.935   5.325  45.347  1.00  0.00     0.011 A 
HETATM   27 BR1  UNL     1      21.612   6.278  43.730  1.00  0.00    -0.051 Br
HETATM   28  C10 UNL     1      21.733   3.967  45.473  1.00  0.00     0.019 A 
HETATM   29  C11 UNL     1      21.971   3.279  46.657  1.00  0.00     0.010 A 
ENDBRANCH   3  23
TORSDOF 5
ENDMDL
MODEL 9
REMARK VINA RESULT:      -7.6      5.209      8.030
REMARK  5 active torsions:
REMARK  status: ('A' for Active; 'I' for Inactive)
REMARK    1  A    between atoms: N1_1  and  C1_2 
REMARK    2  A    between atoms: C1_2  and  C14_19 
REMARK    3  A    between atoms: C2_3  and  C3_4 
REMARK    4  A    between atoms: C5_6  and  C6_7 
REMARK    5  A    between atoms: C17_22  and  O1_23 
ROOT
HETATM    1  C3  UNL     1      20.648   1.646  51.803  1.00  0.00     0.136 C 
HETATM    2  C4  UNL     1      22.105   1.607  52.178  1.00  0.00     0.061 C 
HETATM    3  C5  UNL     1      23.018   1.597  50.991  1.00  0.00     0.117 C 
HETATM    4  N2  UNL     1      22.735   2.579  49.991  1.00  0.00    -0.376 N 
HETATM    5  C12 UNL     1      22.155   3.887  49.968  1.00  0.00     0.204 C 
HETATM    6  N3  UNL     1      21.257   4.506  50.643  1.00  0.00    -0.238 NA
HETATM    7  C13 UNL     1      20.436   4.120  51.741  1.00  0.00     0.228 C 
HETATM    8  N4  UNL     1      20.150   2.952  52.263  1.00  0.00    -0.274 NA
HETATM    9  H12 UNL     1      23.038   2.236  49.031  1.00  0.00     0.161 HD
ENDROOT
BRANCH   1  10
HETATM   10  C2  UNL     1      19.836   0.581  52.427  1.00  0.00     0.030 C 
HETATM   11  C1  UNL     1      18.800   0.213  51.726  1.00  0.00     0.034 C 
BRANCH  11  12
HETATM   12  N1  UNL     1      18.562   0.848  50.478  1.00  0.00    -0.399 N 
HETATM   13  H1  UNL     1      18.921   1.705  50.005  1.00  0.00     0.156 HD
HETATM   14  H2  UNL     1      17.947   0.616  49.686  1.00  0.00     0.156 HD
ENDBRANCH  11  12
BRANCH  11  15
HETATM   15  C14 UNL     1      17.874  -0.823  52.165  1.00  0.00    -0.010 A 
HETATM   16  C15 UNL     1      16.594  -0.953  51.668  1.00  0.00     0.016 A 
HETATM   17  C16 UNL     1      15.688  -1.918  52.056  1.00  0.00     0.037 A 
HETATM   18  C17 UNL     1      16.083  -2.827  53.013  1.00  0.00     0.065 A 
HETATM   19  C18 UNL     1      17.345  -2.739  53.536  1.00  0.00     0.037 A 
HETATM   20  C19 UNL     1      18.232  -1.751  53.119  1.00  0.00     0.016 A 
BRANCH  18  21
HETATM   21  O1  UNL     1      15.246  -3.846  53.478  1.00  0.00    -0.361 OA
HETATM   22  H17 UNL     1      14.773  -4.438  52.833  1.00  0.00     0.217 HD
ENDBRANCH  18  21
ENDBRANCH  11  15
ENDBRANCH   1  10
BRANCH   3  23
HETATM   23  C6  UNL     1      24.412   1.828  51.497  1.00  0.00    -0.035 A 
HETATM   24  C7  UNL     1      25.447   2.477  50.872  1.00  0.00     0.010 A 
HETATM   25  C8  UNL     1      26.650   2.582  51.506  1.00  0.00     0.019 A 
HETATM   26  C9  UNL     1      26.900   2.059  52.779  1.00  0.00     0.011 A 
HETATM   27 BR1  UNL     1      28.605   2.240  53.608  1.00  0.00    -0.051 Br
HETATM   28  C10 UNL     1      25.838   1.413  53.377  1.00  0.00     0.019 A 
HETATM   29  C11 UNL     1      24.597   1.285  52.764  1.00  0.00     0.010 A 
ENDBRANCH   3  23
TORSDOF 5
ENDMDL
