MODEL 1
REMARK VINA RESULT:      -7.5      0.000      0.000
REMARK  6 active torsions:
REMARK  status: ('A' for Active; 'I' for Inactive)
REMARK    1  A    between atoms: N1_2  and  C2_3 
REMARK    2  A    between atoms: C2_3  and  C3_4 
REMARK    3  A    between atoms: C3_4  and  O1_5 
REMARK    4  A    between atoms: O1_5  and  C4_6 
REMARK    5  A    between atoms: N4_13  and  C9_14 
REMARK    6  A    between atoms: C15_22  and  O2_23 
ROOT
HETATM    1  C4  UNL     1      22.237   1.065  52.115  1.00  0.00     0.115 A 
HETATM    2  C5  UNL     1      23.437   0.757  52.548  1.00  0.00     0.046 A 
HETATM    3  C6  UNL     1      23.548  -0.002  53.590  1.00  0.00     0.097 A 
HETATM    4  C7  UNL     1      22.406  -0.552  54.352  1.00  0.00     0.090 A 
HETATM    5  N2  UNL     1      22.528  -1.298  55.379  1.00  0.00    -0.238 NA
HETATM    6  C8  UNL     1      23.840  -1.624  55.823  1.00  0.00     0.255 A 
HETATM    7  N3  UNL     1      24.897  -1.189  55.221  1.00  0.00    -0.164 NA
HETATM    8  N4  UNL     1      24.828  -0.367  54.089  1.00  0.00    -0.253 N 
HETATM    9  C14 UNL     1      21.075  -0.197  53.863  1.00  0.00     0.073 A 
HETATM   10  C15 UNL     1      21.034   0.582  52.785  1.00  0.00     0.104 A 
ENDROOT
BRANCH   8  11
HETATM   11  C9  UNL     1      25.986   0.122  53.413  1.00  0.00     0.161 A 
HETATM   12  C10 UNL     1      26.880   0.971  54.193  1.00  0.00     0.048 A 
HETATM   13  C11 UNL     1      28.075   0.372  54.225  1.00  0.00     0.136 A 
HETATM   14  F1  UNL     1      29.163   0.895  54.877  1.00  0.00    -0.205 F 
HETATM   15  C12 UNL     1      28.051  -0.886  53.484  1.00  0.00     0.070 A 
HETATM   16 CL1  UNL     1      29.358  -2.023  53.238  1.00  0.00    -0.081 Cl
HETATM   17  C13 UNL     1      26.828  -1.032  53.008  1.00  0.00     0.031 A 
ENDBRANCH   8  11
BRANCH   1  18
HETATM   18  O1  UNL     1      22.216   1.876  50.987  1.00  0.00    -0.346 OA
BRANCH  18  19
HETATM   19  C3  UNL     1      23.416   2.354  50.433  1.00  0.00     0.205 C 
BRANCH  19  20
HETATM   20  C2  UNL     1      23.466   3.881  50.519  1.00  0.00     0.295 C 
BRANCH  20  21
HETATM   21  N1  UNL     1      24.250   4.240  51.690  1.00  0.00     0.081 N 
HETATM   22  C1  UNL     1      23.400   4.757  52.725  1.00  0.00     0.306 C 
HETATM   23  H4  UNL     1      24.736   3.379  52.030  1.00  0.00     0.315 HD
ENDBRANCH  20  21
ENDBRANCH  19  20
ENDBRANCH  18  19
ENDBRANCH   1  18
BRANCH  10  24
HETATM   24  O2  UNL     1      19.797   0.931  52.306  1.00  0.00    -0.353 OA
HETATM   25  C16 UNL     1      19.057   0.188  51.354  1.00  0.00     0.210 C 
ENDBRANCH  10  24
TORSDOF 6
ENDMDL
MODEL 2
REMARK VINA RESULT:      -7.5      1.222      1.247
REMARK  6 active torsions:
REMARK  status: ('A' for Active; 'I' for Inactive)
REMARK    1  A    between atoms: N1_2  and  C2_3 
REMARK    2  A    between atoms: C2_3  and  C3_4 
REMARK    3  A    between atoms: C3_4  and  O1_5 
REMARK    4  A    between atoms: O1_5  and  C4_6 
REMARK    5  A    between atoms: N4_13  and  C9_14 
REMARK    6  A    between atoms: C15_22  and  O2_23 
ROOT
HETATM    1  C4  UNL     1      21.977   0.448  52.216  1.00  0.00     0.115 A 
HETATM    2  C5  UNL     1      23.253   0.412  52.523  1.00  0.00     0.046 A 
HETATM    3  C6  UNL     1      23.617  -0.189  53.609  1.00  0.00     0.097 A 
HETATM    4  C7  UNL     1      22.687  -0.844  54.556  1.00  0.00     0.090 A 
HETATM    5  N2  UNL     1      23.058  -1.433  55.625  1.00  0.00    -0.238 NA
HETATM    6  C8  UNL     1      24.448  -1.465  55.929  1.00  0.00     0.255 A 
HETATM    7  N3  UNL     1      25.332  -0.920  55.162  1.00  0.00    -0.164 NA
HETATM    8  N4  UNL     1      24.988  -0.260  53.976  1.00  0.00    -0.253 N 
HETATM    9  C14 UNL     1      21.269  -0.792  54.206  1.00  0.00     0.073 A 
HETATM   10  C15 UNL     1      20.966  -0.162  53.074  1.00  0.00     0.104 A 
ENDROOT
BRANCH   8  11
HETATM   11  C9  UNL     1      25.953   0.348  53.117  1.00  0.00     0.161 A 
HETATM   12  C10 UNL     1      26.482   1.637  53.549  1.00  0.00     0.048 A 
HETATM   13  C11 UNL     1      27.804   1.500  53.694  1.00  0.00     0.136 A 
HETATM   14  F1  UNL     1      28.629   2.522  54.092  1.00  0.00    -0.205 F 
HETATM   15  C12 UNL     1      28.228   0.140  53.374  1.00  0.00     0.070 A 
HETATM   16 CL1  UNL     1      29.846  -0.527  53.411  1.00  0.00    -0.081 Cl
HETATM   17  C13 UNL     1      27.145  -0.534  53.036  1.00  0.00     0.031 A 
ENDBRANCH   8  11
BRANCH   1  18
HETATM   18  O1  UNL     1      21.683   1.107  51.029  1.00  0.00    -0.346 OA
BRANCH  18  19
HETATM   19  C3  UNL     1      21.995   2.469  50.876  1.00  0.00     0.205 C 
BRANCH  19  20
HETATM   20  C2  UNL     1      21.040   3.327  51.709  1.00  0.00     0.295 C 
BRANCH  20  21
HETATM   21  N1  UNL     1      21.814   4.394  52.323  1.00  0.00     0.081 N 
HETATM   22  C1  UNL     1      23.220   4.138  52.187  1.00  0.00     0.306 C 
HETATM   23  H4  UNL     1      21.570   5.289  51.840  1.00  0.00     0.315 HD
ENDBRANCH  20  21
ENDBRANCH  19  20
ENDBRANCH  18  19
ENDBRANCH   1  18
BRANCH  10  24
HETATM   24  O2  UNL     1      19.642  -0.098  52.723  1.00  0.00    -0.353 OA
HETATM   25  C16 UNL     1      18.637  -0.982  53.184  1.00  0.00     0.210 C 
ENDBRANCH  10  24
TORSDOF 6
ENDMDL
MODEL 3
REMARK VINA RESULT:      -7.1      4.194      6.092
REMARK  6 active torsions:
REMARK  status: ('A' for Active; 'I' for Inactive)
REMARK    1  A    between atoms: N1_2  and  C2_3 
REMARK    2  A    between atoms: C2_3  and  C3_4 
REMARK    3  A    between atoms: C3_4  and  O1_5 
REMARK    4  A    between atoms: O1_5  and  C4_6 
REMARK    5  A    between atoms: N4_13  and  C9_14 
REMARK    6  A    between atoms: C15_22  and  O2_23 
ROOT
HETATM    1  C4  UNL     1      25.740   0.404  52.664  1.00  0.00     0.115 A 
HETATM    2  C5  UNL     1      24.479   0.645  52.392  1.00  0.00     0.046 A 
HETATM    3  C6  UNL     1      23.569   0.167  53.178  1.00  0.00     0.097 A 
HETATM    4  C7  UNL     1      23.846  -0.653  54.379  1.00  0.00     0.090 A 
HETATM    5  N2  UNL     1      22.940  -1.120  55.146  1.00  0.00    -0.238 NA
HETATM    6  C8  UNL     1      21.581  -0.837  54.834  1.00  0.00     0.255 A 
HETATM    7  N3  UNL     1      21.244  -0.131  53.807  1.00  0.00    -0.164 NA
HETATM    8  N4  UNL     1      22.192   0.409  52.928  1.00  0.00    -0.253 N 
HETATM    9  C14 UNL     1      25.254  -0.919  54.667  1.00  0.00     0.073 A 
HETATM   10  C15 UNL     1      26.136  -0.393  53.819  1.00  0.00     0.104 A 
ENDROOT
BRANCH   8  11
HETATM   11  C9  UNL     1      21.836   1.192  51.787  1.00  0.00     0.161 A 
HETATM   12  C10 UNL     1      21.113   0.499  50.728  1.00  0.00     0.048 A 
HETATM   13  C11 UNL     1      19.934   1.112  50.579  1.00  0.00     0.136 A 
HETATM   14  F1  UNL     1      18.991   0.722  49.661  1.00  0.00    -0.205 F 
HETATM   15  C12 UNL     1      19.803   2.228  51.511  1.00  0.00     0.070 A 
HETATM   16 CL1  UNL     1      18.455   3.328  51.701  1.00  0.00    -0.081 Cl
HETATM   17  C13 UNL     1      20.916   2.275  52.218  1.00  0.00     0.031 A 
ENDBRANCH   8  11
BRANCH   1  18
HETATM   18  O1  UNL     1      26.645   0.964  51.770  1.00  0.00    -0.346 OA
BRANCH  18  19
HETATM   19  C3  UNL     1      26.786   2.360  51.682  1.00  0.00     0.205 C 
BRANCH  19  20
HETATM   20  C2  UNL     1      26.490   2.832  50.257  1.00  0.00     0.295 C 
BRANCH  20  21
HETATM   21  N1  UNL     1      26.491   4.286  50.255  1.00  0.00     0.081 N 
HETATM   22  C1  UNL     1      26.966   4.787  48.997  1.00  0.00     0.306 C 
HETATM   23  H4  UNL     1      25.509   4.610  50.416  1.00  0.00     0.315 HD
ENDBRANCH  20  21
ENDBRANCH  19  20
ENDBRANCH  18  19
ENDBRANCH   1  18
BRANCH  10  24
HETATM   24  O2  UNL     1      27.465  -0.628  54.067  1.00  0.00    -0.353 OA
HETATM   25  C16 UNL     1      28.310   0.219  54.823  1.00  0.00     0.210 C 
ENDBRANCH  10  24
TORSDOF 6
ENDMDL
MODEL 4
REMARK VINA RESULT:      -7.1      3.528      5.720
REMARK  6 active torsions:
REMARK  status: ('A' for Active; 'I' for Inactive)
REMARK    1  A    between atoms: N1_2  and  C2_3 
REMARK    2  A    between atoms: C2_3  and  C3_4 
REMARK    3  A    between atoms: C3_4  and  O1_5 
REMARK    4  A    between atoms: O1_5  and  C4_6 
REMARK    5  A    between atoms: N4_13  and  C9_14 
REMARK    6  A    between atoms: C15_22  and  O2_23 
ROOT
HETATM    1  C4  UNL     1      23.932   0.770  52.855  1.00  0.00     0.115 A 
HETATM    2  C5  UNL     1      24.372   1.730  52.076  1.00  0.00     0.046 A 
HETATM    3  C6  UNL     1      23.680   2.051  51.031  1.00  0.00     0.097 A 
HETATM    4  C7  UNL     1      22.412   1.402  50.633  1.00  0.00     0.090 A 
HETATM    5  N2  UNL     1      21.739   1.727  49.600  1.00  0.00    -0.238 NA
HETATM    6  C8  UNL     1      22.234   2.777  48.777  1.00  0.00     0.255 A 
HETATM    7  N3  UNL     1      23.332   3.401  49.045  1.00  0.00    -0.164 NA
HETATM    8  N4  UNL     1      24.114   3.090  50.164  1.00  0.00    -0.253 N 
HETATM    9  C14 UNL     1      21.936   0.330  51.506  1.00  0.00     0.073 A 
HETATM   10  C15 UNL     1      22.694   0.055  52.565  1.00  0.00     0.104 A 
ENDROOT
BRANCH   8  11
HETATM   11  C9  UNL     1      25.331   3.770  50.474  1.00  0.00     0.161 A 
HETATM   12  C10 UNL     1      26.517   3.338  49.744  1.00  0.00     0.048 A 
HETATM   13  C11 UNL     1      26.978   4.394  49.066  1.00  0.00     0.136 A 
HETATM   14  F1  UNL     1      28.092   4.349  48.266  1.00  0.00    -0.205 F 
HETATM   15  C12 UNL     1      26.145   5.570  49.299  1.00  0.00     0.070 A 
HETATM   16 CL1  UNL     1      26.337   7.180  48.641  1.00  0.00    -0.081 Cl
HETATM   17  C13 UNL     1      25.181   5.205  50.123  1.00  0.00     0.031 A 
ENDBRANCH   8  11
BRANCH   1  18
HETATM   18  O1  UNL     1      24.735   0.500  53.956  1.00  0.00    -0.346 OA
BRANCH  18  19
HETATM   19  C3  UNL     1      25.835  -0.368  53.838  1.00  0.00     0.205 C 
BRANCH  19  20
HETATM   20  C2  UNL     1      27.051   0.220  54.558  1.00  0.00     0.295 C 
BRANCH  20  21
HETATM   21  N1  UNL     1      26.973   1.668  54.463  1.00  0.00     0.081 N 
HETATM   22  C1  UNL     1      27.835   2.151  53.421  1.00  0.00     0.306 C 
HETATM   23  H4  UNL     1      25.982   1.925  54.248  1.00  0.00     0.315 HD
ENDBRANCH  20  21
ENDBRANCH  19  20
ENDBRANCH  18  19
ENDBRANCH   1  18
BRANCH  10  24
HETATM   24  O2  UNL     1      22.269  -0.948  53.400  1.00  0.00    -0.353 OA
HETATM   25  C16 UNL     1      21.482  -0.757  54.561  1.00  0.00     0.210 C 
ENDBRANCH  10  24
TORSDOF 6
ENDMDL
MODEL 5
REMARK VINA RESULT:      -6.9      4.009      6.737
REMARK  6 active torsions:
REMARK  status: ('A' for Active; 'I' for Inactive)
REMARK    1  A    between atoms: N1_2  and  C2_3 
REMARK    2  A    between atoms: C2_3  and  C3_4 
REMARK    3  A    between atoms: C3_4  and  O1_5 
REMARK    4  A    between atoms: O1_5  and  C4_6 
REMARK    5  A    between atoms: N4_13  and  C9_14 
REMARK    6  A    between atoms: C15_22  and  O2_23 
ROOT
HETATM    1  C4  UNL     1      24.659   0.133  53.198  1.00  0.00     0.115 A 
HETATM    2  C5  UNL     1      24.122   1.235  52.730  1.00  0.00     0.046 A 
HETATM    3  C6  UNL     1      24.828   1.993  51.955  1.00  0.00     0.097 A 
HETATM    4  C7  UNL     1      26.225   1.712  51.554  1.00  0.00     0.090 A 
HETATM    5  N2  UNL     1      26.911   2.467  50.790  1.00  0.00    -0.238 NA
HETATM    6  C8  UNL     1      26.303   3.652  50.289  1.00  0.00     0.255 A 
HETATM    7  N3  UNL     1      25.089   3.979  50.585  1.00  0.00    -0.164 NA
HETATM    8  N4  UNL     1      24.285   3.191  51.419  1.00  0.00    -0.253 N 
HETATM    9  C14 UNL     1      26.813   0.484  52.087  1.00  0.00     0.073 A 
HETATM   10  C15 UNL     1      26.029  -0.249  52.874  1.00  0.00     0.104 A 
ENDROOT
BRANCH   8  11
HETATM   11  C9  UNL     1      22.941   3.539  51.756  1.00  0.00     0.161 A 
HETATM   12  C10 UNL     1      22.719   4.914  52.188  1.00  0.00     0.048 A 
HETATM   13  C11 UNL     1      21.852   5.467  51.333  1.00  0.00     0.136 A 
HETATM   14  F1  UNL     1      21.412   6.763  51.438  1.00  0.00    -0.205 F 
HETATM   15  C12 UNL     1      21.452   4.514  50.302  1.00  0.00     0.070 A 
HETATM   16 CL1  UNL     1      20.344   4.761  48.970  1.00  0.00    -0.081 Cl
HETATM   17  C13 UNL     1      22.089   3.385  50.550  1.00  0.00     0.031 A 
ENDBRANCH   8  11
BRANCH   1  18
HETATM   18  O1  UNL     1      23.824  -0.620  54.014  1.00  0.00    -0.346 OA
BRANCH  18  19
HETATM   19  C3  UNL     1      22.504  -0.897  53.618  1.00  0.00     0.205 C 
BRANCH  19  20
HETATM   20  C2  UNL     1      21.569  -0.860  54.829  1.00  0.00     0.295 C 
BRANCH  20  21
HETATM   21  N1  UNL     1      20.326  -0.230  54.419  1.00  0.00     0.081 N 
HETATM   22  C1  UNL     1      20.583   0.824  53.478  1.00  0.00     0.306 C 
HETATM   23  H4  UNL     1      19.724  -0.961  53.974  1.00  0.00     0.315 HD
ENDBRANCH  20  21
ENDBRANCH  19  20
ENDBRANCH  18  19
ENDBRANCH   1  18
BRANCH  10  24
HETATM   24  O2  UNL     1      26.558  -1.406  53.387  1.00  0.00    -0.353 OA
HETATM   25  C16 UNL     1      27.280  -2.369  52.641  1.00  0.00     0.210 C 
ENDBRANCH  10  24
TORSDOF 6
ENDMDL
MODEL 6
REMARK VINA RESULT:      -6.8      2.084      4.469
REMARK  6 active torsions:
REMARK  status: ('A' for Active; 'I' for Inactive)
REMARK    1  A    between atoms: N1_2  and  C2_3 
REMARK    2  A    between atoms: C2_3  and  C3_4 
REMARK    3  A    between atoms: C3_4  and  O1_5 
REMARK    4  A    between atoms: O1_5  and  C4_6 
REMARK    5  A    between atoms: N4_13  and  C9_14 
REMARK    6  A    between atoms: C15_22  and  O2_23 
ROOT
HETATM    1  C4  UNL     1      22.195   1.915  51.661  1.00  0.00     0.115 A 
HETATM    2  C5  UNL     1      23.451   1.712  51.982  1.00  0.00     0.046 A 
HETATM    3  C6  UNL     1      24.375   2.258  51.260  1.00  0.00     0.097 A 
HETATM    4  C7  UNL     1      24.121   3.102  50.071  1.00  0.00     0.090 A 
HETATM    5  N2  UNL     1      25.041   3.634  49.367  1.00  0.00    -0.238 NA
HETATM    6  C8  UNL     1      26.395   3.406  49.742  1.00  0.00     0.255 A 
HETATM    7  N3  UNL     1      26.713   2.684  50.764  1.00  0.00    -0.164 NA
HETATM    8  N4  UNL     1      25.748   2.073  51.576  1.00  0.00    -0.253 N 
HETATM    9  C14 UNL     1      22.719   3.315  49.721  1.00  0.00     0.073 A 
HETATM   10  C15 UNL     1      21.821   2.728  50.508  1.00  0.00     0.104 A 
ENDROOT
BRANCH   8  11
HETATM   11  C9  UNL     1      26.083   1.271  52.709  1.00  0.00     0.161 A 
HETATM   12  C10 UNL     1      26.743   0.001  52.429  1.00  0.00     0.048 A 
HETATM   13  C11 UNL     1      27.933   0.025  53.038  1.00  0.00     0.136 A 
HETATM   14  F1  UNL     1      28.827  -1.015  52.988  1.00  0.00    -0.205 F 
HETATM   15  C12 UNL     1      28.134   1.285  53.747  1.00  0.00     0.070 A 
HETATM   16 CL1  UNL     1      29.520   1.790  54.688  1.00  0.00    -0.081 Cl
HETATM   17  C13 UNL     1      27.051   2.015  53.554  1.00  0.00     0.031 A 
ENDBRANCH   8  11
BRANCH   1  18
HETATM   18  O1  UNL     1      21.273   1.297  52.497  1.00  0.00    -0.346 OA
BRANCH  18  19
HETATM   19  C3  UNL     1      21.144  -0.103  52.500  1.00  0.00     0.205 C 
BRANCH  19  20
HETATM   20  C2  UNL     1      20.345  -0.557  53.723  1.00  0.00     0.295 C 
BRANCH  20  21
HETATM   21  N1  UNL     1      21.126  -0.247  54.910  1.00  0.00     0.081 N 
HETATM   22  C1  UNL     1      22.280  -1.097  54.988  1.00  0.00     0.306 C 
HETATM   23  H4  UNL     1      21.426   0.752  54.847  1.00  0.00     0.315 HD
ENDBRANCH  20  21
ENDBRANCH  19  20
ENDBRANCH  18  19
ENDBRANCH   1  18
BRANCH  10  24
HETATM   24  O2  UNL     1      20.496   2.911  50.200  1.00  0.00    -0.353 OA
HETATM   25  C16 UNL     1      19.717   2.029  49.414  1.00  0.00     0.210 C 
ENDBRANCH  10  24
TORSDOF 6
ENDMDL
MODEL 7
REMARK VINA RESULT:      -6.5      4.285      6.680
REMARK  6 active torsions:
REMARK  status: ('A' for Active; 'I' for Inactive)
REMARK    1  A    between atoms: N1_2  and  C2_3 
REMARK    2  A    between atoms: C2_3  and  C3_4 
REMARK    3  A    between atoms: C3_4  and  O1_5 
REMARK    4  A    between atoms: O1_5  and  C4_6 
REMARK    5  A    between atoms: N4_13  and  C9_14 
REMARK    6  A    between atoms: C15_22  and  O2_23 
ROOT
HETATM    1  C4  UNL     1      25.998   1.706  53.598  1.00  0.00     0.115 A 
HETATM    2  C5  UNL     1      25.522   2.538  52.701  1.00  0.00     0.046 A 
HETATM    3  C6  UNL     1      24.449   2.213  52.056  1.00  0.00     0.097 A 
HETATM    4  C7  UNL     1      23.707   0.947  52.248  1.00  0.00     0.090 A 
HETATM    5  N2  UNL     1      22.650   0.637  51.605  1.00  0.00    -0.238 NA
HETATM    6  C8  UNL     1      22.150   1.560  50.644  1.00  0.00     0.255 A 
HETATM    7  N3  UNL     1      22.731   2.689  50.409  1.00  0.00    -0.164 NA
HETATM    8  N4  UNL     1      23.893   3.086  51.082  1.00  0.00    -0.253 N 
HETATM    9  C14 UNL     1      24.250   0.027  53.245  1.00  0.00     0.073 A 
HETATM   10  C15 UNL     1      25.353   0.427  53.873  1.00  0.00     0.104 A 
ENDROOT
BRANCH   8  11
HETATM   11  C9  UNL     1      24.548   4.331  50.833  1.00  0.00     0.161 A 
HETATM   12  C10 UNL     1      24.846   4.636  49.439  1.00  0.00     0.048 A 
HETATM   13  C11 UNL     1      24.208   5.770  49.131  1.00  0.00     0.136 A 
HETATM   14  F1  UNL     1      24.266   6.356  47.892  1.00  0.00    -0.205 F 
HETATM   15  C12 UNL     1      23.460   6.278  50.278  1.00  0.00     0.070 A 
HETATM   16 CL1  UNL     1      22.474   7.720  50.375  1.00  0.00    -0.081 Cl
HETATM   17  C13 UNL     1      23.660   5.436  51.274  1.00  0.00     0.031 A 
ENDBRANCH   8  11
BRANCH   1  18
HETATM   18  O1  UNL     1      27.147   2.143  54.245  1.00  0.00    -0.346 OA
BRANCH  18  19
HETATM   19  C3  UNL     1      28.395   2.074  53.601  1.00  0.00     0.205 C 
BRANCH  19  20
HETATM   20  C2  UNL     1      29.176   0.854  54.092  1.00  0.00     0.295 C 
BRANCH  20  21
HETATM   21  N1  UNL     1      28.809  -0.280  53.260  1.00  0.00     0.081 N 
HETATM   22  C1  UNL     1      29.579  -1.437  53.620  1.00  0.00     0.306 C 
HETATM   23  H4  UNL     1      27.792  -0.473  53.407  1.00  0.00     0.315 HD
ENDBRANCH  20  21
ENDBRANCH  19  20
ENDBRANCH  18  19
ENDBRANCH   1  18
BRANCH  10  24
HETATM   24  O2  UNL     1      25.884  -0.419  54.814  1.00  0.00    -0.353 OA
HETATM   25  C16 UNL     1      25.165  -0.983  55.896  1.00  0.00     0.210 C 
ENDBRANCH  10  24
TORSDOF 6
ENDMDL
MODEL 8
REMARK VINA RESULT:      -6.5      3.915      6.046
REMARK  6 active torsions:
REMARK  status: ('A' for Active; 'I' for Inactive)
REMARK    1  A    between atoms: N1_2  and  C2_3 
REMARK    2  A    between atoms: C2_3  and  C3_4 
REMARK    3  A    between atoms: C3_4  and  O1_5 
REMARK    4  A    between atoms: O1_5  and  C4_6 
REMARK    5  A    between atoms: N4_13  and  C9_14 
REMARK    6  A    between atoms: C15_22  and  O2_23 
ROOT
HETATM    1  C4  UNL     1      23.762   0.663  53.023  1.00  0.00     0.115 A 
HETATM    2  C5  UNL     1      23.738   1.804  52.375  1.00  0.00     0.046 A 
HETATM    3  C6  UNL     1      22.609   2.420  52.239  1.00  0.00     0.097 A 
HETATM    4  C7  UNL     1      21.315   1.924  52.758  1.00  0.00     0.090 A 
HETATM    5  N2  UNL     1      20.208   2.540  52.616  1.00  0.00    -0.238 NA
HETATM    6  C8  UNL     1      20.210   3.780  51.918  1.00  0.00     0.255 A 
HETATM    7  N3  UNL     1      21.291   4.291  51.429  1.00  0.00    -0.164 NA
HETATM    8  N4  UNL     1      22.537   3.662  51.553  1.00  0.00    -0.253 N 
HETATM    9  C14 UNL     1      21.354   0.649  53.472  1.00  0.00     0.073 A 
HETATM   10  C15 UNL     1      22.549   0.072  53.579  1.00  0.00     0.104 A 
ENDROOT
BRANCH   8  11
HETATM   11  C9  UNL     1      23.741   4.214  51.018  1.00  0.00     0.161 A 
HETATM   12  C10 UNL     1      23.829   4.286  49.564  1.00  0.00     0.048 A 
HETATM   13  C11 UNL     1      23.981   5.573  49.236  1.00  0.00     0.136 A 
HETATM   14  F1  UNL     1      24.099   6.013  47.941  1.00  0.00    -0.205 F 
HETATM   15  C12 UNL     1      24.005   6.419  50.425  1.00  0.00     0.070 A 
HETATM   16 CL1  UNL     1      24.183   8.158  50.516  1.00  0.00    -0.081 Cl
HETATM   17  C13 UNL     1      23.864   5.623  51.469  1.00  0.00     0.031 A 
ENDBRANCH   8  11
BRANCH   1  18
HETATM   18  O1  UNL     1      25.018   0.079  53.127  1.00  0.00    -0.346 OA
BRANCH  18  19
HETATM   19  C3  UNL     1      25.751   0.179  54.322  1.00  0.00     0.205 C 
BRANCH  19  20
HETATM   20  C2  UNL     1      27.209   0.531  54.019  1.00  0.00     0.295 C 
BRANCH  20  21
HETATM   21  N1  UNL     1      27.381   1.959  54.234  1.00  0.00     0.081 N 
HETATM   22  C1  UNL     1      28.553   2.432  53.553  1.00  0.00     0.306 C 
HETATM   23  H4  UNL     1      26.535   2.446  53.861  1.00  0.00     0.315 HD
ENDBRANCH  20  21
ENDBRANCH  19  20
ENDBRANCH  18  19
ENDBRANCH   1  18
BRANCH  10  24
HETATM   24  O2  UNL     1      22.613  -1.126  54.244  1.00  0.00    -0.353 OA
HETATM   25  C16 UNL     1      21.502  -1.956  54.527  1.00  0.00     0.210 C 
ENDBRANCH  10  24
TORSDOF 6
ENDMDL
MODEL 9
REMARK VINA RESULT:      -6.4      4.029      5.973
REMARK  6 active torsions:
REMARK  status: ('A' for Active; 'I' for Inactive)
REMARK    1  A    between atoms: N1_2  and  C2_3 
REMARK    2  A    between atoms: C2_3  and  C3_4 
REMARK    3  A    between atoms: C3_4  and  O1_5 
REMARK    4  A    between atoms: O1_5  and  C4_6 
REMARK    5  A    between atoms: N4_13  and  C9_14 
REMARK    6  A    between atoms: C15_22  and  O2_23 
ROOT
HETATM    1  C4  UNL     1      23.648   3.567  51.119  1.00  0.00     0.115 A 
HETATM    2  C5  UNL     1      22.796   2.751  51.694  1.00  0.00     0.046 A 
HETATM    3  C6  UNL     1      23.243   1.671  52.247  1.00  0.00     0.097 A 
HETATM    4  C7  UNL     1      24.667   1.270  52.273  1.00  0.00     0.090 A 
HETATM    5  N2  UNL     1      25.095   0.200  52.821  1.00  0.00    -0.238 NA
HETATM    6  C8  UNL     1      24.152  -0.662  53.446  1.00  0.00     0.255 A 
HETATM    7  N3  UNL     1      22.888  -0.395  53.472  1.00  0.00    -0.164 NA
HETATM    8  N4  UNL     1      22.357   0.763  52.889  1.00  0.00    -0.253 N 
HETATM    9  C14 UNL     1      25.605   2.183  51.624  1.00  0.00     0.073 A 
HETATM   10  C15 UNL     1      25.078   3.277  51.080  1.00  0.00     0.104 A 
ENDROOT
BRANCH   8  11
HETATM   11  C9  UNL     1      20.964   1.073  52.909  1.00  0.00     0.161 A 
HETATM   12  C10 UNL     1      20.277   1.044  51.623  1.00  0.00     0.048 A 
HETATM   13  C11 UNL     1      19.307   0.127  51.707  1.00  0.00     0.136 A 
HETATM   14  F1  UNL     1      18.455  -0.167  50.672  1.00  0.00    -0.205 F 
HETATM   15  C12 UNL     1      19.289  -0.497  53.026  1.00  0.00     0.070 A 
HETATM   16 CL1  UNL     1      18.214  -1.744  53.620  1.00  0.00    -0.081 Cl
HETATM   17  C13 UNL     1      20.258   0.057  53.730  1.00  0.00     0.031 A 
ENDBRANCH   8  11
BRANCH   1  18
HETATM   18  O1  UNL     1      23.079   4.704  50.560  1.00  0.00    -0.346 OA
BRANCH  18  19
HETATM   19  C3  UNL     1      22.811   5.830  51.358  1.00  0.00     0.205 C 
BRANCH  19  20
HETATM   20  C2  UNL     1      23.549   7.054  50.811  1.00  0.00     0.295 C 
BRANCH  20  21
HETATM   21  N1  UNL     1      24.940   6.962  51.225  1.00  0.00     0.081 N 
HETATM   22  C1  UNL     1      25.797   7.560  50.241  1.00  0.00     0.306 C 
HETATM   23  H4  UNL     1      25.040   7.468  52.135  1.00  0.00     0.315 HD
ENDBRANCH  20  21
ENDBRANCH  19  20
ENDBRANCH  18  19
ENDBRANCH   1  18
BRANCH  10  24
HETATM   24  O2  UNL     1      25.937   4.151  50.463  1.00  0.00    -0.353 OA
HETATM   25  C16 UNL     1      26.772   3.829  49.366  1.00  0.00     0.210 C 
ENDBRANCH  10  24
TORSDOF 6
ENDMDL
