MODEL 1
REMARK VINA RESULT:      -8.2      0.000      0.000
REMARK  6 active torsions:
REMARK  status: ('A' for Active; 'I' for Inactive)
REMARK    1  A    between atoms: C2_2  and  O1_3 
REMARK    2  A    between atoms: O1_3  and  C3_4 
REMARK    3  A    between atoms: C3_4  and  C4_5 
REMARK    4  A    between atoms: C4_5  and  O2_6 
REMARK    5  A    between atoms: O2_6  and  C5_7 
REMARK    6  A    between atoms: C9_13  and  C10_14 
ROOT
HETATM    1  C5  UNL     1      20.680   0.251  53.133  1.00  0.00     0.107 A 
HETATM    2  C6  UNL     1      21.035  -0.593  54.164  1.00  0.00     0.072 A 
HETATM    3  C7  UNL     1      22.380  -0.714  54.428  1.00  0.00     0.076 A 
HETATM    4  N1  UNL     1      22.689  -1.546  55.455  1.00  0.00    -0.241 NA
HETATM    5  C8  UNL     1      23.995  -1.682  55.747  1.00  0.00     0.234 A 
HETATM    6  N2  UNL     1      24.936  -1.039  55.069  1.00  0.00    -0.244 NA
HETATM    7  C9  UNL     1      24.691  -0.187  54.025  1.00  0.00     0.062 A 
HETATM    8  C15 UNL     1      23.350  -0.049  53.729  1.00  0.00     0.055 A 
HETATM    9  C16 UNL     1      23.007   0.785  52.713  1.00  0.00     0.119 A 
HETATM   10  C17 UNL     1      21.670   0.934  52.415  1.00  0.00     0.136 A 
HETATM   11  O3  UNL     1      21.392   1.805  51.357  1.00  0.00    -0.344 OA
HETATM   12  C18 UNL     1      22.272   1.774  50.250  1.00  0.00     0.202 C 
HETATM   13  C19 UNL     1      23.712   1.894  50.663  1.00  0.00     0.202 C 
HETATM   14  O4  UNL     1      23.911   1.473  51.988  1.00  0.00    -0.345 OA
ENDROOT
BRANCH   1  15
HETATM   15  O2  UNL     1      19.371   0.436  52.796  1.00  0.00    -0.346 OA
BRANCH  15  16
HETATM   16  C4  UNL     1      18.654  -0.244  51.824  1.00  0.00     0.202 C 
BRANCH  16  17
HETATM   17  C3  UNL     1      17.325  -0.773  52.320  1.00  0.00     0.201 C 
BRANCH  17  18
HETATM   18  O1  UNL     1      17.452  -1.426  53.557  1.00  0.00    -0.362 OA
BRANCH  18  19
HETATM   19  C2  UNL     1      17.971  -2.693  53.723  1.00  0.00     0.124 C 
HETATM   20  C1  UNL     1      17.081  -3.678  53.540  1.00  0.00     0.037 C 
ENDBRANCH  18  19
ENDBRANCH  17  18
ENDBRANCH  16  17
ENDBRANCH  15  16
ENDBRANCH   1  15
BRANCH   7  21
HETATM   21  C10 UNL     1      25.839   0.414  53.371  1.00  0.00     0.087 A 
HETATM   22  C11 UNL     1      26.460  -0.740  52.575  1.00  0.00    -0.009 A 
HETATM   23  C12 UNL     1      27.671  -0.936  53.053  1.00  0.00     0.039 A 
HETATM   24  C13 UNL     1      28.042  -0.048  54.138  1.00  0.00     0.113 A 
HETATM   25  F1  UNL     1      29.184   0.037  54.855  1.00  0.00    -0.206 F 
HETATM   26  C14 UNL     1      26.965   0.710  54.289  1.00  0.00     0.030 A 
ENDBRANCH   7  21
TORSDOF 6
ENDMDL
MODEL 2
REMARK VINA RESULT:      -8.1      1.928      3.257
REMARK  6 active torsions:
REMARK  status: ('A' for Active; 'I' for Inactive)
REMARK    1  A    between atoms: C2_2  and  O1_3 
REMARK    2  A    between atoms: O1_3  and  C3_4 
REMARK    3  A    between atoms: C3_4  and  C4_5 
REMARK    4  A    between atoms: C4_5  and  O2_6 
REMARK    5  A    between atoms: O2_6  and  C5_7 
REMARK    6  A    between atoms: C9_13  and  C10_14 
ROOT
HETATM    1  C5  UNL     1      21.877   1.374  51.951  1.00  0.00     0.107 A 
HETATM    2  C6  UNL     1      22.830   2.115  51.285  1.00  0.00     0.072 A 
HETATM    3  C7  UNL     1      24.146   1.813  51.554  1.00  0.00     0.076 A 
HETATM    4  N1  UNL     1      25.054   2.558  50.874  1.00  0.00    -0.241 NA
HETATM    5  C8  UNL     1      26.351   2.284  51.106  1.00  0.00     0.234 A 
HETATM    6  N2  UNL     1      26.727   1.338  51.956  1.00  0.00    -0.244 NA
HETATM    7  C9  UNL     1      25.862   0.554  52.671  1.00  0.00     0.062 A 
HETATM    8  C15 UNL     1      24.533   0.835  52.430  1.00  0.00     0.055 A 
HETATM    9  C16 UNL     1      23.598   0.101  53.088  1.00  0.00     0.119 A 
HETATM   10  C17 UNL     1      22.269   0.372  52.848  1.00  0.00     0.136 A 
HETATM   11  O3  UNL     1      21.364  -0.421  53.561  1.00  0.00    -0.344 OA
HETATM   12  C18 UNL     1      21.699  -0.734  54.899  1.00  0.00     0.202 C 
HETATM   13  C19 UNL     1      23.091  -1.285  55.024  1.00  0.00     0.202 C 
HETATM   14  O4  UNL     1      23.911  -0.878  53.959  1.00  0.00    -0.345 OA
ENDROOT
BRANCH   1  15
HETATM   15  O2  UNL     1      20.546   1.600  51.750  1.00  0.00    -0.346 OA
BRANCH  15  16
HETATM   16  C4  UNL     1      19.728   0.996  50.808  1.00  0.00     0.202 C 
BRANCH  16  17
HETATM   17  C3  UNL     1      18.393   0.554  51.369  1.00  0.00     0.201 C 
BRANCH  17  18
HETATM   18  O1  UNL     1      18.484  -0.690  52.015  1.00  0.00    -0.362 OA
BRANCH  18  19
HETATM   19  C2  UNL     1      17.747  -1.052  53.122  1.00  0.00     0.124 C 
HETATM   20  C1  UNL     1      18.007  -2.287  53.575  1.00  0.00     0.037 C 
ENDBRANCH  18  19
ENDBRANCH  17  18
ENDBRANCH  16  17
ENDBRANCH  15  16
ENDBRANCH   1  15
BRANCH   7  21
HETATM   21  C10 UNL     1      26.440  -0.418  53.582  1.00  0.00     0.087 A 
HETATM   22  C11 UNL     1      27.062   0.437  54.692  1.00  0.00    -0.009 A 
HETATM   23  C12 UNL     1      28.359   0.209  54.680  1.00  0.00     0.039 A 
HETATM   24  C13 UNL     1      28.795  -0.735  53.669  1.00  0.00     0.113 A 
HETATM   25  F1  UNL     1      30.029  -1.199  53.371  1.00  0.00    -0.206 F 
HETATM   26  C14 UNL     1      27.666  -1.071  53.063  1.00  0.00     0.030 A 
ENDBRANCH   7  21
TORSDOF 6
ENDMDL
MODEL 3
REMARK VINA RESULT:      -8.0      2.683      4.303
REMARK  6 active torsions:
REMARK  status: ('A' for Active; 'I' for Inactive)
REMARK    1  A    between atoms: C2_2  and  O1_3 
REMARK    2  A    between atoms: O1_3  and  C3_4 
REMARK    3  A    between atoms: C3_4  and  C4_5 
REMARK    4  A    between atoms: C4_5  and  O2_6 
REMARK    5  A    between atoms: O2_6  and  C5_7 
REMARK    6  A    between atoms: C9_13  and  C10_14 
ROOT
HETATM    1  C5  UNL     1      21.963   1.770  52.209  1.00  0.00     0.107 A 
HETATM    2  C6  UNL     1      22.944   2.522  51.598  1.00  0.00     0.072 A 
HETATM    3  C7  UNL     1      24.245   2.124  51.804  1.00  0.00     0.076 A 
HETATM    4  N1  UNL     1      25.181   2.883  51.180  1.00  0.00    -0.241 NA
HETATM    5  C8  UNL     1      26.465   2.518  51.353  1.00  0.00     0.234 A 
HETATM    6  N2  UNL     1      26.803   1.473  52.096  1.00  0.00    -0.244 NA
HETATM    7  C9  UNL     1      25.908   0.668  52.751  1.00  0.00     0.062 A 
HETATM    8  C15 UNL     1      24.593   1.044  52.570  1.00  0.00     0.055 A 
HETATM    9  C16 UNL     1      23.630   0.299  53.174  1.00  0.00     0.119 A 
HETATM   10  C17 UNL     1      22.314   0.664  52.992  1.00  0.00     0.136 A 
HETATM   11  O3  UNL     1      21.380  -0.146  53.645  1.00  0.00    -0.344 OA
HETATM   12  C18 UNL     1      21.720  -0.609  54.937  1.00  0.00     0.202 C 
HETATM   13  C19 UNL     1      23.081  -1.244  54.975  1.00  0.00     0.202 C 
HETATM   14  O4  UNL     1      23.904  -0.778  53.936  1.00  0.00    -0.345 OA
ENDROOT
BRANCH   1  15
HETATM   15  O2  UNL     1      20.644   2.087  52.063  1.00  0.00    -0.346 OA
BRANCH  15  16
HETATM   16  C4  UNL     1      20.034   2.637  50.946  1.00  0.00     0.202 C 
BRANCH  16  17
HETATM   17  C3  UNL     1      19.631   1.605  49.913  1.00  0.00     0.201 C 
BRANCH  17  18
HETATM   18  O1  UNL     1      20.349   1.757  48.716  1.00  0.00    -0.362 OA
BRANCH  18  19
HETATM   19  C2  UNL     1      21.616   1.258  48.495  1.00  0.00     0.124 C 
HETATM   20  C1  UNL     1      22.408   2.069  47.780  1.00  0.00     0.037 C 
ENDBRANCH  18  19
ENDBRANCH  17  18
ENDBRANCH  16  17
ENDBRANCH  15  16
ENDBRANCH   1  15
BRANCH   7  21
HETATM   21  C10 UNL     1      26.447  -0.420  53.547  1.00  0.00     0.087 A 
HETATM   22  C11 UNL     1      27.040   0.278  54.777  1.00  0.00    -0.009 A 
HETATM   23  C12 UNL     1      28.334   0.037  54.776  1.00  0.00     0.039 A 
HETATM   24  C13 UNL     1      28.795  -0.776  53.667  1.00  0.00     0.113 A 
HETATM   25  F1  UNL     1      30.034  -1.214  53.351  1.00  0.00    -0.206 F 
HETATM   26  C14 UNL     1      27.683  -1.016  52.987  1.00  0.00     0.030 A 
ENDBRANCH   7  21
TORSDOF 6
ENDMDL
MODEL 4
REMARK VINA RESULT:      -8.0      2.669      4.083
REMARK  6 active torsions:
REMARK  status: ('A' for Active; 'I' for Inactive)
REMARK    1  A    between atoms: C2_2  and  O1_3 
REMARK    2  A    between atoms: O1_3  and  C3_4 
REMARK    3  A    between atoms: C3_4  and  C4_5 
REMARK    4  A    between atoms: C4_5  and  O2_6 
REMARK    5  A    between atoms: O2_6  and  C5_7 
REMARK    6  A    between atoms: C9_13  and  C10_14 
ROOT
HETATM    1  C5  UNL     1      21.911   1.468  51.914  1.00  0.00     0.107 A 
HETATM    2  C6  UNL     1      22.884   2.195  51.260  1.00  0.00     0.072 A 
HETATM    3  C7  UNL     1      24.191   1.866  51.536  1.00  0.00     0.076 A 
HETATM    4  N1  UNL     1      25.118   2.597  50.867  1.00  0.00    -0.241 NA
HETATM    5  C8  UNL     1      26.408   2.296  51.105  1.00  0.00     0.234 A 
HETATM    6  N2  UNL     1      26.760   1.338  51.951  1.00  0.00    -0.244 NA
HETATM    7  C9  UNL     1      25.875   0.566  52.656  1.00  0.00     0.062 A 
HETATM    8  C15 UNL     1      24.553   0.875  52.408  1.00  0.00     0.055 A 
HETATM    9  C16 UNL     1      23.600   0.155  53.054  1.00  0.00     0.119 A 
HETATM   10  C17 UNL     1      22.278   0.453  52.807  1.00  0.00     0.136 A 
HETATM   11  O3  UNL     1      21.353  -0.327  53.509  1.00  0.00    -0.344 OA
HETATM   12  C18 UNL     1      21.673  -0.655  54.847  1.00  0.00     0.202 C 
HETATM   13  C19 UNL     1      23.053  -1.234  54.978  1.00  0.00     0.202 C 
HETATM   14  O4  UNL     1      23.888  -0.836  53.920  1.00  0.00    -0.345 OA
ENDROOT
BRANCH   1  15
HETATM   15  O2  UNL     1      20.587   1.721  51.706  1.00  0.00    -0.346 OA
BRANCH  15  16
HETATM   16  C4  UNL     1      19.837   2.753  52.250  1.00  0.00     0.202 C 
BRANCH  16  17
HETATM   17  C3  UNL     1      18.641   3.134  51.403  1.00  0.00     0.201 C 
BRANCH  17  18
HETATM   18  O1  UNL     1      17.720   3.914  52.122  1.00  0.00    -0.362 OA
BRANCH  18  19
HETATM   19  C2  UNL     1      16.431   4.180  51.710  1.00  0.00     0.124 C 
HETATM   20  C1  UNL     1      15.499   3.955  52.647  1.00  0.00     0.037 C 
ENDBRANCH  18  19
ENDBRANCH  17  18
ENDBRANCH  16  17
ENDBRANCH  15  16
ENDBRANCH   1  15
BRANCH   7  21
HETATM   21  C10 UNL     1      26.428  -0.423  53.563  1.00  0.00     0.087 A 
HETATM   22  C11 UNL     1      27.032   0.411  54.698  1.00  0.00    -0.009 A 
HETATM   23  C12 UNL     1      28.328   0.175  54.709  1.00  0.00     0.039 A 
HETATM   24  C13 UNL     1      28.778  -0.758  53.694  1.00  0.00     0.113 A 
HETATM   25  F1  UNL     1      30.015  -1.226  53.414  1.00  0.00    -0.206 F 
HETATM   26  C14 UNL     1      27.660  -1.076  53.060  1.00  0.00     0.030 A 
ENDBRANCH   7  21
TORSDOF 6
ENDMDL
MODEL 5
REMARK VINA RESULT:      -7.8      3.556      7.026
REMARK  6 active torsions:
REMARK  status: ('A' for Active; 'I' for Inactive)
REMARK    1  A    between atoms: C2_2  and  O1_3 
REMARK    2  A    between atoms: O1_3  and  C3_4 
REMARK    3  A    between atoms: C3_4  and  C4_5 
REMARK    4  A    between atoms: C4_5  and  O2_6 
REMARK    5  A    between atoms: O2_6  and  C5_7 
REMARK    6  A    between atoms: C9_13  and  C10_14 
ROOT
HETATM    1  C5  UNL     1      27.005   1.121  52.982  1.00  0.00     0.107 A 
HETATM    2  C6  UNL     1      26.332   0.332  53.891  1.00  0.00     0.072 A 
HETATM    3  C7  UNL     1      24.979   0.178  53.693  1.00  0.00     0.076 A 
HETATM    4  N1  UNL     1      24.354  -0.611  54.603  1.00  0.00    -0.241 NA
HETATM    5  C8  UNL     1      23.031  -0.791  54.434  1.00  0.00     0.234 A 
HETATM    6  N2  UNL     1      22.368  -0.227  53.434  1.00  0.00    -0.244 NA
HETATM    7  C9  UNL     1      22.939   0.578  52.485  1.00  0.00     0.062 A 
HETATM    8  C15 UNL     1      24.296   0.760  52.659  1.00  0.00     0.055 A 
HETATM    9  C16 UNL     1      24.954   1.536  51.760  1.00  0.00     0.119 A 
HETATM   10  C17 UNL     1      26.311   1.717  51.923  1.00  0.00     0.136 A 
HETATM   11  O3  UNL     1      26.920   2.529  50.961  1.00  0.00    -0.344 OA
HETATM   12  C18 UNL     1      26.194   3.661  50.522  1.00  0.00     0.202 C 
HETATM   13  C19 UNL     1      24.794   3.313  50.102  1.00  0.00     0.202 C 
HETATM   14  O4  UNL     1      24.343   2.133  50.717  1.00  0.00    -0.345 OA
ENDROOT
BRANCH   1  15
HETATM   15  O2  UNL     1      28.348   1.333  53.096  1.00  0.00    -0.346 OA
BRANCH  15  16
HETATM   16  C4  UNL     1      29.214   0.745  54.006  1.00  0.00     0.202 C 
BRANCH  16  17
HETATM   17  C3  UNL     1      29.889  -0.501  53.473  1.00  0.00     0.201 C 
BRANCH  17  18
HETATM   18  O1  UNL     1      29.225  -1.669  53.881  1.00  0.00    -0.362 OA
BRANCH  18  19
HETATM   19  C2  UNL     1      28.785  -2.658  53.027  1.00  0.00     0.124 C 
HETATM   20  C1  UNL     1      27.523  -2.496  52.605  1.00  0.00     0.037 C 
ENDBRANCH  18  19
ENDBRANCH  17  18
ENDBRANCH  16  17
ENDBRANCH  15  16
ENDBRANCH   1  15
BRANCH   7  21
HETATM   21  C10 UNL     1      22.065   1.140  51.472  1.00  0.00     0.087 A 
HETATM   22  C11 UNL     1      21.186   2.129  52.247  1.00  0.00    -0.009 A 
HETATM   23  C12 UNL     1      19.941   1.710  52.142  1.00  0.00     0.039 A 
HETATM   24  C13 UNL     1      19.778   0.497  51.363  1.00  0.00     0.113 A 
HETATM   25  F1  UNL     1      18.667  -0.207  51.052  1.00  0.00    -0.206 F 
HETATM   26  C14 UNL     1      21.017   0.204  50.998  1.00  0.00     0.030 A 
ENDBRANCH   7  21
TORSDOF 6
ENDMDL
MODEL 6
REMARK VINA RESULT:      -7.5      3.098      3.944
REMARK  6 active torsions:
REMARK  status: ('A' for Active; 'I' for Inactive)
REMARK    1  A    between atoms: C2_2  and  O1_3 
REMARK    2  A    between atoms: O1_3  and  C3_4 
REMARK    3  A    between atoms: C3_4  and  C4_5 
REMARK    4  A    between atoms: C4_5  and  O2_6 
REMARK    5  A    between atoms: O2_6  and  C5_7 
REMARK    6  A    between atoms: C9_13  and  C10_14 
ROOT
HETATM    1  C5  UNL     1      22.280   3.437  51.574  1.00  0.00     0.107 A 
HETATM    2  C6  UNL     1      21.878   2.356  52.329  1.00  0.00     0.072 A 
HETATM    3  C7  UNL     1      22.853   1.451  52.681  1.00  0.00     0.076 A 
HETATM    4  N1  UNL     1      22.420   0.405  53.430  1.00  0.00    -0.241 NA
HETATM    5  C8  UNL     1      23.350  -0.495  53.800  1.00  0.00     0.234 A 
HETATM    6  N2  UNL     1      24.623  -0.372  53.451  1.00  0.00    -0.244 NA
HETATM    7  C9  UNL     1      25.123   0.657  52.698  1.00  0.00     0.062 A 
HETATM    8  C15 UNL     1      24.168   1.579  52.322  1.00  0.00     0.055 A 
HETATM    9  C16 UNL     1      24.570   2.643  51.580  1.00  0.00     0.119 A 
HETATM   10  C17 UNL     1      23.624   3.573  51.206  1.00  0.00     0.136 A 
HETATM   11  O3  UNL     1      24.110   4.639  50.442  1.00  0.00    -0.344 OA
HETATM   12  C18 UNL     1      25.098   4.339  49.475  1.00  0.00     0.202 C 
HETATM   13  C19 UNL     1      26.237   3.546  50.051  1.00  0.00     0.202 C 
HETATM   14  O4  UNL     1      25.849   2.832  51.197  1.00  0.00    -0.345 OA
ENDROOT
BRANCH   1  15
HETATM   15  O2  UNL     1      21.385   4.387  51.177  1.00  0.00    -0.346 OA
BRANCH  15  16
HETATM   16  C4  UNL     1      20.220   4.188  50.451  1.00  0.00     0.202 C 
BRANCH  16  17
HETATM   17  C3  UNL     1      20.470   3.700  49.040  1.00  0.00     0.201 C 
BRANCH  17  18
HETATM   18  O1  UNL     1      20.288   2.312  48.928  1.00  0.00    -0.362 OA
BRANCH  18  19
HETATM   19  C2  UNL     1      21.286   1.414  48.615  1.00  0.00     0.124 C 
HETATM   20  C1  UNL     1      22.368   1.972  48.052  1.00  0.00     0.037 C 
ENDBRANCH  18  19
ENDBRANCH  17  18
ENDBRANCH  16  17
ENDBRANCH  15  16
ENDBRANCH   1  15
BRANCH   7  21
HETATM   21  C10 UNL     1      26.539   0.626  52.381  1.00  0.00     0.087 A 
HETATM   22  C11 UNL     1      26.839  -0.863  52.167  1.00  0.00    -0.009 A 
HETATM   23  C12 UNL     1      27.714  -1.220  53.084  1.00  0.00     0.039 A 
HETATM   24  C13 UNL     1      28.115  -0.154  53.982  1.00  0.00     0.113 A 
HETATM   25  F1  UNL     1      28.978  -0.157  55.022  1.00  0.00    -0.206 F 
HETATM   26  C14 UNL     1      27.419   0.885  53.545  1.00  0.00     0.030 A 
ENDBRANCH   7  21
TORSDOF 6
ENDMDL
MODEL 7
REMARK VINA RESULT:      -7.1      2.053      2.776
REMARK  6 active torsions:
REMARK  status: ('A' for Active; 'I' for Inactive)
REMARK    1  A    between atoms: C2_2  and  O1_3 
REMARK    2  A    between atoms: O1_3  and  C3_4 
REMARK    3  A    between atoms: C3_4  and  C4_5 
REMARK    4  A    between atoms: C4_5  and  O2_6 
REMARK    5  A    between atoms: O2_6  and  C5_7 
REMARK    6  A    between atoms: C9_13  and  C10_14 
ROOT
HETATM    1  C5  UNL     1      20.845   1.179  51.633  1.00  0.00     0.107 A 
HETATM    2  C6  UNL     1      20.870   0.213  52.616  1.00  0.00     0.072 A 
HETATM    3  C7  UNL     1      22.092  -0.054  53.190  1.00  0.00     0.076 A 
HETATM    4  N1  UNL     1      22.074  -1.005  54.158  1.00  0.00    -0.241 NA
HETATM    5  C8  UNL     1      23.251  -1.284  54.748  1.00  0.00     0.234 A 
HETATM    6  N2  UNL     1      24.373  -0.668  54.402  1.00  0.00    -0.244 NA
HETATM    7  C9  UNL     1      24.458   0.298  53.435  1.00  0.00     0.062 A 
HETATM    8  C15 UNL     1      23.249   0.584  52.834  1.00  0.00     0.055 A 
HETATM    9  C16 UNL     1      23.231   1.538  51.867  1.00  0.00     0.119 A 
HETATM   10  C17 UNL     1      22.027   1.835  51.266  1.00  0.00     0.136 A 
HETATM   11  O3  UNL     1      22.085   2.825  50.280  1.00  0.00    -0.344 OA
HETATM   12  C18 UNL     1      23.215   2.820  49.429  1.00  0.00     0.202 C 
HETATM   13  C19 UNL     1      24.506   2.769  50.197  1.00  0.00     0.202 C 
HETATM   14  O4  UNL     1      24.332   2.208  51.473  1.00  0.00    -0.345 OA
ENDROOT
BRANCH   1  15
HETATM   15  O2  UNL     1      19.681   1.513  51.005  1.00  0.00    -0.346 OA
BRANCH  15  16
HETATM   16  C4  UNL     1      18.559   2.092  51.577  1.00  0.00     0.202 C 
BRANCH  16  17
HETATM   17  C3  UNL     1      18.544   3.603  51.470  1.00  0.00     0.201 C 
BRANCH  17  18
HETATM   18  O1  UNL     1      17.355   4.151  51.978  1.00  0.00    -0.362 OA
BRANCH  18  19
HETATM   19  C2  UNL     1      16.137   3.505  51.984  1.00  0.00     0.124 C 
HETATM   20  C1  UNL     1      15.266   3.987  52.882  1.00  0.00     0.037 C 
ENDBRANCH  18  19
ENDBRANCH  17  18
ENDBRANCH  16  17
ENDBRANCH  15  16
ENDBRANCH   1  15
BRANCH   7  21
HETATM   21  C10 UNL     1      25.771   0.853  53.160  1.00  0.00     0.087 A 
HETATM   22  C11 UNL     1      26.479  -0.248  52.362  1.00  0.00    -0.009 A 
HETATM   23  C12 UNL     1      27.521  -0.633  53.069  1.00  0.00     0.039 A 
HETATM   24  C13 UNL     1      27.683   0.063  54.331  1.00  0.00     0.113 A 
HETATM   25  F1  UNL     1      28.621  -0.069  55.295  1.00  0.00    -0.206 F 
HETATM   26  C14 UNL     1      26.660   0.905  54.344  1.00  0.00     0.030 A 
ENDBRANCH   7  21
TORSDOF 6
ENDMDL
MODEL 8
REMARK VINA RESULT:      -7.1      3.261      5.445
REMARK  6 active torsions:
REMARK  status: ('A' for Active; 'I' for Inactive)
REMARK    1  A    between atoms: C2_2  and  O1_3 
REMARK    2  A    between atoms: O1_3  and  C3_4 
REMARK    3  A    between atoms: C3_4  and  C4_5 
REMARK    4  A    between atoms: C4_5  and  O2_6 
REMARK    5  A    between atoms: O2_6  and  C5_7 
REMARK    6  A    between atoms: C9_13  and  C10_14 
ROOT
HETATM    1  C5  UNL     1      22.493   3.384  51.369  1.00  0.00     0.107 A 
HETATM    2  C6  UNL     1      22.059   2.336  52.154  1.00  0.00     0.072 A 
HETATM    3  C7  UNL     1      23.010   1.420  52.542  1.00  0.00     0.076 A 
HETATM    4  N1  UNL     1      22.546   0.408  53.319  1.00  0.00    -0.241 NA
HETATM    5  C8  UNL     1      23.451  -0.502  53.724  1.00  0.00     0.234 A 
HETATM    6  N2  UNL     1      24.729  -0.420  53.383  1.00  0.00    -0.244 NA
HETATM    7  C9  UNL     1      25.259   0.573  52.603  1.00  0.00     0.062 A 
HETATM    8  C15 UNL     1      24.330   1.506  52.190  1.00  0.00     0.055 A 
HETATM    9  C16 UNL     1      24.763   2.536  51.419  1.00  0.00     0.119 A 
HETATM   10  C17 UNL     1      23.843   3.476  51.008  1.00  0.00     0.136 A 
HETATM   11  O3  UNL     1      24.360   4.506  50.216  1.00  0.00    -0.344 OA
HETATM   12  C18 UNL     1      25.348   4.153  49.267  1.00  0.00     0.202 C 
HETATM   13  C19 UNL     1      26.463   3.351  49.877  1.00  0.00     0.202 C 
HETATM   14  O4  UNL     1      26.049   2.683  51.041  1.00  0.00    -0.345 OA
ENDROOT
BRANCH   1  15
HETATM   15  O2  UNL     1      21.624   4.342  50.935  1.00  0.00    -0.346 OA
BRANCH  15  16
HETATM   16  C4  UNL     1      21.581   5.672  51.326  1.00  0.00     0.202 C 
BRANCH  16  17
HETATM   17  C3  UNL     1      21.524   6.637  50.161  1.00  0.00     0.201 C 
BRANCH  17  18
HETATM   18  O1  UNL     1      22.133   7.864  50.470  1.00  0.00    -0.362 OA
BRANCH  18  19
HETATM   19  C2  UNL     1      23.211   8.394  49.794  1.00  0.00     0.124 C 
HETATM   20  C1  UNL     1      24.400   8.096  50.337  1.00  0.00     0.037 C 
ENDBRANCH  18  19
ENDBRANCH  17  18
ENDBRANCH  16  17
ENDBRANCH  15  16
ENDBRANCH   1  15
BRANCH   7  21
HETATM   21  C10 UNL     1      26.677   0.498  52.299  1.00  0.00     0.087 A 
HETATM   22  C11 UNL     1      26.954  -1.006  52.187  1.00  0.00    -0.009 A 
HETATM   23  C12 UNL     1      27.817  -1.315  53.132  1.00  0.00     0.039 A 
HETATM   24  C13 UNL     1      28.230  -0.197  53.959  1.00  0.00     0.113 A 
HETATM   25  F1  UNL     1      29.086  -0.144  55.004  1.00  0.00    -0.206 F 
HETATM   26  C14 UNL     1      27.554   0.821  53.449  1.00  0.00     0.030 A 
ENDBRANCH   7  21
TORSDOF 6
ENDMDL
MODEL 9
REMARK VINA RESULT:      -7.1      3.533      7.269
REMARK  6 active torsions:
REMARK  status: ('A' for Active; 'I' for Inactive)
REMARK    1  A    between atoms: C2_2  and  O1_3 
REMARK    2  A    between atoms: O1_3  and  C3_4 
REMARK    3  A    between atoms: C3_4  and  C4_5 
REMARK    4  A    between atoms: C4_5  and  O2_6 
REMARK    5  A    between atoms: O2_6  and  C5_7 
REMARK    6  A    between atoms: C9_13  and  C10_14 
ROOT
HETATM    1  C5  UNL     1      24.889   0.538  52.953  1.00  0.00     0.107 A 
HETATM    2  C6  UNL     1      24.044  -0.225  53.731  1.00  0.00     0.072 A 
HETATM    3  C7  UNL     1      22.709  -0.200  53.399  1.00  0.00     0.076 A 
HETATM    4  N1  UNL     1      21.910  -0.969  54.182  1.00  0.00    -0.241 NA
HETATM    5  C8  UNL     1      20.599  -0.976  53.881  1.00  0.00     0.234 A 
HETATM    6  N2  UNL     1      20.107  -0.268  52.874  1.00  0.00    -0.244 NA
HETATM    7  C9  UNL     1      20.857   0.527  52.049  1.00  0.00     0.062 A 
HETATM    8  C15 UNL     1      22.202   0.530  52.359  1.00  0.00     0.055 A 
HETATM    9  C16 UNL     1      23.030   1.283  51.588  1.00  0.00     0.119 A 
HETATM   10  C17 UNL     1      24.375   1.286  51.887  1.00  0.00     0.136 A 
HETATM   11  O3  UNL     1      25.165   2.084  51.053  1.00  0.00    -0.344 OA
HETATM   12  C18 UNL     1      24.620   3.323  50.643  1.00  0.00     0.202 C 
HETATM   13  C19 UNL     1      23.238   3.177  50.072  1.00  0.00     0.202 C 
HETATM   14  O4  UNL     1      22.597   2.020  50.546  1.00  0.00    -0.345 OA
ENDROOT
BRANCH   1  15
HETATM   15  O2  UNL     1      26.230   0.578  53.204  1.00  0.00    -0.346 OA
BRANCH  15  16
HETATM   16  C4  UNL     1      26.851   1.011  54.365  1.00  0.00     0.202 C 
BRANCH  16  17
HETATM   17  C3  UNL     1      27.887   0.039  54.889  1.00  0.00     0.201 C 
BRANCH  17  18
HETATM   18  O1  UNL     1      28.034  -1.073  54.044  1.00  0.00    -0.362 OA
BRANCH  18  19
HETATM   19  C2  UNL     1      29.205  -1.418  53.403  1.00  0.00     0.124 C 
HETATM   20  C1  UNL     1      30.160  -0.480  53.461  1.00  0.00     0.037 C 
ENDBRANCH  18  19
ENDBRANCH  17  18
ENDBRANCH  16  17
ENDBRANCH  15  16
ENDBRANCH   1  15
BRANCH   7  21
HETATM   21  C10 UNL     1      20.157   1.259  51.010  1.00  0.00     0.087 A 
HETATM   22  C11 UNL     1      19.502   2.428  51.756  1.00  0.00    -0.009 A 
HETATM   23  C12 UNL     1      18.199   2.297  51.619  1.00  0.00     0.039 A 
HETATM   24  C13 UNL     1      17.788   1.144  50.842  1.00  0.00     0.113 A 
HETATM   25  F1  UNL     1      16.555   0.703  50.504  1.00  0.00    -0.206 F 
HETATM   26  C14 UNL     1      18.938   0.577  50.512  1.00  0.00     0.030 A 
ENDBRANCH   7  21
TORSDOF 6
ENDMDL
