MODEL 1
REMARK VINA RESULT:      -9.0      0.000      0.000
REMARK  4 active torsions:
REMARK  status: ('A' for Active; 'I' for Inactive)
REMARK    1  A    between atoms: O1_2  and  C2_3 
REMARK    2  A    between atoms: C5_6  and  C7_8 
REMARK    3  A    between atoms: C15_18  and  C16_19 
REMARK    4  A    between atoms: C22_29  and  O2_30 
ROOT
HETATM    1  C2  UNL     1      21.327   2.124  50.195  1.00  0.00     0.088 C 
HETATM    2  C3  UNL     1      22.377   2.208  50.990  1.00  0.00     0.094 C 
HETATM    3  C4  UNL     1      22.985   1.770  52.231  1.00  0.00    -0.036 C 
HETATM    4  C5  UNL     1      24.142   2.434  52.267  1.00  0.00    -0.019 C 
HETATM    5  C6  UNL     1      25.035   2.200  53.460  1.00  0.00     0.052 C 
HETATM    6  C14 UNL     1      22.748   0.882  53.393  1.00  0.00     0.036 C 
HETATM    7  C15 UNL     1      21.710   0.131  53.532  1.00  0.00     0.040 C 
HETATM    8  N2  UNL     1      20.620  -0.166  52.729  1.00  0.00    -0.342 N 
HETATM    9  C17 UNL     1      19.299  -0.252  52.276  1.00  0.00     0.141 A 
HETATM   10  N3  UNL     1      18.741  -0.977  53.248  1.00  0.00    -0.224 NA
HETATM   11  C18 UNL     1      17.443  -1.315  53.224  1.00  0.00     0.234 A 
HETATM   12  N4  UNL     1      16.679  -0.915  52.195  1.00  0.00    -0.253 NA
HETATM   13  C19 UNL     1      17.301  -0.177  51.231  1.00  0.00     0.133 A 
HETATM   14  C20 UNL     1      18.634   0.209  51.189  1.00  0.00     0.030 A 
HETATM   15  C21 UNL     1      18.964   1.008  50.033  1.00  0.00     0.056 C 
HETATM   16  C22 UNL     1      19.995   1.726  49.687  1.00  0.00     0.099 C 
HETATM   17  H15 UNL     1      21.076  -0.665  51.936  1.00  0.00     0.167 HD
ENDROOT
BRANCH   4  18
HETATM   18  C7  UNL     1      24.805   3.353  51.343  1.00  0.00     0.105 A 
HETATM   19  N1  UNL     1      24.674   4.539  50.927  1.00  0.00    -0.240 NA
HETATM   20  C8  UNL     1      25.544   5.039  50.060  1.00  0.00     0.075 A 
HETATM   21  C9  UNL     1      25.391   6.355  49.603  1.00  0.00     0.033 A 
HETATM   22  C13 UNL     1      26.624   4.295  49.575  1.00  0.00     0.035 A 
HETATM   23  C10 UNL     1      26.315   6.847  48.696  1.00  0.00     0.002 A 
HETATM   24  C11 UNL     1      27.377   6.152  48.204  1.00  0.00     0.002 A 
HETATM   25  C12 UNL     1      27.524   4.862  48.654  1.00  0.00     0.021 A 
HETATM   26  S1  UNL     1      26.363   2.786  50.424  1.00  0.00    -0.068 SA
ENDBRANCH   4  18
BRANCH   1  27
HETATM   27  O1  UNL     1      22.164   2.993  49.516  1.00  0.00    -0.357 OA
HETATM   28  C1  UNL     1      22.974   2.590  48.432  1.00  0.00     0.209 C 
ENDBRANCH   1  27
BRANCH   7  29
HETATM   29  C16 UNL     1      21.477  -0.754  54.710  1.00  0.00     0.279 C 
HETATM   30  F1  UNL     1      21.638  -2.075  54.272  1.00  0.00    -0.249 F 
ENDBRANCH   7  29
BRANCH  16  31
HETATM   31  O2  UNL     1      19.937   2.376  48.459  1.00  0.00    -0.353 OA
HETATM   32  C23 UNL     1      18.888   3.201  48.057  1.00  0.00     0.210 C 
ENDBRANCH  16  31
TORSDOF 4
ENDMDL
MODEL 2
REMARK VINA RESULT:      -8.9      3.355      8.074
REMARK  4 active torsions:
REMARK  status: ('A' for Active; 'I' for Inactive)
REMARK    1  A    between atoms: O1_2  and  C2_3 
REMARK    2  A    between atoms: C5_6  and  C7_8 
REMARK    3  A    between atoms: C15_18  and  C16_19 
REMARK    4  A    between atoms: C22_29  and  O2_30 
ROOT
HETATM    1  C2  UNL     1      23.044   0.449  52.812  1.00  0.00     0.088 C 
HETATM    2  C3  UNL     1      22.643   1.267  51.858  1.00  0.00     0.094 C 
HETATM    3  C4  UNL     1      23.035   2.279  50.896  1.00  0.00    -0.036 C 
HETATM    4  C5  UNL     1      21.885   2.620  50.312  1.00  0.00    -0.019 C 
HETATM    5  C6  UNL     1      21.944   3.679  49.238  1.00  0.00     0.052 C 
HETATM    6  C14 UNL     1      24.223   3.006  50.391  1.00  0.00     0.036 C 
HETATM    7  C15 UNL     1      25.427   2.800  50.799  1.00  0.00     0.040 C 
HETATM    8  N2  UNL     1      26.008   1.891  51.670  1.00  0.00    -0.342 N 
HETATM    9  C17 UNL     1      26.682   1.374  52.782  1.00  0.00     0.141 A 
HETATM   10  N3  UNL     1      27.870   1.972  52.663  1.00  0.00    -0.224 NA
HETATM   11  C18 UNL     1      28.862   1.757  53.540  1.00  0.00     0.234 A 
HETATM   12  N4  UNL     1      28.660   0.920  54.569  1.00  0.00    -0.253 NA
HETATM   13  C19 UNL     1      27.428   0.338  54.642  1.00  0.00     0.133 A 
HETATM   14  C20 UNL     1      26.358   0.511  53.775  1.00  0.00     0.030 A 
HETATM   15  C21 UNL     1      25.184  -0.239  54.155  1.00  0.00     0.056 C 
HETATM   16  C22 UNL     1      23.939  -0.238  53.771  1.00  0.00     0.099 C 
HETATM   17  H15 UNL     1      25.851   0.992  51.168  1.00  0.00     0.167 HD
ENDROOT
BRANCH   4  18
HETATM   18  C7  UNL     1      20.508   2.146  50.444  1.00  0.00     0.105 A 
HETATM   19  N1  UNL     1      19.813   1.146  50.110  1.00  0.00    -0.240 NA
HETATM   20  C8  UNL     1      18.535   1.078  50.459  1.00  0.00     0.075 A 
HETATM   21  C9  UNL     1      17.770  -0.034  50.083  1.00  0.00     0.033 A 
HETATM   22  C13 UNL     1      17.910   2.087  51.198  1.00  0.00     0.035 A 
HETATM   23  C10 UNL     1      16.438  -0.074  50.462  1.00  0.00     0.002 A 
HETATM   24  C11 UNL     1      15.798   0.889  51.181  1.00  0.00     0.002 A 
HETATM   25  C12 UNL     1      16.551   1.978  51.547  1.00  0.00     0.021 A 
HETATM   26  S1  UNL     1      19.250   3.197  51.396  1.00  0.00    -0.068 SA
ENDBRANCH   4  18
BRANCH   1  27
HETATM   27  O1  UNL     1      21.687   0.191  52.730  1.00  0.00    -0.357 OA
HETATM   28  C1  UNL     1      20.755   0.666  53.679  1.00  0.00     0.209 C 
ENDBRANCH   1  27
BRANCH   7  29
HETATM   29  C16 UNL     1      26.616   3.542  50.289  1.00  0.00     0.279 C 
HETATM   30  F1  UNL     1      26.763   3.210  48.937  1.00  0.00    -0.249 F 
ENDBRANCH   7  29
BRANCH  16  31
HETATM   31  O2  UNL     1      23.076  -1.130  54.399  1.00  0.00    -0.353 OA
HETATM   32  C23 UNL     1      23.198  -1.538  55.726  1.00  0.00     0.210 C 
ENDBRANCH  16  31
TORSDOF 4
ENDMDL
MODEL 3
REMARK VINA RESULT:      -8.8      2.829      4.555
REMARK  4 active torsions:
REMARK  status: ('A' for Active; 'I' for Inactive)
REMARK    1  A    between atoms: O1_2  and  C2_3 
REMARK    2  A    between atoms: C5_6  and  C7_8 
REMARK    3  A    between atoms: C15_18  and  C16_19 
REMARK    4  A    between atoms: C22_29  and  O2_30 
ROOT
HETATM    1  C2  UNL     1      23.035   1.428  51.141  1.00  0.00     0.088 C 
HETATM    2  C3  UNL     1      23.196   0.678  52.214  1.00  0.00     0.094 C 
HETATM    3  C4  UNL     1      22.546  -0.135  53.224  1.00  0.00    -0.036 C 
HETATM    4  C5  UNL     1      23.549  -0.521  54.013  1.00  0.00    -0.019 C 
HETATM    5  C6  UNL     1      23.203  -1.398  55.191  1.00  0.00     0.052 C 
HETATM    6  C14 UNL     1      21.212  -0.637  53.632  1.00  0.00     0.036 C 
HETATM    7  C15 UNL     1      20.122  -0.406  52.986  1.00  0.00     0.040 C 
HETATM    8  N2  UNL     1      19.825   0.228  51.789  1.00  0.00    -0.342 N 
HETATM    9  C17 UNL     1      19.301   1.154  50.880  1.00  0.00     0.141 A 
HETATM   10  N3  UNL     1      17.991   1.007  51.091  1.00  0.00    -0.224 NA
HETATM   11  C18 UNL     1      17.080   1.719  50.411  1.00  0.00     0.234 A 
HETATM   12  N4  UNL     1      17.491   2.606  49.492  1.00  0.00    -0.253 NA
HETATM   13  C19 UNL     1      18.840   2.714  49.318  1.00  0.00     0.133 A 
HETATM   14  C20 UNL     1      19.838   2.014  49.982  1.00  0.00     0.030 A 
HETATM   15  C21 UNL     1      21.171   2.388  49.573  1.00  0.00     0.056 C 
HETATM   16  C22 UNL     1      22.366   2.151  50.036  1.00  0.00     0.099 C 
HETATM   17  H15 UNL     1      20.291  -0.400  51.100  1.00  0.00     0.167 HD
ENDROOT
BRANCH   4  18
HETATM   18  C7  UNL     1      24.997  -0.320  53.973  1.00  0.00     0.105 A 
HETATM   19  N1  UNL     1      25.859   0.467  54.455  1.00  0.00    -0.240 NA
HETATM   20  C8  UNL     1      27.146   0.291  54.185  1.00  0.00     0.075 A 
HETATM   21  C9  UNL     1      28.096   1.169  54.722  1.00  0.00     0.033 A 
HETATM   22  C13 UNL     1      27.599  -0.751  53.370  1.00  0.00     0.035 A 
HETATM   23  C10 UNL     1      29.431   0.959  54.419  1.00  0.00     0.002 A 
HETATM   24  C11 UNL     1      29.908  -0.044  53.631  1.00  0.00     0.002 A 
HETATM   25  C12 UNL     1      28.973  -0.903  53.105  1.00  0.00     0.021 A 
HETATM   26  S1  UNL     1      26.075  -1.518  52.975  1.00  0.00    -0.068 SA
ENDBRANCH   4  18
BRANCH   1  27
HETATM   27  O1  UNL     1      24.405   1.454  51.338  1.00  0.00    -0.357 OA
HETATM   28  C1  UNL     1      25.080   2.560  51.898  1.00  0.00     0.209 C 
ENDBRANCH   1  27
BRANCH   7  29
HETATM   29  C16 UNL     1      18.783  -0.910  53.409  1.00  0.00     0.279 C 
HETATM   30  F1  UNL     1      18.950  -2.241  53.809  1.00  0.00    -0.249 F 
ENDBRANCH   7  29
BRANCH  16  31
HETATM   31  O2  UNL     1      23.439   2.708  49.349  1.00  0.00    -0.353 OA
HETATM   32  C23 UNL     1      23.446   3.996  48.816  1.00  0.00     0.210 C 
ENDBRANCH  16  31
TORSDOF 4
ENDMDL
MODEL 4
REMARK VINA RESULT:      -8.5      3.081      6.878
REMARK  4 active torsions:
REMARK  status: ('A' for Active; 'I' for Inactive)
REMARK    1  A    between atoms: O1_2  and  C2_3 
REMARK    2  A    between atoms: C5_6  and  C7_8 
REMARK    3  A    between atoms: C15_18  and  C16_19 
REMARK    4  A    between atoms: C22_29  and  O2_30 
ROOT
HETATM    1  C2  UNL     1      24.481   2.442  51.370  1.00  0.00     0.088 C 
HETATM    2  C3  UNL     1      23.359   1.811  51.657  1.00  0.00     0.094 C 
HETATM    3  C4  UNL     1      22.724   0.797  52.477  1.00  0.00    -0.036 C 
HETATM    4  C5  UNL     1      21.462   0.789  52.046  1.00  0.00    -0.019 C 
HETATM    5  C6  UNL     1      20.513  -0.182  52.707  1.00  0.00     0.052 C 
HETATM    6  C14 UNL     1      23.010  -0.168  53.565  1.00  0.00     0.036 C 
HETATM    7  C15 UNL     1      24.156  -0.292  54.141  1.00  0.00     0.040 C 
HETATM    8  N2  UNL     1      25.361   0.388  54.048  1.00  0.00    -0.342 N 
HETATM    9  C17 UNL     1      26.713   0.650  53.799  1.00  0.00     0.141 A 
HETATM   10  N3  UNL     1      27.299  -0.214  54.631  1.00  0.00    -0.224 NA
HETATM   11  C18 UNL     1      28.634  -0.308  54.729  1.00  0.00     0.234 A 
HETATM   12  N4  UNL     1      29.406   0.487  53.971  1.00  0.00    -0.253 NA
HETATM   13  C19 UNL     1      28.754   1.348  53.140  1.00  0.00     0.133 A 
HETATM   14  C20 UNL     1      27.383   1.501  52.985  1.00  0.00     0.030 A 
HETATM   15  C21 UNL     1      27.022   2.492  51.999  1.00  0.00     0.056 C 
HETATM   16  C22 UNL     1      25.911   2.823  51.404  1.00  0.00     0.099 C 
HETATM   17  H15 UNL     1      25.098   1.328  54.412  1.00  0.00     0.167 HD
ENDROOT
BRANCH   4  18
HETATM   18  C7  UNL     1      20.729   1.579  51.057  1.00  0.00     0.105 A 
HETATM   19  N1  UNL     1      20.615   1.658  49.802  1.00  0.00    -0.240 NA
HETATM   20  C8  UNL     1      19.782   2.539  49.264  1.00  0.00     0.075 A 
HETATM   21  C9  UNL     1      19.664   2.622  47.870  1.00  0.00     0.033 A 
HETATM   22  C13 UNL     1      19.007   3.403  50.043  1.00  0.00     0.035 A 
HETATM   23  C10 UNL     1      18.786   3.553  47.340  1.00  0.00     0.002 A 
HETATM   24  C11 UNL     1      18.017   4.409  48.067  1.00  0.00     0.002 A 
HETATM   25  C12 UNL     1      18.136   4.325  49.433  1.00  0.00     0.021 A 
HETATM   26  S1  UNL     1      19.515   2.910  51.645  1.00  0.00    -0.068 SA
ENDBRANCH   4  18
BRANCH   1  27
HETATM   27  O1  UNL     1      23.564   3.032  50.518  1.00  0.00    -0.357 OA
HETATM   28  C1  UNL     1      22.952   4.275  50.789  1.00  0.00     0.209 C 
ENDBRANCH   1  27
BRANCH   7  29
HETATM   29  C16 UNL     1      24.437  -1.271  55.230  1.00  0.00     0.279 C 
HETATM   30  F1  UNL     1      23.200  -1.689  55.739  1.00  0.00    -0.249 F 
ENDBRANCH   7  29
BRANCH  16  31
HETATM   31  O2  UNL     1      25.967   3.859  50.478  1.00  0.00    -0.353 OA
HETATM   32  C23 UNL     1      26.814   3.878  49.371  1.00  0.00     0.210 C 
ENDBRANCH  16  31
TORSDOF 4
ENDMDL
MODEL 5
REMARK VINA RESULT:      -8.3      3.418      5.637
REMARK  4 active torsions:
REMARK  status: ('A' for Active; 'I' for Inactive)
REMARK    1  A    between atoms: O1_2  and  C2_3 
REMARK    2  A    between atoms: C5_6  and  C7_8 
REMARK    3  A    between atoms: C15_18  and  C16_19 
REMARK    4  A    between atoms: C22_29  and  O2_30 
ROOT
HETATM    1  C2  UNL     1      24.245   3.266  51.244  1.00  0.00     0.088 C 
HETATM    2  C3  UNL     1      24.049   2.118  51.865  1.00  0.00     0.094 C 
HETATM    3  C4  UNL     1      23.075   1.131  52.291  1.00  0.00    -0.036 C 
HETATM    4  C5  UNL     1      23.808   0.227  52.942  1.00  0.00    -0.019 C 
HETATM    5  C6  UNL     1      23.080  -0.958  53.529  1.00  0.00     0.052 C 
HETATM    6  C14 UNL     1      21.625   0.829  52.239  1.00  0.00     0.036 C 
HETATM    7  C15 UNL     1      20.754   1.557  51.630  1.00  0.00     0.040 C 
HETATM    8  N2  UNL     1      20.831   2.686  50.829  1.00  0.00    -0.342 N 
HETATM    9  C17 UNL     1      20.666   4.002  50.384  1.00  0.00     0.141 A 
HETATM   10  N3  UNL     1      19.335   4.089  50.325  1.00  0.00    -0.224 NA
HETATM   11  C18 UNL     1      18.715   5.211  49.931  1.00  0.00     0.234 A 
HETATM   12  N4  UNL     1      19.449   6.281  49.586  1.00  0.00    -0.253 NA
HETATM   13  C19 UNL     1      20.803   6.136  49.666  1.00  0.00     0.133 A 
HETATM   14  C20 UNL     1      21.512   5.011  50.063  1.00  0.00     0.030 A 
HETATM   15  C21 UNL     1      22.943   5.201  50.055  1.00  0.00     0.056 C 
HETATM   16  C22 UNL     1      23.955   4.520  50.515  1.00  0.00     0.099 C 
HETATM   17  H15 UNL     1      21.343   2.318  49.999  1.00  0.00     0.167 HD
ENDROOT
BRANCH   4  18
HETATM   18  C7  UNL     1      25.241   0.084  53.196  1.00  0.00     0.105 A 
HETATM   19  N1  UNL     1      26.146   0.649  53.870  1.00  0.00    -0.240 NA
HETATM   20  C8  UNL     1      27.385   0.176  53.850  1.00  0.00     0.075 A 
HETATM   21  C9  UNL     1      28.384   0.811  54.600  1.00  0.00     0.033 A 
HETATM   22  C13 UNL     1      27.741  -0.947  53.096  1.00  0.00     0.035 A 
HETATM   23  C10 UNL     1      29.668   0.293  54.556  1.00  0.00     0.002 A 
HETATM   24  C11 UNL     1      30.049  -0.797  53.834  1.00  0.00     0.002 A 
HETATM   25  C12 UNL     1      29.067  -1.416  53.100  1.00  0.00     0.021 A 
HETATM   26  S1  UNL     1      26.192  -1.338  52.378  1.00  0.00    -0.068 SA
ENDBRANCH   4  18
BRANCH   1  27
HETATM   27  O1  UNL     1      25.524   2.888  51.614  1.00  0.00    -0.357 OA
HETATM   28  C1  UNL     1      26.424   2.252  50.731  1.00  0.00     0.209 C 
ENDBRANCH   1  27
BRANCH   7  29
HETATM   29  C16 UNL     1      19.296   1.248  51.589  1.00  0.00     0.279 C 
HETATM   30  F1  UNL     1      19.170  -0.144  51.494  1.00  0.00    -0.249 F 
ENDBRANCH   7  29
BRANCH  16  31
HETATM   31  O2  UNL     1      25.225   5.050  50.313  1.00  0.00    -0.353 OA
HETATM   32  C23 UNL     1      25.714   5.468  49.076  1.00  0.00     0.210 C 
ENDBRANCH  16  31
TORSDOF 4
ENDMDL
MODEL 6
REMARK VINA RESULT:      -8.1      2.948      4.947
REMARK  4 active torsions:
REMARK  status: ('A' for Active; 'I' for Inactive)
REMARK    1  A    between atoms: O1_2  and  C2_3 
REMARK    2  A    between atoms: C5_6  and  C7_8 
REMARK    3  A    between atoms: C15_18  and  C16_19 
REMARK    4  A    between atoms: C22_29  and  O2_30 
ROOT
HETATM    1  C2  UNL     1      21.622   1.451  50.847  1.00  0.00     0.088 C 
HETATM    2  C3  UNL     1      22.568   2.241  50.378  1.00  0.00     0.094 C 
HETATM    3  C4  UNL     1      23.953   2.657  50.487  1.00  0.00    -0.036 C 
HETATM    4  C5  UNL     1      24.069   3.611  49.563  1.00  0.00    -0.019 C 
HETATM    5  C6  UNL     1      25.419   4.271  49.418  1.00  0.00     0.052 C 
HETATM    6  C14 UNL     1      25.195   2.380  51.248  1.00  0.00     0.036 C 
HETATM    7  C15 UNL     1      25.301   1.475  52.158  1.00  0.00     0.040 C 
HETATM    8  N2  UNL     1      24.453   0.492  52.645  1.00  0.00    -0.342 N 
HETATM    9  C17 UNL     1      23.642  -0.236  53.524  1.00  0.00     0.141 A 
HETATM   10  N3  UNL     1      24.525  -0.574  54.466  1.00  0.00    -0.224 NA
HETATM   11  C18 UNL     1      24.174  -1.305  55.535  1.00  0.00     0.234 A 
HETATM   12  N4  UNL     1      22.901  -1.708  55.667  1.00  0.00    -0.253 NA
HETATM   13  C19 UNL     1      22.043  -1.332  54.676  1.00  0.00     0.133 A 
HETATM   14  C20 UNL     1      22.332  -0.581  53.545  1.00  0.00     0.030 A 
HETATM   15  C21 UNL     1      21.183  -0.343  52.703  1.00  0.00     0.056 C 
HETATM   16  C22 UNL     1      20.944   0.438  51.688  1.00  0.00     0.099 C 
HETATM   17  H15 UNL     1      24.352  -0.127  51.812  1.00  0.00     0.167 HD
ENDROOT
BRANCH   4  18
HETATM   18  C7  UNL     1      23.153   4.168  48.568  1.00  0.00     0.105 A 
HETATM   19  N1  UNL     1      22.621   3.830  47.474  1.00  0.00    -0.240 NA
HETATM   20  C8  UNL     1      21.781   4.652  46.861  1.00  0.00     0.075 A 
HETATM   21  C9  UNL     1      21.197   4.270  45.645  1.00  0.00     0.033 A 
HETATM   22  C13 UNL     1      21.451   5.906  47.384  1.00  0.00     0.035 A 
HETATM   23  C10 UNL     1      20.325   5.153  45.029  1.00  0.00     0.002 A 
HETATM   24  C11 UNL     1      19.982   6.380  45.509  1.00  0.00     0.002 A 
HETATM   25  C12 UNL     1      20.557   6.751  46.701  1.00  0.00     0.021 A 
HETATM   26  S1  UNL     1      22.413   5.891  48.847  1.00  0.00    -0.068 SA
ENDBRANCH   4  18
BRANCH   1  27
HETATM   27  O1  UNL     1      20.980   2.137  49.831  1.00  0.00    -0.357 OA
HETATM   28  C1  UNL     1      20.094   3.210  50.068  1.00  0.00     0.209 C 
ENDBRANCH   1  27
BRANCH   7  29
HETATM   29  C16 UNL     1      26.553   1.209  52.923  1.00  0.00     0.279 C 
HETATM   30  F1  UNL     1      26.507   1.998  54.079  1.00  0.00    -0.249 F 
ENDBRANCH   7  29
BRANCH  16  31
HETATM   31  O2  UNL     1      19.671   0.389  51.130  1.00  0.00    -0.353 OA
HETATM   32  C23 UNL     1      18.562  -0.177  51.756  1.00  0.00     0.210 C 
ENDBRANCH  16  31
TORSDOF 4
ENDMDL
MODEL 7
REMARK VINA RESULT:      -8.1      3.800      5.716
REMARK  4 active torsions:
REMARK  status: ('A' for Active; 'I' for Inactive)
REMARK    1  A    between atoms: O1_2  and  C2_3 
REMARK    2  A    between atoms: C5_6  and  C7_8 
REMARK    3  A    between atoms: C15_18  and  C16_19 
REMARK    4  A    between atoms: C22_29  and  O2_30 
ROOT
HETATM    1  C2  UNL     1      22.740   0.568  52.695  1.00  0.00     0.088 C 
HETATM    2  C3  UNL     1      23.799   1.211  52.243  1.00  0.00     0.094 C 
HETATM    3  C4  UNL     1      24.288   2.387  51.548  1.00  0.00    -0.036 C 
HETATM    4  C5  UNL     1      25.607   2.194  51.492  1.00  0.00    -0.019 C 
HETATM    5  C6  UNL     1      26.432   3.259  50.812  1.00  0.00     0.052 C 
HETATM    6  C14 UNL     1      23.822   3.647  50.923  1.00  0.00     0.036 C 
HETATM    7  C15 UNL     1      22.594   4.035  50.901  1.00  0.00     0.040 C 
HETATM    8  N2  UNL     1      21.419   3.547  51.452  1.00  0.00    -0.342 N 
HETATM    9  C17 UNL     1      20.130   3.010  51.549  1.00  0.00     0.141 A 
HETATM   10  N3  UNL     1      19.413   3.950  50.928  1.00  0.00    -0.224 NA
HETATM   11  C18 UNL     1      18.083   3.848  50.787  1.00  0.00     0.234 A 
HETATM   12  N4  UNL     1      17.450   2.772  51.281  1.00  0.00    -0.253 NA
HETATM   13  C19 UNL     1      18.232   1.845  51.904  1.00  0.00     0.133 A 
HETATM   14  C20 UNL     1      19.607   1.882  52.088  1.00  0.00     0.030 A 
HETATM   15  C21 UNL     1      20.127   0.723  52.773  1.00  0.00     0.056 C 
HETATM   16  C22 UNL     1      21.323   0.250  52.984  1.00  0.00     0.099 C 
HETATM   17  H15 UNL     1      21.605   3.656  52.471  1.00  0.00     0.167 HD
ENDROOT
BRANCH   4  18
HETATM   18  C7  UNL     1      26.496   1.152  52.006  1.00  0.00     0.105 A 
HETATM   19  N1  UNL     1      26.612  -0.104  51.958  1.00  0.00    -0.240 NA
HETATM   20  C8  UNL     1      27.625  -0.702  52.571  1.00  0.00     0.075 A 
HETATM   21  C9  UNL     1      27.746  -2.097  52.514  1.00  0.00     0.033 A 
HETATM   22  C13 UNL     1      28.591   0.014  53.284  1.00  0.00     0.035 A 
HETATM   23  C10 UNL     1      28.814  -2.691  53.166  1.00  0.00     0.002 A 
HETATM   24  C11 UNL     1      29.772  -2.026  53.869  1.00  0.00     0.002 A 
HETATM   25  C12 UNL     1      29.649  -0.659  53.922  1.00  0.00     0.021 A 
HETATM   26  S1  UNL     1      27.997   1.645  53.053  1.00  0.00    -0.068 SA
ENDBRANCH   4  18
BRANCH   1  27
HETATM   27  O1  UNL     1      23.788  -0.255  53.069  1.00  0.00    -0.357 OA
HETATM   28  C1  UNL     1      24.232  -0.377  54.404  1.00  0.00     0.209 C 
ENDBRANCH   1  27
BRANCH   7  29
HETATM   29  C16 UNL     1      22.134   5.302  50.263  1.00  0.00     0.279 C 
HETATM   30  F1  UNL     1      21.777   6.179  51.295  1.00  0.00    -0.249 F 
ENDBRANCH   7  29
BRANCH  16  31
HETATM   31  O2  UNL     1      21.423  -0.936  53.704  1.00  0.00    -0.353 OA
HETATM   32  C23 UNL     1      20.331  -1.662  54.175  1.00  0.00     0.210 C 
ENDBRANCH  16  31
TORSDOF 4
ENDMDL
MODEL 8
REMARK VINA RESULT:      -8.1      2.649      4.457
REMARK  4 active torsions:
REMARK  status: ('A' for Active; 'I' for Inactive)
REMARK    1  A    between atoms: O1_2  and  C2_3 
REMARK    2  A    between atoms: C5_6  and  C7_8 
REMARK    3  A    between atoms: C15_18  and  C16_19 
REMARK    4  A    between atoms: C22_29  and  O2_30 
ROOT
HETATM    1  C2  UNL     1      24.508   2.440  52.255  1.00  0.00     0.088 C 
HETATM    2  C3  UNL     1      23.859   3.311  51.507  1.00  0.00     0.094 C 
HETATM    3  C4  UNL     1      22.568   3.746  51.010  1.00  0.00    -0.036 C 
HETATM    4  C5  UNL     1      22.866   4.776  50.217  1.00  0.00    -0.019 C 
HETATM    5  C6  UNL     1      21.717   5.468  49.524  1.00  0.00     0.052 C 
HETATM    6  C14 UNL     1      21.122   3.431  51.095  1.00  0.00     0.036 C 
HETATM    7  C15 UNL     1      20.625   2.498  51.831  1.00  0.00     0.040 C 
HETATM    8  N2  UNL     1      21.156   1.617  52.761  1.00  0.00    -0.342 N 
HETATM    9  C17 UNL     1      21.548   0.421  53.374  1.00  0.00     0.141 A 
HETATM   10  N3  UNL     1      20.371  -0.195  53.508  1.00  0.00    -0.224 NA
HETATM   11  C18 UNL     1      20.267  -1.410  54.068  1.00  0.00     0.234 A 
HETATM   12  N4  UNL     1      21.375  -2.028  54.507  1.00  0.00    -0.253 NA
HETATM   13  C19 UNL     1      22.549  -1.352  54.344  1.00  0.00     0.133 A 
HETATM   14  C20 UNL     1      22.732  -0.099  53.776  1.00  0.00     0.030 A 
HETATM   15  C21 UNL     1      24.114   0.318  53.738  1.00  0.00     0.056 C 
HETATM   16  C22 UNL     1      24.757   1.286  53.148  1.00  0.00     0.099 C 
HETATM   17  H15 UNL     1      21.465   2.270  53.513  1.00  0.00     0.167 HD
ENDROOT
BRANCH   4  18
HETATM   18  C7  UNL     1      24.114   5.459  49.878  1.00  0.00     0.105 A 
HETATM   19  N1  UNL     1      25.119   5.285  49.134  1.00  0.00    -0.240 NA
HETATM   20  C8  UNL     1      26.079   6.198  49.089  1.00  0.00     0.075 A 
HETATM   21  C9  UNL     1      27.193   5.996  48.262  1.00  0.00     0.033 A 
HETATM   22  C13 UNL     1      26.026   7.372  49.847  1.00  0.00     0.035 A 
HETATM   23  C10 UNL     1      28.179   6.969  48.239  1.00  0.00     0.002 A 
HETATM   24  C11 UNL     1      28.160   8.122  48.962  1.00  0.00     0.002 A 
HETATM   25  C12 UNL     1      27.067   8.316  49.772  1.00  0.00     0.021 A 
HETATM   26  S1  UNL     1      24.499   7.138  50.670  1.00  0.00    -0.068 SA
ENDBRANCH   4  18
BRANCH   1  27
HETATM   27  O1  UNL     1      25.519   3.256  51.779  1.00  0.00    -0.357 OA
HETATM   28  C1  UNL     1      26.457   2.834  50.811  1.00  0.00     0.209 C 
ENDBRANCH   1  27
BRANCH   7  29
HETATM   29  C16 UNL     1      19.169   2.183  51.905  1.00  0.00     0.279 C 
HETATM   30  F1  UNL     1      18.914   1.181  50.960  1.00  0.00    -0.249 F 
ENDBRANCH   7  29
BRANCH  16  31
HETATM   31  O2  UNL     1      26.131   1.357  53.352  1.00  0.00    -0.353 OA
HETATM   32  C23 UNL     1      26.790   0.814  54.454  1.00  0.00     0.210 C 
ENDBRANCH  16  31
TORSDOF 4
ENDMDL
MODEL 9
REMARK VINA RESULT:      -7.9      3.623      7.400
REMARK  4 active torsions:
REMARK  status: ('A' for Active; 'I' for Inactive)
REMARK    1  A    between atoms: O1_2  and  C2_3 
REMARK    2  A    between atoms: C5_6  and  C7_8 
REMARK    3  A    between atoms: C15_18  and  C16_19 
REMARK    4  A    between atoms: C22_29  and  O2_30 
ROOT
HETATM    1  C2  UNL     1      21.870   1.095  52.479  1.00  0.00     0.088 C 
HETATM    2  C3  UNL     1      21.793   2.086  51.611  1.00  0.00     0.094 C 
HETATM    3  C4  UNL     1      22.529   3.019  50.781  1.00  0.00    -0.036 C 
HETATM    4  C5  UNL     1      21.574   3.750  50.205  1.00  0.00    -0.019 C 
HETATM    5  C6  UNL     1      22.015   4.841  49.259  1.00  0.00     0.052 C 
HETATM    6  C14 UNL     1      23.910   3.395  50.396  1.00  0.00     0.036 C 
HETATM    7  C15 UNL     1      24.969   2.793  50.814  1.00  0.00     0.040 C 
HETATM    8  N2  UNL     1      25.195   1.670  51.595  1.00  0.00    -0.342 N 
HETATM    9  C17 UNL     1      25.612   0.866  52.662  1.00  0.00     0.141 A 
HETATM   10  N3  UNL     1      26.930   1.081  52.645  1.00  0.00    -0.224 NA
HETATM   11  C18 UNL     1      27.755   0.490  53.522  1.00  0.00     0.234 A 
HETATM   12  N4  UNL     1      27.247  -0.343  54.444  1.00  0.00    -0.253 NA
HETATM   13  C19 UNL     1      25.896  -0.525  54.414  1.00  0.00     0.133 A 
HETATM   14  C20 UNL     1      24.983   0.050  53.541  1.00  0.00     0.030 A 
HETATM   15  C21 UNL     1      23.617  -0.341  53.799  1.00  0.00     0.056 C 
HETATM   16  C22 UNL     1      22.456   0.078  53.381  1.00  0.00     0.099 C 
HETATM   17  H15 UNL     1      24.807   0.915  50.990  1.00  0.00     0.167 HD
ENDROOT
BRANCH   4  18
HETATM   18  C7  UNL     1      20.112   3.708  50.242  1.00  0.00     0.105 A 
HETATM   19  N1  UNL     1      19.172   4.074  51.000  1.00  0.00    -0.240 NA
HETATM   20  C8  UNL     1      17.911   3.863  50.647  1.00  0.00     0.075 A 
HETATM   21  C9  UNL     1      16.873   4.271  51.496  1.00  0.00     0.033 A 
HETATM   22  C13 UNL     1      17.570   3.237  49.444  1.00  0.00     0.035 A 
HETATM   23  C10 UNL     1      15.568   4.033  51.098  1.00  0.00     0.002 A 
HETATM   24  C11 UNL     1      15.200   3.428  49.936  1.00  0.00     0.002 A 
HETATM   25  C12 UNL     1      16.220   3.029  49.106  1.00  0.00     0.021 A 
HETATM   26  S1  UNL     1      19.167   2.940  48.789  1.00  0.00    -0.068 SA
ENDBRANCH   4  18
BRANCH   1  27
HETATM   27  O1  UNL     1      20.506   1.272  52.328  1.00  0.00    -0.357 OA
HETATM   28  C1  UNL     1      19.707   0.439  51.514  1.00  0.00     0.209 C 
ENDBRANCH   1  27
BRANCH   7  29
HETATM   29  C16 UNL     1      26.355   3.184  50.427  1.00  0.00     0.279 C 
HETATM   30  F1  UNL     1      26.301   4.510  49.980  1.00  0.00    -0.249 F 
ENDBRANCH   7  29
BRANCH  16  31
HETATM   31  O2  UNL     1      21.328  -0.566  53.878  1.00  0.00    -0.353 OA
HETATM   32  C23 UNL     1      21.340  -1.832  54.462  1.00  0.00     0.210 C 
ENDBRANCH  16  31
TORSDOF 4
ENDMDL
