MODEL 1
REMARK VINA RESULT:      -9.3      0.000      0.000
REMARK  3 active torsions:
REMARK  status: ('A' for Active; 'I' for Inactive)
REMARK    1  A    between atoms: O1_2  and  C2_3 
REMARK    2  A    between atoms: C11_16  and  N3_17 
REMARK    3  A    between atoms: N3_17  and  C12_18 
ROOT
HETATM    1  C2  UNL     1      19.408  -0.459  52.502  1.00  0.00     0.287 C 
HETATM    2  O2  UNL     1      20.343  -0.564  53.348  1.00  0.00    -0.357 OA
HETATM    3  C3  UNL     1      21.269  -0.710  54.165  1.00  0.00     0.197 C 
HETATM    4  C4  UNL     1      22.731  -0.880  53.821  1.00  0.00     0.202 C 
HETATM    5  O3  UNL     1      23.409   0.150  53.206  1.00  0.00    -0.348 OA
HETATM    6  C5  UNL     1      23.136   0.823  52.065  1.00  0.00     0.087 A 
HETATM    7  C6  UNL     1      22.015   0.611  51.324  1.00  0.00     0.074 A 
HETATM    8  C7  UNL     1      21.448   1.117  50.183  1.00  0.00     0.074 A 
HETATM    9  C8  UNL     1      22.305   2.077  49.724  1.00  0.00     0.069 A 
HETATM   10  C9  UNL     1      23.474   2.397  50.356  1.00  0.00     0.077 A 
HETATM   11  N1  UNL     1      24.148   3.392  49.701  1.00  0.00    -0.241 NA
HETATM   12  C10 UNL     1      25.326   3.753  50.304  1.00  0.00     0.236 A 
HETATM   13  N2  UNL     1      25.757   3.169  51.435  1.00  0.00    -0.223 NA
HETATM   14  C11 UNL     1      25.095   2.204  52.064  1.00  0.00     0.144 A 
HETATM   15  C18 UNL     1      23.915   1.800  51.513  1.00  0.00     0.072 A 
HETATM   16  O4  UNL     1      20.422   0.232  50.404  1.00  0.00    -0.341 OA
HETATM   17  C19 UNL     1      19.390   0.471  51.341  1.00  0.00     0.180 C 
HETATM   18  C20 UNL     1      18.030   0.623  50.713  1.00  0.00     0.045 C 
ENDROOT
BRANCH  14  19
HETATM   19  N3  UNL     1      25.568   1.613  53.258  1.00  0.00    -0.340 N 
HETATM   20  H12 UNL     1      25.209   1.523  54.215  1.00  0.00     0.167 HD
BRANCH  19  21
HETATM   21  C12 UNL     1      26.812   0.933  53.373  1.00  0.00     0.035 A 
HETATM   22  C13 UNL     1      27.929   1.659  53.726  1.00  0.00     0.032 A 
HETATM   23  C14 UNL     1      29.189   1.071  53.842  1.00  0.00     0.046 A 
HETATM   24  C15 UNL     1      29.391  -0.265  53.611  1.00  0.00     0.138 A 
HETATM   25  F1  UNL     1      30.569  -0.903  53.701  1.00  0.00    -0.204 F 
HETATM   26  C16 UNL     1      28.300  -1.028  53.254  1.00  0.00     0.074 A 
HETATM   27 CL1  UNL     1      28.447  -2.727  52.943  1.00  0.00    -0.081 Cl
HETATM   28  C17 UNL     1      27.084  -0.397  53.155  1.00  0.00     0.056 A 
ENDBRANCH  19  21
ENDBRANCH  14  19
BRANCH   1  29
HETATM   29  O1  UNL     1      18.135  -0.251  53.210  1.00  0.00    -0.363 OA
HETATM   30  C1  UNL     1      17.673  -1.548  53.480  1.00  0.00     0.204 C 
ENDBRANCH   1  29
TORSDOF 3
ENDMDL
MODEL 2
REMARK VINA RESULT:      -9.1      2.192      4.042
REMARK  3 active torsions:
REMARK  status: ('A' for Active; 'I' for Inactive)
REMARK    1  A    between atoms: O1_2  and  C2_3 
REMARK    2  A    between atoms: C11_16  and  N3_17 
REMARK    3  A    between atoms: N3_17  and  C12_18 
ROOT
HETATM    1  C2  UNL     1      19.824   2.613  49.816  1.00  0.00     0.287 C 
HETATM    2  O2  UNL     1      21.056   2.481  49.556  1.00  0.00    -0.357 OA
HETATM    3  C3  UNL     1      22.271   2.396  49.310  1.00  0.00     0.197 C 
HETATM    4  C4  UNL     1      23.389   2.548  50.317  1.00  0.00     0.202 C 
HETATM    5  O3  UNL     1      23.511   1.633  51.339  1.00  0.00    -0.348 OA
HETATM    6  C5  UNL     1      22.616   1.234  52.272  1.00  0.00     0.087 A 
HETATM    7  C6  UNL     1      21.326   1.663  52.300  1.00  0.00     0.074 A 
HETATM    8  C7  UNL     1      20.205   1.444  53.058  1.00  0.00     0.074 A 
HETATM    9  C8  UNL     1      20.569   0.554  54.029  1.00  0.00     0.069 A 
HETATM   10  C9  UNL     1      21.830   0.038  54.134  1.00  0.00     0.077 A 
HETATM   11  N1  UNL     1      21.935  -0.834  55.184  1.00  0.00    -0.241 NA
HETATM   12  C10 UNL     1      23.185  -1.383  55.324  1.00  0.00     0.236 A 
HETATM   13  N2  UNL     1      24.196  -1.078  54.493  1.00  0.00    -0.223 NA
HETATM   14  C11 UNL     1      24.084  -0.230  53.477  1.00  0.00     0.144 A 
HETATM   15  C18 UNL     1      22.865   0.351  53.284  1.00  0.00     0.072 A 
HETATM   16  O4  UNL     1      19.569   2.322  52.215  1.00  0.00    -0.341 OA
HETATM   17  C19 UNL     1      19.099   1.952  50.934  1.00  0.00     0.180 C 
HETATM   18  C20 UNL     1      17.600   2.016  50.801  1.00  0.00     0.045 C 
ENDROOT
BRANCH  14  19
HETATM   19  N3  UNL     1      25.163   0.067  52.613  1.00  0.00    -0.340 N 
HETATM   20  H12 UNL     1      25.249   0.416  51.652  1.00  0.00     0.167 HD
BRANCH  19  21
HETATM   21  C12 UNL     1      26.532  -0.084  52.967  1.00  0.00     0.035 A 
HETATM   22  C13 UNL     1      27.138  -1.303  52.747  1.00  0.00     0.032 A 
HETATM   23  C14 UNL     1      28.472  -1.538  53.083  1.00  0.00     0.046 A 
HETATM   24  C15 UNL     1      29.259  -0.571  53.652  1.00  0.00     0.138 A 
HETATM   25  F1  UNL     1      30.547  -0.720  54.003  1.00  0.00    -0.204 F 
HETATM   26  C16 UNL     1      28.692   0.662  53.890  1.00  0.00     0.074 A 
HETATM   27 CL1  UNL     1      29.601   1.955  54.602  1.00  0.00    -0.081 Cl
HETATM   28  C17 UNL     1      27.376   0.838  53.539  1.00  0.00     0.056 A 
ENDBRANCH  19  21
ENDBRANCH  14  19
BRANCH   1  29
HETATM   29  O1  UNL     1      19.040   2.336  48.602  1.00  0.00    -0.363 OA
HETATM   30  C1  UNL     1      19.131   3.519  47.854  1.00  0.00     0.204 C 
ENDBRANCH   1  29
TORSDOF 3
ENDMDL
MODEL 3
REMARK VINA RESULT:      -8.8      1.890      3.822
REMARK  3 active torsions:
REMARK  status: ('A' for Active; 'I' for Inactive)
REMARK    1  A    between atoms: O1_2  and  C2_3 
REMARK    2  A    between atoms: C11_16  and  N3_17 
REMARK    3  A    between atoms: N3_17  and  C12_18 
ROOT
HETATM    1  C2  UNL     1      19.935   2.512  49.621  1.00  0.00     0.287 C 
HETATM    2  O2  UNL     1      21.194   2.612  49.530  1.00  0.00    -0.357 OA
HETATM    3  C3  UNL     1      22.426   2.753  49.453  1.00  0.00     0.197 C 
HETATM    4  C4  UNL     1      23.361   2.993  50.617  1.00  0.00     0.202 C 
HETATM    5  O3  UNL     1      23.512   2.020  51.580  1.00  0.00    -0.348 OA
HETATM    6  C5  UNL     1      22.590   1.392  52.346  1.00  0.00     0.087 A 
HETATM    7  C6  UNL     1      21.251   1.597  52.220  1.00  0.00     0.074 A 
HETATM    8  C7  UNL     1      20.100   1.124  52.794  1.00  0.00     0.074 A 
HETATM    9  C8  UNL     1      20.488   0.220  53.742  1.00  0.00     0.069 A 
HETATM   10  C9  UNL     1      21.797  -0.086  53.989  1.00  0.00     0.077 A 
HETATM   11  N1  UNL     1      21.919  -1.022  54.979  1.00  0.00    -0.241 NA
HETATM   12  C10 UNL     1      23.218  -1.368  55.257  1.00  0.00     0.236 A 
HETATM   13  N2  UNL     1      24.257  -0.822  54.602  1.00  0.00    -0.223 NA
HETATM   14  C11 UNL     1      24.127   0.086  53.642  1.00  0.00     0.144 A 
HETATM   15  C18 UNL     1      22.860   0.472  53.319  1.00  0.00     0.072 A 
HETATM   16  O4  UNL     1      19.431   1.960  51.933  1.00  0.00    -0.341 OA
HETATM   17  C19 UNL     1      19.202   1.638  50.575  1.00  0.00     0.180 C 
HETATM   18  C20 UNL     1      17.745   1.465  50.235  1.00  0.00     0.045 C 
ENDROOT
BRANCH  14  19
HETATM   19  N3  UNL     1      25.239   0.638  52.964  1.00  0.00    -0.340 N 
HETATM   20  H12 UNL     1      25.365   1.357  52.242  1.00  0.00     0.167 HD
BRANCH  19  21
HETATM   21  C12 UNL     1      26.585   0.242  53.186  1.00  0.00     0.035 A 
HETATM   22  C13 UNL     1      27.504   1.204  53.549  1.00  0.00     0.032 A 
HETATM   23  C14 UNL     1      28.848   0.900  53.767  1.00  0.00     0.046 A 
HETATM   24  C15 UNL     1      29.336  -0.374  53.633  1.00  0.00     0.138 A 
HETATM   25  F1  UNL     1      30.613  -0.744  53.825  1.00  0.00    -0.204 F 
HETATM   26  C16 UNL     1      28.451  -1.366  53.271  1.00  0.00     0.074 A 
HETATM   27 CL1  UNL     1      28.966  -3.011  53.079  1.00  0.00    -0.081 Cl
HETATM   28  C17 UNL     1      27.140  -1.011  53.069  1.00  0.00     0.056 A 
ENDBRANCH  19  21
ENDBRANCH  14  19
BRANCH   1  29
HETATM   29  O1  UNL     1      19.374   2.223  48.291  1.00  0.00    -0.363 OA
HETATM   30  C1  UNL     1      19.452   3.447  47.610  1.00  0.00     0.204 C 
ENDBRANCH   1  29
TORSDOF 3
ENDMDL
MODEL 4
REMARK VINA RESULT:      -8.6      1.966      2.420
REMARK  3 active torsions:
REMARK  status: ('A' for Active; 'I' for Inactive)
REMARK    1  A    between atoms: O1_2  and  C2_3 
REMARK    2  A    between atoms: C11_16  and  N3_17 
REMARK    3  A    between atoms: N3_17  and  C12_18 
ROOT
HETATM    1  C2  UNL     1      19.390   3.066  51.134  1.00  0.00     0.287 C 
HETATM    2  O2  UNL     1      20.062   2.416  51.987  1.00  0.00    -0.357 OA
HETATM    3  C3  UNL     1      20.708   1.740  52.806  1.00  0.00     0.197 C 
HETATM    4  C4  UNL     1      21.917   0.889  52.489  1.00  0.00     0.202 C 
HETATM    5  O3  UNL     1      23.073   1.489  52.043  1.00  0.00    -0.348 OA
HETATM    6  C5  UNL     1      23.283   2.320  50.996  1.00  0.00     0.087 A 
HETATM    7  C6  UNL     1      22.284   2.782  50.198  1.00  0.00     0.074 A 
HETATM    8  C7  UNL     1      22.158   3.619  49.119  1.00  0.00     0.074 A 
HETATM    9  C8  UNL     1      23.419   4.053  48.823  1.00  0.00     0.069 A 
HETATM   10  C9  UNL     1      24.524   3.671  49.530  1.00  0.00     0.077 A 
HETATM   11  N1  UNL     1      25.664   4.248  49.039  1.00  0.00    -0.241 NA
HETATM   12  C10 UNL     1      26.801   3.899  49.724  1.00  0.00     0.236 A 
HETATM   13  N2  UNL     1      26.772   3.066  50.778  1.00  0.00    -0.223 NA
HETATM   14  C11 UNL     1      25.660   2.511  51.247  1.00  0.00     0.144 A 
HETATM   15  C18 UNL     1      24.495   2.818  50.609  1.00  0.00     0.072 A 
HETATM   16  O4  UNL     1      20.811   3.358  49.184  1.00  0.00    -0.341 OA
HETATM   17  C19 UNL     1      19.951   3.990  50.111  1.00  0.00     0.180 C 
HETATM   18  C20 UNL     1      18.916   4.873  49.466  1.00  0.00     0.045 C 
ENDROOT
BRANCH  14  19
HETATM   19  N3  UNL     1      25.657   1.643  52.364  1.00  0.00    -0.340 N 
HETATM   20  H12 UNL     1      24.954   1.343  53.048  1.00  0.00     0.167 HD
BRANCH  19  21
HETATM   21  C12 UNL     1      26.795   0.919  52.814  1.00  0.00     0.035 A 
HETATM   22  C13 UNL     1      27.799   1.606  53.462  1.00  0.00     0.032 A 
HETATM   23  C14 UNL     1      28.955   0.973  53.917  1.00  0.00     0.046 A 
HETATM   24  C15 UNL     1      29.163  -0.371  53.747  1.00  0.00     0.138 A 
HETATM   25  F1  UNL     1      30.247  -1.052  54.156  1.00  0.00    -0.204 F 
HETATM   26  C16 UNL     1      28.184  -1.096  53.103  1.00  0.00     0.074 A 
HETATM   27 CL1  UNL     1      28.346  -2.802  52.840  1.00  0.00    -0.081 Cl
HETATM   28  C17 UNL     1      27.067  -0.421  52.676  1.00  0.00     0.056 A 
ENDBRANCH  19  21
ENDBRANCH  14  19
BRANCH   1  29
HETATM   29  O1  UNL     1      18.328   3.817  51.822  1.00  0.00    -0.363 OA
HETATM   30  C1  UNL     1      17.207   2.977  51.749  1.00  0.00     0.204 C 
ENDBRANCH   1  29
TORSDOF 3
ENDMDL
MODEL 5
REMARK VINA RESULT:      -8.5      2.841      4.566
REMARK  3 active torsions:
REMARK  status: ('A' for Active; 'I' for Inactive)
REMARK    1  A    between atoms: O1_2  and  C2_3 
REMARK    2  A    between atoms: C11_16  and  N3_17 
REMARK    3  A    between atoms: N3_17  and  C12_18 
ROOT
HETATM    1  C2  UNL     1      21.123   5.303  49.259  1.00  0.00     0.287 C 
HETATM    2  O2  UNL     1      22.334   4.955  49.143  1.00  0.00    -0.357 OA
HETATM    3  C3  UNL     1      23.536   4.652  49.050  1.00  0.00     0.197 C 
HETATM    4  C4  UNL     1      24.447   4.292  50.202  1.00  0.00     0.202 C 
HETATM    5  O3  UNL     1      24.196   3.154  50.937  1.00  0.00    -0.348 OA
HETATM    6  C5  UNL     1      23.079   2.761  51.592  1.00  0.00     0.087 A 
HETATM    7  C6  UNL     1      21.912   3.458  51.562  1.00  0.00     0.074 A 
HETATM    8  C7  UNL     1      20.645   3.329  52.070  1.00  0.00     0.074 A 
HETATM    9  C8  UNL     1      20.641   2.171  52.795  1.00  0.00     0.069 A 
HETATM   10  C9  UNL     1      21.738   1.367  52.924  1.00  0.00     0.077 A 
HETATM   11  N1  UNL     1      21.473   0.268  53.694  1.00  0.00    -0.241 NA
HETATM   12  C10 UNL     1      22.546  -0.574  53.845  1.00  0.00     0.236 A 
HETATM   13  N2  UNL     1      23.737  -0.321  53.277  1.00  0.00    -0.223 NA
HETATM   14  C11 UNL     1      23.985   0.749  52.531  1.00  0.00     0.144 A 
HETATM   15  C18 UNL     1      22.957   1.626  52.343  1.00  0.00     0.072 A 
HETATM   16  O4  UNL     1      20.360   4.508  51.426  1.00  0.00    -0.341 OA
HETATM   17  C19 UNL     1      20.085   4.578  50.040  1.00  0.00     0.180 C 
HETATM   18  C20 UNL     1      18.679   5.019  49.728  1.00  0.00     0.045 C 
ENDROOT
BRANCH  14  19
HETATM   19  N3  UNL     1      25.246   0.987  51.939  1.00  0.00    -0.340 N 
HETATM   20  H12 UNL     1      25.572   1.466  51.092  1.00  0.00     0.167 HD
BRANCH  19  21
HETATM   21  C12 UNL     1      26.480   0.540  52.485  1.00  0.00     0.035 A 
HETATM   22  C13 UNL     1      27.331   1.472  53.042  1.00  0.00     0.032 A 
HETATM   23  C14 UNL     1      28.567   1.117  53.582  1.00  0.00     0.046 A 
HETATM   24  C15 UNL     1      29.011  -0.179  53.591  1.00  0.00     0.138 A 
HETATM   25  F1  UNL     1      30.186  -0.598  54.090  1.00  0.00    -0.204 F 
HETATM   26  C16 UNL     1      28.192  -1.143  53.044  1.00  0.00     0.074 A 
HETATM   27 CL1  UNL     1      28.658  -2.812  53.009  1.00  0.00    -0.081 Cl
HETATM   28  C17 UNL     1      26.986  -0.738  52.526  1.00  0.00     0.056 A 
ENDBRANCH  19  21
ENDBRANCH  14  19
BRANCH   1  29
HETATM   29  O1  UNL     1      20.549   5.517  47.921  1.00  0.00    -0.363 OA
HETATM   30  C1  UNL     1      20.924   6.828  47.590  1.00  0.00     0.204 C 
ENDBRANCH   1  29
TORSDOF 3
ENDMDL
MODEL 6
REMARK VINA RESULT:      -8.4      3.161      4.964
REMARK  3 active torsions:
REMARK  status: ('A' for Active; 'I' for Inactive)
REMARK    1  A    between atoms: O1_2  and  C2_3 
REMARK    2  A    between atoms: C11_16  and  N3_17 
REMARK    3  A    between atoms: N3_17  and  C12_18 
ROOT
HETATM    1  C2  UNL     1      18.029  -0.317  52.169  1.00  0.00     0.287 C 
HETATM    2  O2  UNL     1      18.490   0.470  51.291  1.00  0.00    -0.357 OA
HETATM    3  C3  UNL     1      18.923   1.276  50.451  1.00  0.00     0.197 C 
HETATM    4  C4  UNL     1      19.972   2.336  50.704  1.00  0.00     0.202 C 
HETATM    5  O3  UNL     1      21.256   1.957  51.031  1.00  0.00    -0.348 OA
HETATM    6  C5  UNL     1      21.708   1.157  52.024  1.00  0.00     0.087 A 
HETATM    7  C6  UNL     1      20.887   0.493  52.880  1.00  0.00     0.074 A 
HETATM    8  C7  UNL     1      21.015  -0.378  53.932  1.00  0.00     0.074 A 
HETATM    9  C8  UNL     1      22.356  -0.569  54.107  1.00  0.00     0.069 A 
HETATM   10  C9  UNL     1      23.304   0.034  53.330  1.00  0.00     0.077 A 
HETATM   11  N1  UNL     1      24.570  -0.326  53.705  1.00  0.00    -0.241 NA
HETATM   12  C10 UNL     1      25.557   0.251  52.945  1.00  0.00     0.236 A 
HETATM   13  N2  UNL     1      25.280   1.088  51.932  1.00  0.00    -0.223 NA
HETATM   14  C11 UNL     1      24.047   1.431  51.575  1.00  0.00     0.144 A 
HETATM   15  C18 UNL     1      23.021   0.891  52.293  1.00  0.00     0.072 A 
HETATM   16  O4  UNL     1      19.642  -0.378  53.986  1.00  0.00    -0.341 OA
HETATM   17  C19 UNL     1      18.840  -1.140  53.106  1.00  0.00     0.180 C 
HETATM   18  C20 UNL     1      18.050  -2.221  53.796  1.00  0.00     0.045 C 
ENDROOT
BRANCH  14  19
HETATM   19  N3  UNL     1      23.785   2.309  50.498  1.00  0.00    -0.340 N 
HETATM   20  H12 UNL     1      23.165   2.289  49.681  1.00  0.00     0.167 HD
BRANCH  19  21
HETATM   21  C12 UNL     1      24.423   3.566  50.321  1.00  0.00     0.035 A 
HETATM   22  C13 UNL     1      23.853   4.682  50.895  1.00  0.00     0.032 A 
HETATM   23  C14 UNL     1      24.408   5.954  50.752  1.00  0.00     0.046 A 
HETATM   24  C15 UNL     1      25.553   6.171  50.030  1.00  0.00     0.138 A 
HETATM   25  F1  UNL     1      26.145   7.362  49.847  1.00  0.00    -0.204 F 
HETATM   26  C16 UNL     1      26.155   5.082  49.438  1.00  0.00     0.074 A 
HETATM   27 CL1  UNL     1      27.608   5.247  48.508  1.00  0.00    -0.081 Cl
HETATM   28  C17 UNL     1      25.566   3.854  49.612  1.00  0.00     0.056 A 
ENDBRANCH  19  21
ENDBRANCH  14  19
BRANCH   1  29
HETATM   29  O1  UNL     1      17.073  -1.241  51.539  1.00  0.00    -0.363 OA
HETATM   30  C1  UNL     1      15.887  -0.497  51.440  1.00  0.00     0.204 C 
ENDBRANCH   1  29
TORSDOF 3
ENDMDL
MODEL 7
REMARK VINA RESULT:      -8.2      3.343      5.206
REMARK  3 active torsions:
REMARK  status: ('A' for Active; 'I' for Inactive)
REMARK    1  A    between atoms: O1_2  and  C2_3 
REMARK    2  A    between atoms: C11_16  and  N3_17 
REMARK    3  A    between atoms: N3_17  and  C12_18 
ROOT
HETATM    1  C2  UNL     1      19.299   0.831  51.854  1.00  0.00     0.287 C 
HETATM    2  O2  UNL     1      19.721   1.598  50.940  1.00  0.00    -0.357 OA
HETATM    3  C3  UNL     1      20.119   2.387  50.066  1.00  0.00     0.197 C 
HETATM    4  C4  UNL     1      21.214   3.415  50.237  1.00  0.00     0.202 C 
HETATM    5  O3  UNL     1      22.505   2.999  50.477  1.00  0.00    -0.348 OA
HETATM    6  C5  UNL     1      23.002   2.191  51.442  1.00  0.00     0.087 A 
HETATM    7  C6  UNL     1      22.222   1.557  52.359  1.00  0.00     0.074 A 
HETATM    8  C7  UNL     1      22.398   0.689  53.405  1.00  0.00     0.074 A 
HETATM    9  C8  UNL     1      23.741   0.457  53.488  1.00  0.00     0.069 A 
HETATM   10  C9  UNL     1      24.650   1.027  52.642  1.00  0.00     0.077 A 
HETATM   11  N1  UNL     1      25.928   0.631  52.931  1.00  0.00    -0.241 NA
HETATM   12  C10 UNL     1      26.877   1.173  52.100  1.00  0.00     0.236 A 
HETATM   13  N2  UNL     1      26.555   2.013  51.102  1.00  0.00    -0.223 NA
HETATM   14  C11 UNL     1      25.311   2.391  50.830  1.00  0.00     0.144 A 
HETATM   15  C18 UNL     1      24.322   1.887  51.621  1.00  0.00     0.072 A 
HETATM   16  O4  UNL     1      21.033   0.731  53.554  1.00  0.00    -0.341 OA
HETATM   17  C19 UNL     1      20.148  -0.012  52.738  1.00  0.00     0.180 C 
HETATM   18  C20 UNL     1      19.376  -1.064  53.489  1.00  0.00     0.045 C 
ENDROOT
BRANCH  14  19
HETATM   19  N3  UNL     1      25.001   3.271  49.767  1.00  0.00    -0.340 N 
HETATM   20  H12 UNL     1      24.377   3.234  48.953  1.00  0.00     0.167 HD
BRANCH  19  21
HETATM   21  C12 UNL     1      25.579   4.559  49.604  1.00  0.00     0.035 A 
HETATM   22  C13 UNL     1      24.956   5.641  50.190  1.00  0.00     0.032 A 
HETATM   23  C14 UNL     1      25.449   6.939  50.061  1.00  0.00     0.046 A 
HETATM   24  C15 UNL     1      26.582   7.218  49.343  1.00  0.00     0.138 A 
HETATM   25  F1  UNL     1      27.118   8.438  49.172  1.00  0.00    -0.204 F 
HETATM   26  C16 UNL     1      27.236   6.166  48.740  1.00  0.00     0.074 A 
HETATM   27 CL1  UNL     1      28.681   6.410  47.812  1.00  0.00    -0.081 Cl
HETATM   28  C17 UNL     1      26.707   4.909  48.900  1.00  0.00     0.056 A 
ENDBRANCH  19  21
ENDBRANCH  14  19
BRANCH   1  29
HETATM   29  O1  UNL     1      18.274  -0.067  51.298  1.00  0.00    -0.363 OA
HETATM   30  C1  UNL     1      17.102   0.705  51.298  1.00  0.00     0.204 C 
ENDBRANCH   1  29
TORSDOF 3
ENDMDL
MODEL 8
REMARK VINA RESULT:      -8.1      4.486      7.516
REMARK  3 active torsions:
REMARK  status: ('A' for Active; 'I' for Inactive)
REMARK    1  A    between atoms: O1_2  and  C2_3 
REMARK    2  A    between atoms: C11_16  and  N3_17 
REMARK    3  A    between atoms: N3_17  and  C12_18 
ROOT
HETATM    1  C2  UNL     1      24.797   7.018  49.336  1.00  0.00     0.287 C 
HETATM    2  O2  UNL     1      23.783   6.695  50.022  1.00  0.00    -0.357 OA
HETATM    3  C3  UNL     1      22.766   6.370  50.656  1.00  0.00     0.197 C 
HETATM    4  C4  UNL     1      22.162   4.985  50.707  1.00  0.00     0.202 C 
HETATM    5  O3  UNL     1      22.873   3.954  51.281  1.00  0.00    -0.348 OA
HETATM    6  C5  UNL     1      24.115   3.490  51.015  1.00  0.00     0.087 A 
HETATM    7  C6  UNL     1      24.949   4.067  50.108  1.00  0.00     0.074 A 
HETATM    8  C7  UNL     1      26.222   3.872  49.640  1.00  0.00     0.074 A 
HETATM    9  C8  UNL     1      26.710   2.782  50.304  1.00  0.00     0.069 A 
HETATM   10  C9  UNL     1      25.989   2.093  51.239  1.00  0.00     0.077 A 
HETATM   11  N1  UNL     1      26.703   1.049  51.760  1.00  0.00    -0.241 NA
HETATM   12  C10 UNL     1      26.021   0.332  52.710  1.00  0.00     0.236 A 
HETATM   13  N2  UNL     1      24.768   0.646  53.078  1.00  0.00    -0.223 NA
HETATM   14  C11 UNL     1      24.083   1.662  52.566  1.00  0.00     0.144 A 
HETATM   15  C18 UNL     1      24.707   2.415  51.615  1.00  0.00     0.072 A 
HETATM   16  O4  UNL     1      26.004   4.968  48.841  1.00  0.00    -0.341 OA
HETATM   17  C19 UNL     1      26.097   6.295  49.318  1.00  0.00     0.180 C 
HETATM   18  C20 UNL     1      27.215   7.083  48.688  1.00  0.00     0.045 C 
ENDROOT
BRANCH  14  19
HETATM   19  N3  UNL     1      22.767   1.975  52.977  1.00  0.00    -0.340 N 
HETATM   20  H12 UNL     1      22.278   2.834  53.253  1.00  0.00     0.167 HD
BRANCH  19  21
HETATM   21  C12 UNL     1      21.723   1.019  53.105  1.00  0.00     0.035 A 
HETATM   22  C13 UNL     1      21.810   0.079  54.110  1.00  0.00     0.032 A 
HETATM   23  C14 UNL     1      20.836  -0.904  54.291  1.00  0.00     0.046 A 
HETATM   24  C15 UNL     1      19.735  -0.994  53.480  1.00  0.00     0.138 A 
HETATM   25  F1  UNL     1      18.758  -1.910  53.589  1.00  0.00    -0.204 F 
HETATM   26  C16 UNL     1      19.610  -0.074  52.462  1.00  0.00     0.074 A 
HETATM   27 CL1  UNL     1      18.253  -0.098  51.382  1.00  0.00    -0.081 Cl
HETATM   28  C17 UNL     1      20.597   0.871  52.330  1.00  0.00     0.056 A 
ENDBRANCH  19  21
ENDBRANCH  14  19
BRANCH   1  29
HETATM   29  O1  UNL     1      25.121   8.432  49.585  1.00  0.00    -0.363 OA
HETATM   30  C1  UNL     1      24.274   9.139  48.720  1.00  0.00     0.204 C 
ENDBRANCH   1  29
TORSDOF 3
ENDMDL
MODEL 9
REMARK VINA RESULT:      -8.1      4.913      8.343
REMARK  3 active torsions:
REMARK  status: ('A' for Active; 'I' for Inactive)
REMARK    1  A    between atoms: O1_2  and  C2_3 
REMARK    2  A    between atoms: C11_16  and  N3_17 
REMARK    3  A    between atoms: N3_17  and  C12_18 
ROOT
HETATM    1  C2  UNL     1      24.713   0.242  53.542  1.00  0.00     0.287 C 
HETATM    2  O2  UNL     1      23.826  -0.415  54.161  1.00  0.00    -0.357 OA
HETATM    3  C3  UNL     1      22.955  -1.029  54.801  1.00  0.00     0.197 C 
HETATM    4  C4  UNL     1      21.542  -0.552  55.052  1.00  0.00     0.202 C 
HETATM    5  O3  UNL     1      20.679  -0.396  53.990  1.00  0.00    -0.348 OA
HETATM    6  C5  UNL     1      20.808   0.327  52.853  1.00  0.00     0.087 A 
HETATM    7  C6  UNL     1      21.937   1.013  52.528  1.00  0.00     0.074 A 
HETATM    8  C7  UNL     1      22.383   1.787  51.490  1.00  0.00     0.074 A 
HETATM    9  C8  UNL     1      21.359   1.845  50.588  1.00  0.00     0.069 A 
HETATM   10  C9  UNL     1      20.162   1.213  50.777  1.00  0.00     0.077 A 
HETATM   11  N1  UNL     1      19.308   1.421  49.728  1.00  0.00    -0.241 NA
HETATM   12  C10 UNL     1      18.094   0.798  49.870  1.00  0.00     0.236 A 
HETATM   13  N2  UNL     1      17.795   0.057  50.950  1.00  0.00    -0.223 NA
HETATM   14  C11 UNL     1      18.631  -0.139  51.964  1.00  0.00     0.144 A 
HETATM   15  C18 UNL     1      19.856   0.455  51.882  1.00  0.00     0.072 A 
HETATM   16  O4  UNL     1      23.557   1.902  52.194  1.00  0.00    -0.341 OA
HETATM   17  C19 UNL     1      24.543   0.889  52.213  1.00  0.00     0.180 C 
HETATM   18  C20 UNL     1      25.842   1.302  51.574  1.00  0.00     0.045 C 
ENDROOT
BRANCH  14  19
HETATM   19  N3  UNL     1      18.292  -0.930  53.085  1.00  0.00    -0.340 N 
HETATM   20  H12 UNL     1      18.569  -0.946  54.073  1.00  0.00     0.167 HD
BRANCH  19  21
HETATM   21  C12 UNL     1      17.369  -2.011  53.049  1.00  0.00     0.035 A 
HETATM   22  C13 UNL     1      17.732  -3.208  53.629  1.00  0.00     0.032 A 
HETATM   23  C14 UNL     1      16.891  -4.321  53.619  1.00  0.00     0.046 A 
HETATM   24  C15 UNL     1      15.653  -4.291  53.032  1.00  0.00     0.138 A 
HETATM   25  F1  UNL     1      14.789  -5.318  52.982  1.00  0.00    -0.204 F 
HETATM   26  C16 UNL     1      15.250  -3.114  52.440  1.00  0.00     0.074 A 
HETATM   27 CL1  UNL     1      13.702  -2.969  51.674  1.00  0.00    -0.081 Cl
HETATM   28  C17 UNL     1      16.118  -2.050  52.479  1.00  0.00     0.056 A 
ENDBRANCH  19  21
ENDBRANCH  14  19
BRANCH   1  29
HETATM   29  O1  UNL     1      25.938  -0.567  53.448  1.00  0.00    -0.363 OA
HETATM   30  C1  UNL     1      26.688  -0.191  54.572  1.00  0.00     0.204 C 
ENDBRANCH   1  29
TORSDOF 3
ENDMDL
