MODEL 1
REMARK VINA RESULT:      -8.6      0.000      0.000
REMARK  4 active torsions:
REMARK  status: ('A' for Active; 'I' for Inactive)
REMARK    1  A    between atoms: C2_2  and  N1_3 
REMARK    2  A    between atoms: C2_2  and  C11_15 
REMARK    3  A    between atoms: N1_3  and  C3_4 
REMARK    4  A    between atoms: C8_11  and  N4_12 
ROOT
HETATM    1  C3  UNL     1      26.511   0.811  52.868  1.00  0.00     0.138 A 
HETATM    2  N2  UNL     1      26.627   2.139  53.040  1.00  0.00    -0.224 NA
HETATM    3  C4  UNL     1      27.797   2.666  53.440  1.00  0.00     0.235 A 
HETATM    4  N3  UNL     1      28.914   1.930  53.693  1.00  0.00    -0.241 NA
HETATM    5  C5  UNL     1      28.848   0.584  53.535  1.00  0.00     0.072 A 
HETATM    6  C6  UNL     1      29.959  -0.160  53.786  1.00  0.00     0.035 A 
HETATM    7  C7  UNL     1      29.866  -1.514  53.618  1.00  0.00     0.031 A 
HETATM    8  C8  UNL     1      28.690  -2.119  53.208  1.00  0.00     0.026 A 
HETATM    9  C9  UNL     1      27.607  -1.301  52.973  1.00  0.00     0.046 A 
HETATM   10  C10 UNL     1      27.639   0.065  53.124  1.00  0.00     0.041 A 
ENDROOT
BRANCH   1  11
HETATM   11  N1  UNL     1      25.274   0.255  52.447  1.00  0.00    -0.366 N 
HETATM   12  H5  UNL     1      25.122  -0.657  51.971  1.00  0.00     0.161 HD
BRANCH  11  13
HETATM   13  C2  UNL     1      24.051   1.002  52.679  1.00  0.00     0.112 C 
HETATM   14  C1  UNL     1      23.580   1.803  51.520  1.00  0.00     0.037 C 
BRANCH  13  15
HETATM   15  C11 UNL     1      22.941   0.166  53.175  1.00  0.00    -0.036 A 
HETATM   16  C12 UNL     1      21.744   0.479  52.567  1.00  0.00     0.012 A 
HETATM   17  C13 UNL     1      20.574  -0.209  52.906  1.00  0.00     0.043 A 
HETATM   18  C14 UNL     1      20.583  -1.215  53.855  1.00  0.00     0.116 A 
HETATM   19  F1  UNL     1      19.503  -1.923  54.239  1.00  0.00    -0.206 F 
HETATM   20  C15 UNL     1      21.804  -1.511  54.454  1.00  0.00     0.043 A 
HETATM   21  C16 UNL     1      22.958  -0.837  54.122  1.00  0.00     0.012 A 
ENDBRANCH  13  15
ENDBRANCH  11  13
ENDBRANCH   1  11
BRANCH   8  22
HETATM   22  N4  UNL     1      28.614  -3.527  53.040  1.00  0.00    -0.399 N 
HETATM   23  H9  UNL     1      29.488  -4.072  53.071  1.00  0.00     0.156 HD
HETATM   24  H10 UNL     1      27.682  -3.969  52.890  1.00  0.00     0.156 HD
ENDBRANCH   8  22
TORSDOF 4
ENDMDL
MODEL 2
REMARK VINA RESULT:      -8.4      2.977      6.348
REMARK  4 active torsions:
REMARK  status: ('A' for Active; 'I' for Inactive)
REMARK    1  A    between atoms: C2_2  and  N1_3 
REMARK    2  A    between atoms: C2_2  and  C11_15 
REMARK    3  A    between atoms: N1_3  and  C3_4 
REMARK    4  A    between atoms: C8_11  and  N4_12 
ROOT
HETATM    1  C3  UNL     1      23.387   1.337  52.271  1.00  0.00     0.138 A 
HETATM    2  N2  UNL     1      22.647   1.767  51.236  1.00  0.00    -0.224 NA
HETATM    3  C4  UNL     1      21.440   1.226  51.000  1.00  0.00     0.235 A 
HETATM    4  N3  UNL     1      20.890   0.237  51.759  1.00  0.00    -0.241 NA
HETATM    5  C5  UNL     1      21.599  -0.233  52.816  1.00  0.00     0.072 A 
HETATM    6  C6  UNL     1      21.058  -1.221  53.579  1.00  0.00     0.035 A 
HETATM    7  C7  UNL     1      21.792  -1.676  54.639  1.00  0.00     0.031 A 
HETATM    8  C8  UNL     1      23.043  -1.160  54.935  1.00  0.00     0.026 A 
HETATM    9  C9  UNL     1      23.525  -0.162  54.118  1.00  0.00     0.046 A 
HETATM   10  C10 UNL     1      22.834   0.337  53.040  1.00  0.00     0.041 A 
ENDROOT
BRANCH   1  11
HETATM   11  N1  UNL     1      24.663   1.909  52.519  1.00  0.00    -0.366 N 
HETATM   12  H5  UNL     1      24.923   2.566  53.282  1.00  0.00     0.161 HD
BRANCH  11  13
HETATM   13  C2  UNL     1      25.767   1.574  51.637  1.00  0.00     0.112 C 
HETATM   14  C1  UNL     1      26.397   2.736  50.959  1.00  0.00     0.037 C 
BRANCH  13  15
HETATM   15  C11 UNL     1      26.815   0.767  52.293  1.00  0.00    -0.036 A 
HETATM   16  C12 UNL     1      27.804   1.553  52.845  1.00  0.00     0.012 A 
HETATM   17  C13 UNL     1      28.885   0.967  53.512  1.00  0.00     0.043 A 
HETATM   18  C14 UNL     1      28.994  -0.406  53.635  1.00  0.00     0.116 A 
HETATM   19  F1  UNL     1      30.001  -1.048  54.259  1.00  0.00    -0.206 F 
HETATM   20  C15 UNL     1      27.982  -1.176  53.068  1.00  0.00     0.043 A 
HETATM   21  C16 UNL     1      26.915  -0.603  52.412  1.00  0.00     0.012 A 
ENDBRANCH  13  15
ENDBRANCH  11  13
ENDBRANCH   1  11
BRANCH   8  22
HETATM   22  N4  UNL     1      23.790  -1.648  56.041  1.00  0.00    -0.399 N 
HETATM   23  H9  UNL     1      23.585  -2.595  56.390  1.00  0.00     0.156 HD
HETATM   24  H10 UNL     1      24.519  -1.037  56.467  1.00  0.00     0.156 HD
ENDBRANCH   8  22
TORSDOF 4
ENDMDL
MODEL 3
REMARK VINA RESULT:      -8.2      2.850      6.227
REMARK  4 active torsions:
REMARK  status: ('A' for Active; 'I' for Inactive)
REMARK    1  A    between atoms: C2_2  and  N1_3 
REMARK    2  A    between atoms: C2_2  and  C11_15 
REMARK    3  A    between atoms: N1_3  and  C3_4 
REMARK    4  A    between atoms: C8_11  and  N4_12 
ROOT
HETATM    1  C3  UNL     1      25.266   2.457  51.931  1.00  0.00     0.138 A 
HETATM    2  N2  UNL     1      25.567   3.307  50.935  1.00  0.00    -0.224 NA
HETATM    3  C4  UNL     1      24.722   3.460  49.902  1.00  0.00     0.235 A 
HETATM    4  N3  UNL     1      23.540   2.794  49.783  1.00  0.00    -0.241 NA
HETATM    5  C5  UNL     1      23.191   1.923  50.763  1.00  0.00     0.072 A 
HETATM    6  C6  UNL     1      22.011   1.253  50.653  1.00  0.00     0.035 A 
HETATM    7  C7  UNL     1      21.682   0.382  51.654  1.00  0.00     0.031 A 
HETATM    8  C8  UNL     1      22.510   0.179  52.745  1.00  0.00     0.026 A 
HETATM    9  C9  UNL     1      23.687   0.892  52.788  1.00  0.00     0.046 A 
HETATM   10  C10 UNL     1      24.071   1.782  51.813  1.00  0.00     0.041 A 
ENDROOT
BRANCH   1  11
HETATM   11  N1  UNL     1      26.161   2.295  53.022  1.00  0.00    -0.366 N 
HETATM   12  H5  UNL     1      25.953   2.423  54.033  1.00  0.00     0.161 HD
BRANCH  11  13
HETATM   13  C2  UNL     1      27.534   1.909  52.754  1.00  0.00     0.112 C 
HETATM   14  C1  UNL     1      28.552   2.617  53.573  1.00  0.00     0.037 C 
BRANCH  13  15
HETATM   15  C11 UNL     1      27.761   0.453  52.849  1.00  0.00    -0.036 A 
HETATM   16  C12 UNL     1      28.986   0.155  53.408  1.00  0.00     0.012 A 
HETATM   17  C13 UNL     1      29.381  -1.176  53.581  1.00  0.00     0.043 A 
HETATM   18  C14 UNL     1      28.562  -2.223  53.199  1.00  0.00     0.116 A 
HETATM   19  F1  UNL     1      28.868  -3.529  53.331  1.00  0.00    -0.206 F 
HETATM   20  C15 UNL     1      27.332  -1.894  52.638  1.00  0.00     0.043 A 
HETATM   21  C16 UNL     1      26.938  -0.586  52.466  1.00  0.00     0.012 A 
ENDBRANCH  13  15
ENDBRANCH  11  13
ENDBRANCH   1  11
BRANCH   8  22
HETATM   22  N4  UNL     1      22.149  -0.731  53.775  1.00  0.00    -0.399 N 
HETATM   23  H9  UNL     1      21.181  -0.712  54.128  1.00  0.00     0.156 HD
HETATM   24  H10 UNL     1      22.870  -1.389  54.143  1.00  0.00     0.156 HD
ENDBRANCH   8  22
TORSDOF 4
ENDMDL
MODEL 4
REMARK VINA RESULT:      -8.2      3.083      6.887
REMARK  4 active torsions:
REMARK  status: ('A' for Active; 'I' for Inactive)
REMARK    1  A    between atoms: C2_2  and  N1_3 
REMARK    2  A    between atoms: C2_2  and  C11_15 
REMARK    3  A    between atoms: N1_3  and  C3_4 
REMARK    4  A    between atoms: C8_11  and  N4_12 
ROOT
HETATM    1  C3  UNL     1      24.347   0.015  54.067  1.00  0.00     0.138 A 
HETATM    2  N2  UNL     1      24.824  -0.751  55.062  1.00  0.00    -0.224 NA
HETATM    3  C4  UNL     1      24.005  -1.593  55.716  1.00  0.00     0.235 A 
HETATM    4  N3  UNL     1      22.680  -1.733  55.436  1.00  0.00    -0.241 NA
HETATM    5  C5  UNL     1      22.149  -0.980  54.439  1.00  0.00     0.072 A 
HETATM    6  C6  UNL     1      20.826  -1.113  54.152  1.00  0.00     0.035 A 
HETATM    7  C7  UNL     1      20.317  -0.343  53.143  1.00  0.00     0.031 A 
HETATM    8  C8  UNL     1      21.107   0.543  52.432  1.00  0.00     0.026 A 
HETATM    9  C9  UNL     1      22.438   0.623  52.779  1.00  0.00     0.046 A 
HETATM   10  C10 UNL     1      23.006  -0.124  53.782  1.00  0.00     0.041 A 
ENDROOT
BRANCH   1  11
HETATM   11  N1  UNL     1      25.213   0.905  53.378  1.00  0.00    -0.366 N 
HETATM   12  H5  UNL     1      25.341   1.922  53.553  1.00  0.00     0.161 HD
BRANCH  11  13
HETATM   13  C2  UNL     1      26.034   0.391  52.297  1.00  0.00     0.112 C 
HETATM   14  C1  UNL     1      26.351   1.377  51.232  1.00  0.00     0.037 C 
BRANCH  13  15
HETATM   15  C11 UNL     1      27.285  -0.240  52.763  1.00  0.00    -0.036 A 
HETATM   16  C12 UNL     1      28.176   0.684  53.267  1.00  0.00     0.012 A 
HETATM   17  C13 UNL     1      29.420   0.275  53.758  1.00  0.00     0.043 A 
HETATM   18  C14 UNL     1      29.790  -1.058  53.752  1.00  0.00     0.116 A 
HETATM   19  F1  UNL     1      30.968  -1.533  54.206  1.00  0.00    -0.206 F 
HETATM   20  C15 UNL     1      28.873  -1.970  53.239  1.00  0.00     0.043 A 
HETATM   21  C16 UNL     1      27.647  -1.571  52.754  1.00  0.00     0.012 A 
ENDBRANCH  13  15
ENDBRANCH  11  13
ENDBRANCH   1  11
BRANCH   8  22
HETATM   22  N4  UNL     1      20.558   1.334  51.387  1.00  0.00    -0.399 N 
HETATM   23  H9  UNL     1      20.844   2.321  51.318  1.00  0.00     0.156 HD
HETATM   24  H10 UNL     1      19.883   0.896  50.724  1.00  0.00     0.156 HD
ENDBRANCH   8  22
TORSDOF 4
ENDMDL
MODEL 5
REMARK VINA RESULT:      -8.1      4.069      6.130
REMARK  4 active torsions:
REMARK  status: ('A' for Active; 'I' for Inactive)
REMARK    1  A    between atoms: C2_2  and  N1_3 
REMARK    2  A    between atoms: C2_2  and  C11_15 
REMARK    3  A    between atoms: N1_3  and  C3_4 
REMARK    4  A    between atoms: C8_11  and  N4_12 
ROOT
HETATM    1  C3  UNL     1      24.686   2.222  52.909  1.00  0.00     0.138 A 
HETATM    2  N2  UNL     1      23.570   1.476  52.854  1.00  0.00    -0.224 NA
HETATM    3  C4  UNL     1      23.620   0.167  53.152  1.00  0.00     0.235 A 
HETATM    4  N3  UNL     1      24.758  -0.485  53.518  1.00  0.00    -0.241 NA
HETATM    5  C5  UNL     1      25.913   0.224  53.587  1.00  0.00     0.072 A 
HETATM    6  C6  UNL     1      27.056  -0.419  53.952  1.00  0.00     0.035 A 
HETATM    7  C7  UNL     1      28.205   0.319  54.015  1.00  0.00     0.031 A 
HETATM    8  C8  UNL     1      28.220   1.672  53.720  1.00  0.00     0.026 A 
HETATM    9  C9  UNL     1      27.025   2.254  53.359  1.00  0.00     0.046 A 
HETATM   10  C10 UNL     1      25.839   1.565  53.278  1.00  0.00     0.041 A 
ENDROOT
BRANCH   1  11
HETATM   11  N1  UNL     1      24.632   3.605  52.592  1.00  0.00    -0.366 N 
HETATM   12  H5  UNL     1      24.894   4.404  53.206  1.00  0.00     0.161 HD
BRANCH  11  13
HETATM   13  C2  UNL     1      24.166   4.009  51.279  1.00  0.00     0.112 C 
HETATM   14  C1  UNL     1      23.127   5.071  51.285  1.00  0.00     0.037 C 
BRANCH  13  15
HETATM   15  C11 UNL     1      25.257   4.403  50.366  1.00  0.00    -0.036 A 
HETATM   16  C12 UNL     1      25.177   5.731  50.004  1.00  0.00     0.012 A 
HETATM   17  C13 UNL     1      26.127   6.290  49.143  1.00  0.00     0.043 A 
HETATM   18  C14 UNL     1      27.166   5.533  48.632  1.00  0.00     0.116 A 
HETATM   19  F1  UNL     1      28.119   5.995  47.798  1.00  0.00    -0.206 F 
HETATM   20  C15 UNL     1      27.224   4.196  49.013  1.00  0.00     0.043 A 
HETATM   21  C16 UNL     1      26.291   3.641  49.861  1.00  0.00     0.012 A 
ENDBRANCH  13  15
ENDBRANCH  11  13
ENDBRANCH   1  11
BRANCH   8  22
HETATM   22  N4  UNL     1      29.426   2.420  53.791  1.00  0.00    -0.399 N 
HETATM   23  H9  UNL     1      30.316   1.908  53.868  1.00  0.00     0.156 HD
HETATM   24  H10 UNL     1      29.376   3.461  53.765  1.00  0.00     0.156 HD
ENDBRANCH   8  22
TORSDOF 4
ENDMDL
MODEL 6
REMARK VINA RESULT:      -8.1      4.006      6.302
REMARK  4 active torsions:
REMARK  status: ('A' for Active; 'I' for Inactive)
REMARK    1  A    between atoms: C2_2  and  N1_3 
REMARK    2  A    between atoms: C2_2  and  C11_15 
REMARK    3  A    between atoms: N1_3  and  C3_4 
REMARK    4  A    between atoms: C8_11  and  N4_12 
ROOT
HETATM    1  C3  UNL     1      23.339   1.513  52.087  1.00  0.00     0.138 A 
HETATM    2  N2  UNL     1      22.312   0.650  52.003  1.00  0.00    -0.224 NA
HETATM    3  C4  UNL     1      22.341  -0.501  52.696  1.00  0.00     0.235 A 
HETATM    4  N3  UNL     1      23.370  -0.873  53.507  1.00  0.00    -0.241 NA
HETATM    5  C5  UNL     1      24.431  -0.036  53.625  1.00  0.00     0.072 A 
HETATM    6  C6  UNL     1      25.464  -0.399  54.434  1.00  0.00     0.035 A 
HETATM    7  C7  UNL     1      26.521   0.462  54.535  1.00  0.00     0.031 A 
HETATM    8  C8  UNL     1      26.553   1.663  53.847  1.00  0.00     0.026 A 
HETATM    9  C9  UNL     1      25.472   1.963  53.049  1.00  0.00     0.046 A 
HETATM   10  C10 UNL     1      24.381   1.138  52.906  1.00  0.00     0.041 A 
ENDROOT
BRANCH   1  11
HETATM   11  N1  UNL     1      23.308   2.728  51.353  1.00  0.00    -0.366 N 
HETATM   12  H5  UNL     1      23.083   3.677  51.713  1.00  0.00     0.161 HD
BRANCH  11  13
HETATM   13  C2  UNL     1      23.617   2.701  49.935  1.00  0.00     0.112 C 
HETATM   14  C1  UNL     1      22.477   3.035  49.042  1.00  0.00     0.037 C 
BRANCH  13  15
HETATM   15  C11 UNL     1      24.778   3.537  49.573  1.00  0.00    -0.036 A 
HETATM   16  C12 UNL     1      24.403   4.804  49.180  1.00  0.00     0.012 A 
HETATM   17  C13 UNL     1      25.367   5.743  48.799  1.00  0.00     0.043 A 
HETATM   18  C14 UNL     1      26.714   5.431  48.805  1.00  0.00     0.116 A 
HETATM   19  F1  UNL     1      27.704   6.276  48.452  1.00  0.00    -0.206 F 
HETATM   20  C15 UNL     1      27.066   4.145  49.205  1.00  0.00     0.043 A 
HETATM   21  C16 UNL     1      26.121   3.218  49.582  1.00  0.00     0.012 A 
ENDBRANCH  13  15
ENDBRANCH  11  13
ENDBRANCH   1  11
BRANCH   8  22
HETATM   22  N4  UNL     1      27.661   2.544  53.967  1.00  0.00    -0.399 N 
HETATM   23  H9  UNL     1      27.936   3.100  53.144  1.00  0.00     0.156 HD
HETATM   24  H10 UNL     1      28.164   2.602  54.879  1.00  0.00     0.156 HD
ENDBRANCH   8  22
TORSDOF 4
ENDMDL
MODEL 7
REMARK VINA RESULT:      -7.9      3.198      6.443
REMARK  4 active torsions:
REMARK  status: ('A' for Active; 'I' for Inactive)
REMARK    1  A    between atoms: C2_2  and  N1_3 
REMARK    2  A    between atoms: C2_2  and  C11_15 
REMARK    3  A    between atoms: N1_3  and  C3_4 
REMARK    4  A    between atoms: C8_11  and  N4_12 
ROOT
HETATM    1  C3  UNL     1      24.728  -0.387  53.743  1.00  0.00     0.138 A 
HETATM    2  N2  UNL     1      25.264  -0.898  54.864  1.00  0.00    -0.224 NA
HETATM    3  C4  UNL     1      24.470  -1.423  55.812  1.00  0.00     0.235 A 
HETATM    4  N3  UNL     1      23.112  -1.478  55.719  1.00  0.00    -0.241 NA
HETATM    5  C5  UNL     1      22.522  -0.974  54.606  1.00  0.00     0.072 A 
HETATM    6  C6  UNL     1      21.166  -1.024  54.505  1.00  0.00     0.035 A 
HETATM    7  C7  UNL     1      20.596  -0.510  53.373  1.00  0.00     0.031 A 
HETATM    8  C8  UNL     1      21.359   0.045  52.360  1.00  0.00     0.026 A 
HETATM    9  C9  UNL     1      22.726   0.060  52.533  1.00  0.00     0.046 A 
HETATM   10  C10 UNL     1      23.355  -0.441  53.647  1.00  0.00     0.041 A 
ENDROOT
BRANCH   1  11
HETATM   11  N1  UNL     1      25.569   0.168  52.742  1.00  0.00    -0.366 N 
HETATM   12  H5  UNL     1      25.876  -0.280  51.856  1.00  0.00     0.161 HD
BRANCH  11  13
HETATM   13  C2  UNL     1      26.088   1.511  52.926  1.00  0.00     0.112 C 
HETATM   14  C1  UNL     1      27.563   1.593  53.083  1.00  0.00     0.037 C 
BRANCH  13  15
HETATM   15  C11 UNL     1      25.659   2.453  51.874  1.00  0.00    -0.036 A 
HETATM   16  C12 UNL     1      26.556   2.505  50.827  1.00  0.00     0.012 A 
HETATM   17  C13 UNL     1      26.320   3.343  49.732  1.00  0.00     0.043 A 
HETATM   18  C14 UNL     1      25.190   4.139  49.668  1.00  0.00     0.116 A 
HETATM   19  F1  UNL     1      24.890   4.971  48.651  1.00  0.00    -0.206 F 
HETATM   20  C15 UNL     1      24.302   4.067  50.737  1.00  0.00     0.043 A 
HETATM   21  C16 UNL     1      24.529   3.243  51.816  1.00  0.00     0.012 A 
ENDBRANCH  13  15
ENDBRANCH  11  13
ENDBRANCH   1  11
BRANCH   8  22
HETATM   22  N4  UNL     1      20.747   0.574  51.192  1.00  0.00    -0.399 N 
HETATM   23  H9  UNL     1      19.744   0.395  51.041  1.00  0.00     0.156 HD
HETATM   24  H10 UNL     1      21.327   1.124  50.523  1.00  0.00     0.156 HD
ENDBRANCH   8  22
TORSDOF 4
ENDMDL
MODEL 8
REMARK VINA RESULT:      -7.7      2.918      4.091
REMARK  4 active torsions:
REMARK  status: ('A' for Active; 'I' for Inactive)
REMARK    1  A    between atoms: C2_2  and  N1_3 
REMARK    2  A    between atoms: C2_2  and  C11_15 
REMARK    3  A    between atoms: N1_3  and  C3_4 
REMARK    4  A    between atoms: C8_11  and  N4_12 
ROOT
HETATM    1  C3  UNL     1      26.912   1.950  52.093  1.00  0.00     0.138 A 
HETATM    2  N2  UNL     1      28.096   2.469  52.459  1.00  0.00    -0.224 NA
HETATM    3  C4  UNL     1      28.636   2.143  53.646  1.00  0.00     0.235 A 
HETATM    4  N3  UNL     1      28.053   1.296  54.538  1.00  0.00    -0.241 NA
HETATM    5  C5  UNL     1      26.856   0.746  54.216  1.00  0.00     0.072 A 
HETATM    6  C6  UNL     1      26.265  -0.102  55.101  1.00  0.00     0.035 A 
HETATM    7  C7  UNL     1      25.059  -0.644  54.751  1.00  0.00     0.031 A 
HETATM    8  C8  UNL     1      24.450  -0.348  53.544  1.00  0.00     0.026 A 
HETATM    9  C9  UNL     1      25.107   0.518  52.699  1.00  0.00     0.046 A 
HETATM   10  C10 UNL     1      26.320   1.093  52.994  1.00  0.00     0.041 A 
ENDROOT
BRANCH   1  11
HETATM   11  N1  UNL     1      26.342   2.296  50.840  1.00  0.00    -0.366 N 
HETATM   12  H5  UNL     1      26.329   1.722  49.972  1.00  0.00     0.161 HD
BRANCH  11  13
HETATM   13  C2  UNL     1      25.689   3.584  50.695  1.00  0.00     0.112 C 
HETATM   14  C1  UNL     1      25.905   4.249  49.384  1.00  0.00     0.037 C 
BRANCH  13  15
HETATM   15  C11 UNL     1      24.243   3.544  50.987  1.00  0.00    -0.036 A 
HETATM   16  C12 UNL     1      23.885   4.451  51.962  1.00  0.00     0.012 A 
HETATM   17  C13 UNL     1      22.553   4.560  52.375  1.00  0.00     0.043 A 
HETATM   18  C14 UNL     1      21.563   3.767  51.822  1.00  0.00     0.116 A 
HETATM   19  F1  UNL     1      20.260   3.810  52.163  1.00  0.00    -0.206 F 
HETATM   20  C15 UNL     1      21.951   2.860  50.840  1.00  0.00     0.043 A 
HETATM   21  C16 UNL     1      23.262   2.750  50.430  1.00  0.00     0.012 A 
ENDBRANCH  13  15
ENDBRANCH  11  13
ENDBRANCH   1  11
BRANCH   8  22
HETATM   22  N4  UNL     1      23.196  -0.922  53.200  1.00  0.00    -0.399 N 
HETATM   23  H9  UNL     1      23.157  -1.933  53.009  1.00  0.00     0.156 HD
HETATM   24  H10 UNL     1      22.356  -0.307  53.150  1.00  0.00     0.156 HD
ENDBRANCH   8  22
TORSDOF 4
ENDMDL
MODEL 9
REMARK VINA RESULT:      -7.7      3.024      6.895
REMARK  4 active torsions:
REMARK  status: ('A' for Active; 'I' for Inactive)
REMARK    1  A    between atoms: C2_2  and  N1_3 
REMARK    2  A    between atoms: C2_2  and  C11_15 
REMARK    3  A    between atoms: N1_3  and  C3_4 
REMARK    4  A    between atoms: C8_11  and  N4_12 
ROOT
HETATM    1  C3  UNL     1      23.391   1.048  51.925  1.00  0.00     0.138 A 
HETATM    2  N2  UNL     1      23.714   1.871  50.913  1.00  0.00    -0.224 NA
HETATM    3  C4  UNL     1      22.763   2.310  50.071  1.00  0.00     0.235 A 
HETATM    4  N3  UNL     1      21.448   1.971  50.170  1.00  0.00    -0.241 NA
HETATM    5  C5  UNL     1      21.070   1.142  51.175  1.00  0.00     0.072 A 
HETATM    6  C6  UNL     1      19.758   0.798  51.282  1.00  0.00     0.035 A 
HETATM    7  C7  UNL     1      19.404  -0.038  52.304  1.00  0.00     0.031 A 
HETATM    8  C8  UNL     1      20.336  -0.525  53.204  1.00  0.00     0.026 A 
HETATM    9  C9  UNL     1      21.645  -0.133  53.034  1.00  0.00     0.046 A 
HETATM   10  C10 UNL     1      22.061   0.704  52.027  1.00  0.00     0.041 A 
ENDROOT
BRANCH   1  11
HETATM   11  N1  UNL     1      24.397   0.584  52.813  1.00  0.00    -0.366 N 
HETATM   12  H5  UNL     1      24.318  -0.182  53.512  1.00  0.00     0.161 HD
BRANCH  11  13
HETATM   13  C2  UNL     1      25.704   1.216  52.787  1.00  0.00     0.112 C 
HETATM   14  C1  UNL     1      25.855   2.375  53.704  1.00  0.00     0.037 C 
BRANCH  13  15
HETATM   15  C11 UNL     1      26.815   0.270  53.013  1.00  0.00    -0.036 A 
HETATM   16  C12 UNL     1      26.495  -1.011  52.613  1.00  0.00     0.012 A 
HETATM   17  C13 UNL     1      27.423  -2.048  52.748  1.00  0.00     0.043 A 
HETATM   18  C14 UNL     1      28.679  -1.823  53.283  1.00  0.00     0.116 A 
HETATM   19  F1  UNL     1      29.628  -2.766  53.447  1.00  0.00    -0.206 F 
HETATM   20  C15 UNL     1      28.976  -0.522  53.678  1.00  0.00     0.043 A 
HETATM   21  C16 UNL     1      28.066   0.503  53.546  1.00  0.00     0.012 A 
ENDBRANCH  13  15
ENDBRANCH  11  13
ENDBRANCH   1  11
BRANCH   8  22
HETATM   22  N4  UNL     1      19.946  -1.393  54.259  1.00  0.00    -0.399 N 
HETATM   23  H9  UNL     1      20.080  -1.075  55.230  1.00  0.00     0.156 HD
HETATM   24  H10 UNL     1      19.540  -2.324  54.024  1.00  0.00     0.156 HD
ENDBRANCH   8  22
TORSDOF 4
ENDMDL
