MODEL 1
REMARK VINA RESULT:      -7.5      0.000      0.000
REMARK  9 active torsions:
REMARK  status: ('A' for Active; 'I' for Inactive)
REMARK    1  A    between atoms: O1_2  and  C2_3 
REMARK    2  A    between atoms: C2_3  and  C3_4 
REMARK    3  A    between atoms: C3_4  and  O2_5 
REMARK    4  A    between atoms: O2_5  and  C4_6 
REMARK    5  A    between atoms: C8_12  and  N3_13 
REMARK    6  A    between atoms: C18_23  and  O3_24 
REMARK    7  A    between atoms: O3_24  and  C19_25 
REMARK    8  A    between atoms: C19_25  and  C20_26 
REMARK    9  A    between atoms: C20_26  and  O4_27 
ROOT
HETATM    1  C4  UNL     1      27.061   1.006  53.397  1.00  0.00     0.104 A 
HETATM    2  C5  UNL     1      27.344   1.867  52.359  1.00  0.00     0.072 A 
HETATM    3  C6  UNL     1      26.453   2.474  51.536  1.00  0.00     0.075 A 
HETATM    4  N1  UNL     1      26.885   3.289  50.565  1.00  0.00    -0.241 NA
HETATM    5  C7  UNL     1      25.971   3.879  49.762  1.00  0.00     0.236 A 
HETATM    6  N2  UNL     1      24.647   3.633  49.954  1.00  0.00    -0.223 NA
HETATM    7  C8  UNL     1      24.192   2.813  50.930  1.00  0.00     0.147 A 
HETATM    8  C16 UNL     1      25.121   2.207  51.754  1.00  0.00     0.042 A 
HETATM    9  C17 UNL     1      24.734   1.356  52.773  1.00  0.00     0.057 A 
HETATM   10  C18 UNL     1      25.696   0.754  53.594  1.00  0.00     0.103 A 
ENDROOT
BRANCH   7  11
HETATM   11  N3  UNL     1      22.799   2.571  51.112  1.00  0.00    -0.317 N 
HETATM   12  C9  UNL     1      22.024   3.460  51.908  1.00  0.00     0.098 C 
HETATM   13  C10 UNL     1      20.788   3.251  52.331  1.00  0.00     0.018 C 
HETATM   14  C11 UNL     1      19.855   2.143  52.155  1.00  0.00     0.008 C 
HETATM   15  C12 UNL     1      20.045   1.090  51.386  1.00  0.00    -0.061 C 
HETATM   16  C13 UNL     1      18.938   0.088  51.375  1.00  0.00     0.048 C 
HETATM   17  C14 UNL     1      21.207   0.768  50.534  1.00  0.00     0.024 C 
HETATM   18  C15 UNL     1      22.375   1.395  50.419  1.00  0.00     0.098 C 
ENDBRANCH   7  11
BRANCH  10  19
HETATM   19  O3  UNL     1      25.208  -0.083  54.588  1.00  0.00    -0.346 OA
BRANCH  19  20
HETATM   20  C19 UNL     1      24.102  -0.903  54.320  1.00  0.00     0.201 C 
BRANCH  20  21
HETATM   21  C20 UNL     1      23.403  -1.356  55.585  1.00  0.00     0.193 C 
BRANCH  21  22
HETATM   22  O4  UNL     1      22.119  -1.734  55.271  1.00  0.00    -0.394 OA
HETATM   23  C21 UNL     1      21.657  -1.234  54.069  1.00  0.00     0.201 C 
ENDBRANCH  21  22
ENDBRANCH  20  21
ENDBRANCH  19  20
ENDBRANCH  10  19
BRANCH   1  24
HETATM   24  O2  UNL     1      27.836   0.341  54.281  1.00  0.00    -0.346 OA
BRANCH  24  25
HETATM   25  C3  UNL     1      29.022  -0.351  54.132  1.00  0.00     0.201 C 
BRANCH  25  26
HETATM   26  C2  UNL     1      29.028  -1.492  53.174  1.00  0.00     0.193 C 
BRANCH  26  27
HETATM   27  O1  UNL     1      27.966  -2.394  53.349  1.00  0.00    -0.394 OA
HETATM   28  C1  UNL     1      27.069  -2.411  52.311  1.00  0.00     0.201 C 
ENDBRANCH  26  27
ENDBRANCH  25  26
ENDBRANCH  24  25
ENDBRANCH   1  24
TORSDOF 9
ENDMDL
MODEL 2
REMARK VINA RESULT:      -7.2      2.387      5.019
REMARK  9 active torsions:
REMARK  status: ('A' for Active; 'I' for Inactive)
REMARK    1  A    between atoms: O1_2  and  C2_3 
REMARK    2  A    between atoms: C2_3  and  C3_4 
REMARK    3  A    between atoms: C3_4  and  O2_5 
REMARK    4  A    between atoms: O2_5  and  C4_6 
REMARK    5  A    between atoms: C8_12  and  N3_13 
REMARK    6  A    between atoms: C18_23  and  O3_24 
REMARK    7  A    between atoms: O3_24  and  C19_25 
REMARK    8  A    between atoms: C19_25  and  C20_26 
REMARK    9  A    between atoms: C20_26  and  O4_27 
ROOT
HETATM    1  C4  UNL     1      26.080  -0.134  52.766  1.00  0.00     0.104 A 
HETATM    2  C5  UNL     1      25.045  -0.626  53.531  1.00  0.00     0.072 A 
HETATM    3  C6  UNL     1      23.767  -0.173  53.563  1.00  0.00     0.075 A 
HETATM    4  N1  UNL     1      22.869  -0.759  54.365  1.00  0.00    -0.241 NA
HETATM    5  C7  UNL     1      21.603  -0.283  54.373  1.00  0.00     0.236 A 
HETATM    6  N2  UNL     1      21.273   0.770  53.577  1.00  0.00    -0.223 NA
HETATM    7  C8  UNL     1      22.168   1.374  52.760  1.00  0.00     0.147 A 
HETATM    8  C16 UNL     1      23.463   0.892  52.747  1.00  0.00     0.042 A 
HETATM    9  C17 UNL     1      24.434   1.456  51.940  1.00  0.00     0.057 A 
HETATM   10  C18 UNL     1      25.739   0.949  51.946  1.00  0.00     0.103 A 
ENDROOT
BRANCH   7  11
HETATM   11  N3  UNL     1      21.798   2.475  51.934  1.00  0.00    -0.317 N 
HETATM   12  C9  UNL     1      21.225   2.239  50.654  1.00  0.00     0.098 C 
HETATM   13  C10 UNL     1      21.031   3.144  49.708  1.00  0.00     0.018 C 
HETATM   14  C11 UNL     1      21.306   4.575  49.635  1.00  0.00     0.008 C 
HETATM   15  C12 UNL     1      21.743   5.327  50.625  1.00  0.00    -0.061 C 
HETATM   16  C13 UNL     1      21.948   6.770  50.300  1.00  0.00     0.048 C 
HETATM   17  C14 UNL     1      22.058   4.934  52.012  1.00  0.00     0.024 C 
HETATM   18  C15 UNL     1      22.082   3.725  52.567  1.00  0.00     0.098 C 
ENDBRANCH   7  11
BRANCH  10  19
HETATM   19  O3  UNL     1      26.640   1.583  51.101  1.00  0.00    -0.346 OA
BRANCH  19  20
HETATM   20  C19 UNL     1      26.593   2.978  50.960  1.00  0.00     0.201 C 
BRANCH  20  21
HETATM   21  C20 UNL     1      26.463   3.405  49.513  1.00  0.00     0.193 C 
BRANCH  21  22
HETATM   22  O4  UNL     1      27.561   4.159  49.173  1.00  0.00    -0.394 OA
HETATM   23  C21 UNL     1      27.258   5.386  48.615  1.00  0.00     0.201 C 
ENDBRANCH  21  22
ENDBRANCH  20  21
ENDBRANCH  19  20
ENDBRANCH  10  19
BRANCH   1  24
HETATM   24  O2  UNL     1      27.379  -0.484  52.639  1.00  0.00    -0.346 OA
BRANCH  24  25
HETATM   25  C3  UNL     1      28.445  -0.415  53.514  1.00  0.00     0.201 C 
BRANCH  25  26
HETATM   26  C2  UNL     1      28.222   0.297  54.803  1.00  0.00     0.193 C 
BRANCH  26  27
HETATM   27  O1  UNL     1      28.946   1.494  54.930  1.00  0.00    -0.394 OA
HETATM   28  C1  UNL     1      28.841   2.330  53.848  1.00  0.00     0.201 C 
ENDBRANCH  26  27
ENDBRANCH  25  26
ENDBRANCH  24  25
ENDBRANCH   1  24
TORSDOF 9
ENDMDL
MODEL 3
REMARK VINA RESULT:      -7.0      2.538      4.767
REMARK  9 active torsions:
REMARK  status: ('A' for Active; 'I' for Inactive)
REMARK    1  A    between atoms: O1_2  and  C2_3 
REMARK    2  A    between atoms: C2_3  and  C3_4 
REMARK    3  A    between atoms: C3_4  and  O2_5 
REMARK    4  A    between atoms: O2_5  and  C4_6 
REMARK    5  A    between atoms: C8_12  and  N3_13 
REMARK    6  A    between atoms: C18_23  and  O3_24 
REMARK    7  A    between atoms: O3_24  and  C19_25 
REMARK    8  A    between atoms: C19_25  and  C20_26 
REMARK    9  A    between atoms: C20_26  and  O4_27 
ROOT
HETATM    1  C4  UNL     1      26.845   1.243  52.534  1.00  0.00     0.104 A 
HETATM    2  C5  UNL     1      25.968   0.409  53.193  1.00  0.00     0.072 A 
HETATM    3  C6  UNL     1      24.625   0.334  53.017  1.00  0.00     0.075 A 
HETATM    4  N1  UNL     1      23.903  -0.532  53.739  1.00  0.00    -0.241 NA
HETATM    5  C7  UNL     1      22.567  -0.583  53.539  1.00  0.00     0.236 A 
HETATM    6  N2  UNL     1      21.990   0.238  52.620  1.00  0.00    -0.223 NA
HETATM    7  C8  UNL     1      22.705   1.119  51.881  1.00  0.00     0.147 A 
HETATM    8  C16 UNL     1      24.071   1.175  52.080  1.00  0.00     0.042 A 
HETATM    9  C17 UNL     1      24.869   2.050  51.364  1.00  0.00     0.057 A 
HETATM   10  C18 UNL     1      26.251   2.088  51.587  1.00  0.00     0.103 A 
ENDROOT
BRANCH   7  11
HETATM   11  N3  UNL     1      22.079   1.969  50.923  1.00  0.00    -0.317 N 
HETATM   12  C9  UNL     1      21.690   3.287  51.294  1.00  0.00     0.098 C 
HETATM   13  C10 UNL     1      20.923   4.100  50.586  1.00  0.00     0.018 C 
HETATM   14  C11 UNL     1      20.259   3.962  49.295  1.00  0.00     0.008 C 
HETATM   15  C12 UNL     1      20.393   2.948  48.464  1.00  0.00    -0.061 C 
HETATM   16  C13 UNL     1      19.605   3.039  47.199  1.00  0.00     0.048 C 
HETATM   17  C14 UNL     1      21.217   1.734  48.616  1.00  0.00     0.024 C 
HETATM   18  C15 UNL     1      21.932   1.318  49.660  1.00  0.00     0.098 C 
ENDBRANCH   7  11
BRANCH  10  19
HETATM   19  O3  UNL     1      26.963   2.998  50.818  1.00  0.00    -0.346 OA
BRANCH  19  20
HETATM   20  C19 UNL     1      26.515   3.316  49.528  1.00  0.00     0.201 C 
BRANCH  20  21
HETATM   21  C20 UNL     1      26.902   4.721  49.115  1.00  0.00     0.193 C 
BRANCH  21  22
HETATM   22  O4  UNL     1      28.194   4.704  48.645  1.00  0.00    -0.394 OA
HETATM   23  C21 UNL     1      28.661   5.934  48.222  1.00  0.00     0.201 C 
ENDBRANCH  21  22
ENDBRANCH  20  21
ENDBRANCH  19  20
ENDBRANCH  10  19
BRANCH   1  24
HETATM   24  O2  UNL     1      28.182   1.420  52.610  1.00  0.00    -0.346 OA
BRANCH  24  25
HETATM   25  C3  UNL     1      29.090   1.181  53.622  1.00  0.00     0.201 C 
BRANCH  25  26
HETATM   26  C2  UNL     1      29.759  -0.149  53.636  1.00  0.00     0.193 C 
BRANCH  26  27
HETATM   27  O1  UNL     1      28.915  -1.213  53.996  1.00  0.00    -0.394 OA
HETATM   28  C1  UNL     1      29.032  -2.317  53.189  1.00  0.00     0.201 C 
ENDBRANCH  26  27
ENDBRANCH  25  26
ENDBRANCH  24  25
ENDBRANCH   1  24
TORSDOF 9
ENDMDL
MODEL 4
REMARK VINA RESULT:      -7.0      2.291      4.614
REMARK  9 active torsions:
REMARK  status: ('A' for Active; 'I' for Inactive)
REMARK    1  A    between atoms: O1_2  and  C2_3 
REMARK    2  A    between atoms: C2_3  and  C3_4 
REMARK    3  A    between atoms: C3_4  and  O2_5 
REMARK    4  A    between atoms: O2_5  and  C4_6 
REMARK    5  A    between atoms: C8_12  and  N3_13 
REMARK    6  A    between atoms: C18_23  and  O3_24 
REMARK    7  A    between atoms: O3_24  and  C19_25 
REMARK    8  A    between atoms: C19_25  and  C20_26 
REMARK    9  A    between atoms: C20_26  and  O4_27 
ROOT
HETATM    1  C4  UNL     1      25.623  -0.422  53.951  1.00  0.00     0.104 A 
HETATM    2  C5  UNL     1      24.517  -0.923  54.602  1.00  0.00     0.072 A 
HETATM    3  C6  UNL     1      23.217  -0.728  54.270  1.00  0.00     0.075 A 
HETATM    4  N1  UNL     1      22.247  -1.284  55.007  1.00  0.00    -0.241 NA
HETATM    5  C7  UNL     1      20.961  -1.070  54.649  1.00  0.00     0.236 A 
HETATM    6  N2  UNL     1      20.682  -0.302  53.562  1.00  0.00    -0.223 NA
HETATM    7  C8  UNL     1      21.649   0.267  52.806  1.00  0.00     0.147 A 
HETATM    8  C16 UNL     1      22.966   0.053  53.166  1.00  0.00     0.042 A 
HETATM    9  C17 UNL     1      24.010   0.601  52.443  1.00  0.00     0.057 A 
HETATM   10  C18 UNL     1      25.335   0.369  52.830  1.00  0.00     0.103 A 
ENDROOT
BRANCH   7  11
HETATM   11  N3  UNL     1      21.332   1.069  51.670  1.00  0.00    -0.317 N 
HETATM   12  C9  UNL     1      21.303   0.480  50.375  1.00  0.00     0.098 C 
HETATM   13  C10 UNL     1      21.233   1.131  49.225  1.00  0.00     0.018 C 
HETATM   14  C11 UNL     1      21.168   2.550  48.892  1.00  0.00     0.008 C 
HETATM   15  C12 UNL     1      21.050   3.539  49.755  1.00  0.00    -0.061 C 
HETATM   16  C13 UNL     1      21.005   4.910  49.165  1.00  0.00     0.048 C 
HETATM   17  C14 UNL     1      20.959   3.473  51.226  1.00  0.00     0.024 C 
HETATM   18  C15 UNL     1      21.079   2.426  52.038  1.00  0.00     0.098 C 
ENDBRANCH   7  11
BRANCH  10  19
HETATM   19  O3  UNL     1      26.311   0.962  52.041  1.00  0.00    -0.346 OA
BRANCH  19  20
HETATM   20  C19 UNL     1      26.368   2.361  51.947  1.00  0.00     0.201 C 
BRANCH  20  21
HETATM   21  C20 UNL     1      26.525   2.834  50.517  1.00  0.00     0.193 C 
BRANCH  21  22
HETATM   22  O4  UNL     1      25.855   4.026  50.369  1.00  0.00    -0.394 OA
HETATM   23  C21 UNL     1      24.597   4.045  50.939  1.00  0.00     0.201 C 
ENDBRANCH  21  22
ENDBRANCH  20  21
ENDBRANCH  19  20
ENDBRANCH  10  19
BRANCH   1  24
HETATM   24  O2  UNL     1      26.952  -0.534  54.170  1.00  0.00    -0.346 OA
BRANCH  24  25
HETATM   25  C3  UNL     1      27.806   0.126  55.030  1.00  0.00     0.201 C 
BRANCH  25  26
HETATM   26  C2  UNL     1      28.944   0.869  54.421  1.00  0.00     0.193 C 
BRANCH  26  27
HETATM   27  O1  UNL     1      29.567   0.194  53.358  1.00  0.00    -0.394 OA
HETATM   28  C1  UNL     1      30.124  -1.009  53.709  1.00  0.00     0.201 C 
ENDBRANCH  26  27
ENDBRANCH  25  26
ENDBRANCH  24  25
ENDBRANCH   1  24
TORSDOF 9
ENDMDL
MODEL 5
REMARK VINA RESULT:      -6.9      2.380      6.491
REMARK  9 active torsions:
REMARK  status: ('A' for Active; 'I' for Inactive)
REMARK    1  A    between atoms: O1_2  and  C2_3 
REMARK    2  A    between atoms: C2_3  and  C3_4 
REMARK    3  A    between atoms: C3_4  and  O2_5 
REMARK    4  A    between atoms: O2_5  and  C4_6 
REMARK    5  A    between atoms: C8_12  and  N3_13 
REMARK    6  A    between atoms: C18_23  and  O3_24 
REMARK    7  A    between atoms: O3_24  and  C19_25 
REMARK    8  A    between atoms: C19_25  and  C20_26 
REMARK    9  A    between atoms: C20_26  and  O4_27 
ROOT
HETATM    1  C4  UNL     1      22.080   2.458  51.456  1.00  0.00     0.104 A 
HETATM    2  C5  UNL     1      22.866   3.224  50.623  1.00  0.00     0.072 A 
HETATM    3  C6  UNL     1      24.220   3.213  50.542  1.00  0.00     0.075 A 
HETATM    4  N1  UNL     1      24.845   4.023  49.678  1.00  0.00    -0.241 NA
HETATM    5  C7  UNL     1      26.196   3.987  49.621  1.00  0.00     0.236 A 
HETATM    6  N2  UNL     1      26.883   3.140  50.434  1.00  0.00    -0.223 NA
HETATM    7  C8  UNL     1      26.268   2.315  51.312  1.00  0.00     0.147 A 
HETATM    8  C16 UNL     1      24.888   2.346  51.375  1.00  0.00     0.042 A 
HETATM    9  C17 UNL     1      24.187   1.533  52.248  1.00  0.00     0.057 A 
HETATM   10  C18 UNL     1      22.788   1.585  52.293  1.00  0.00     0.103 A 
ENDROOT
BRANCH   7  11
HETATM   11  N3  UNL     1      27.009   1.435  52.154  1.00  0.00    -0.317 N 
HETATM   12  C9  UNL     1      27.926   1.969  53.103  1.00  0.00     0.098 C 
HETATM   13  C10 UNL     1      28.822   1.282  53.792  1.00  0.00     0.018 C 
HETATM   14  C11 UNL     1      29.167  -0.135  53.832  1.00  0.00     0.008 C 
HETATM   15  C12 UNL     1      28.525  -1.102  53.209  1.00  0.00    -0.061 C 
HETATM   16  C13 UNL     1      29.075  -2.477  53.406  1.00  0.00     0.048 C 
HETATM   17  C14 UNL     1      27.335  -1.010  52.341  1.00  0.00     0.024 C 
HETATM   18  C15 UNL     1      26.692   0.067  51.893  1.00  0.00     0.098 C 
ENDBRANCH   7  11
BRANCH  10  19
HETATM   19  O3  UNL     1      22.178   0.731  53.201  1.00  0.00    -0.346 OA
BRANCH  19  20
HETATM   20  C19 UNL     1      22.674  -0.570  53.368  1.00  0.00     0.201 C 
BRANCH  20  21
HETATM   21  C20 UNL     1      21.664  -1.490  54.021  1.00  0.00     0.193 C 
BRANCH  21  22
HETATM   22  O4  UNL     1      22.063  -1.741  55.313  1.00  0.00    -0.394 OA
HETATM   23  C21 UNL     1      23.381  -1.419  55.573  1.00  0.00     0.201 C 
ENDBRANCH  21  22
ENDBRANCH  20  21
ENDBRANCH  19  20
ENDBRANCH  10  19
BRANCH   1  24
HETATM   24  O2  UNL     1      20.744   2.370  51.639  1.00  0.00    -0.346 OA
BRANCH  24  25
HETATM   25  C3  UNL     1      19.792   3.313  51.971  1.00  0.00     0.201 C 
BRANCH  25  26
HETATM   26  C2  UNL     1      19.286   4.185  50.875  1.00  0.00     0.193 C 
BRANCH  26  27
HETATM   27  O1  UNL     1      17.886   4.283  50.819  1.00  0.00    -0.394 OA
HETATM   28  C1  UNL     1      17.230   3.385  51.622  1.00  0.00     0.201 C 
ENDBRANCH  26  27
ENDBRANCH  25  26
ENDBRANCH  24  25
ENDBRANCH   1  24
TORSDOF 9
ENDMDL
MODEL 6
REMARK VINA RESULT:      -6.8      3.411      7.460
REMARK  9 active torsions:
REMARK  status: ('A' for Active; 'I' for Inactive)
REMARK    1  A    between atoms: O1_2  and  C2_3 
REMARK    2  A    between atoms: C2_3  and  C3_4 
REMARK    3  A    between atoms: C3_4  and  O2_5 
REMARK    4  A    between atoms: O2_5  and  C4_6 
REMARK    5  A    between atoms: C8_12  and  N3_13 
REMARK    6  A    between atoms: C18_23  and  O3_24 
REMARK    7  A    between atoms: O3_24  and  C19_25 
REMARK    8  A    between atoms: C19_25  and  C20_26 
REMARK    9  A    between atoms: C20_26  and  O4_27 
ROOT
HETATM    1  C4  UNL     1      23.116   3.042  50.639  1.00  0.00     0.104 A 
HETATM    2  C5  UNL     1      22.250   2.087  51.126  1.00  0.00     0.072 A 
HETATM    3  C6  UNL     1      22.553   1.056  51.952  1.00  0.00     0.075 A 
HETATM    4  N1  UNL     1      21.595   0.204  52.340  1.00  0.00    -0.241 NA
HETATM    5  C7  UNL     1      21.931  -0.814  53.164  1.00  0.00     0.236 A 
HETATM    6  N2  UNL     1      23.221  -0.951  53.576  1.00  0.00    -0.223 NA
HETATM    7  C8  UNL     1      24.201  -0.100  53.195  1.00  0.00     0.147 A 
HETATM    8  C16 UNL     1      23.865   0.943  52.353  1.00  0.00     0.042 A 
HETATM    9  C17 UNL     1      24.811   1.854  51.919  1.00  0.00     0.057 A 
HETATM   10  C18 UNL     1      24.443   2.901  51.065  1.00  0.00     0.103 A 
ENDROOT
BRANCH   7  11
HETATM   11  N3  UNL     1      25.545  -0.263  53.640  1.00  0.00    -0.317 N 
HETATM   12  C9  UNL     1      26.007   0.457  54.777  1.00  0.00     0.098 C 
HETATM   13  C10 UNL     1      27.265   0.565  55.172  1.00  0.00     0.018 C 
HETATM   14  C11 UNL     1      28.518   0.039  54.643  1.00  0.00     0.008 C 
HETATM   15  C12 UNL     1      28.637  -0.805  53.639  1.00  0.00    -0.061 C 
HETATM   16  C13 UNL     1      30.033  -1.196  53.282  1.00  0.00     0.048 C 
HETATM   17  C14 UNL     1      27.573  -1.417  52.818  1.00  0.00     0.024 C 
HETATM   18  C15 UNL     1      26.263  -1.186  52.818  1.00  0.00     0.098 C 
ENDBRANCH   7  11
BRANCH  10  19
HETATM   19  O3  UNL     1      25.465   3.761  50.686  1.00  0.00    -0.346 OA
BRANCH  19  20
HETATM   20  C19 UNL     1      26.530   3.274  49.915  1.00  0.00     0.201 C 
BRANCH  20  21
HETATM   21  C20 UNL     1      27.094   4.326  48.984  1.00  0.00     0.193 C 
BRANCH  21  22
HETATM   22  O4  UNL     1      26.203   5.370  48.903  1.00  0.00    -0.394 OA
HETATM   23  C21 UNL     1      26.790   6.605  48.706  1.00  0.00     0.201 C 
ENDBRANCH  21  22
ENDBRANCH  20  21
ENDBRANCH  19  20
ENDBRANCH  10  19
BRANCH   1  24
HETATM   24  O2  UNL     1      22.951   4.106  49.822  1.00  0.00    -0.346 OA
BRANCH  24  25
HETATM   25  C3  UNL     1      22.794   4.205  48.454  1.00  0.00     0.201 C 
BRANCH  25  26
HETATM   26  C2  UNL     1      22.488   2.950  47.712  1.00  0.00     0.193 C 
BRANCH  26  27
HETATM   27  O1  UNL     1      21.121   2.631  47.661  1.00  0.00    -0.394 OA
HETATM   28  C1  UNL     1      20.340   3.607  47.096  1.00  0.00     0.201 C 
ENDBRANCH  26  27
ENDBRANCH  25  26
ENDBRANCH  24  25
ENDBRANCH   1  24
TORSDOF 9
ENDMDL
MODEL 7
REMARK VINA RESULT:      -6.5      2.332      5.987
REMARK  9 active torsions:
REMARK  status: ('A' for Active; 'I' for Inactive)
REMARK    1  A    between atoms: O1_2  and  C2_3 
REMARK    2  A    between atoms: C2_3  and  C3_4 
REMARK    3  A    between atoms: C3_4  and  O2_5 
REMARK    4  A    between atoms: O2_5  and  C4_6 
REMARK    5  A    between atoms: C8_12  and  N3_13 
REMARK    6  A    between atoms: C18_23  and  O3_24 
REMARK    7  A    between atoms: O3_24  and  C19_25 
REMARK    8  A    between atoms: C19_25  and  C20_26 
REMARK    9  A    between atoms: C20_26  and  O4_27 
ROOT
HETATM    1  C4  UNL     1      23.835   1.795  52.238  1.00  0.00     0.104 A 
HETATM    2  C5  UNL     1      22.921   2.062  51.242  1.00  0.00     0.072 A 
HETATM    3  C6  UNL     1      23.053   2.957  50.233  1.00  0.00     0.075 A 
HETATM    4  N1  UNL     1      22.070   3.105  49.335  1.00  0.00    -0.241 NA
HETATM    5  C7  UNL     1      22.233   4.006  48.341  1.00  0.00     0.236 A 
HETATM    6  N2  UNL     1      23.379   4.737  48.274  1.00  0.00    -0.223 NA
HETATM    7  C8  UNL     1      24.383   4.601  49.171  1.00  0.00     0.147 A 
HETATM    8  C16 UNL     1      24.223   3.681  50.190  1.00  0.00     0.042 A 
HETATM    9  C17 UNL     1      25.203   3.485  51.146  1.00  0.00     0.057 A 
HETATM   10  C18 UNL     1      25.015   2.547  52.168  1.00  0.00     0.103 A 
ENDROOT
BRANCH   7  11
HETATM   11  N3  UNL     1      25.575   5.377  49.080  1.00  0.00    -0.317 N 
HETATM   12  C9  UNL     1      25.506   6.795  49.189  1.00  0.00     0.098 C 
HETATM   13  C10 UNL     1      26.483   7.645  48.918  1.00  0.00     0.018 C 
HETATM   14  C11 UNL     1      27.854   7.463  48.455  1.00  0.00     0.008 C 
HETATM   15  C12 UNL     1      28.470   6.308  48.304  1.00  0.00    -0.061 C 
HETATM   16  C13 UNL     1      29.878   6.384  47.813  1.00  0.00     0.048 C 
HETATM   17  C14 UNL     1      27.953   4.948  48.552  1.00  0.00     0.024 C 
HETATM   18  C15 UNL     1      26.725   4.553  48.881  1.00  0.00     0.098 C 
ENDBRANCH   7  11
BRANCH  10  19
HETATM   19  O3  UNL     1      26.057   2.424  53.077  1.00  0.00    -0.346 OA
BRANCH  19  20
HETATM   20  C19 UNL     1      27.284   1.890  52.657  1.00  0.00     0.201 C 
BRANCH  20  21
HETATM   21  C20 UNL     1      28.432   2.320  53.545  1.00  0.00     0.193 C 
BRANCH  21  22
HETATM   22  O4  UNL     1      29.265   1.245  53.744  1.00  0.00    -0.394 OA
HETATM   23  C21 UNL     1      28.804   0.333  54.674  1.00  0.00     0.201 C 
ENDBRANCH  21  22
ENDBRANCH  20  21
ENDBRANCH  19  20
ENDBRANCH  10  19
BRANCH   1  24
HETATM   24  O2  UNL     1      23.832   0.944  53.288  1.00  0.00    -0.346 OA
BRANCH  24  25
HETATM   25  C3  UNL     1      24.156  -0.394  53.395  1.00  0.00     0.201 C 
BRANCH  25  26
HETATM   26  C2  UNL     1      25.237  -0.758  54.352  1.00  0.00     0.193 C 
BRANCH  26  27
HETATM   27  O1  UNL     1      24.777  -1.350  55.540  1.00  0.00    -0.394 OA
HETATM   28  C1  UNL     1      23.412  -1.464  55.616  1.00  0.00     0.201 C 
ENDBRANCH  26  27
ENDBRANCH  25  26
ENDBRANCH  24  25
ENDBRANCH   1  24
TORSDOF 9
ENDMDL
MODEL 8
REMARK VINA RESULT:      -6.4      2.526      3.610
REMARK  9 active torsions:
REMARK  status: ('A' for Active; 'I' for Inactive)
REMARK    1  A    between atoms: O1_2  and  C2_3 
REMARK    2  A    between atoms: C2_3  and  C3_4 
REMARK    3  A    between atoms: C3_4  and  O2_5 
REMARK    4  A    between atoms: O2_5  and  C4_6 
REMARK    5  A    between atoms: C8_12  and  N3_13 
REMARK    6  A    between atoms: C18_23  and  O3_24 
REMARK    7  A    between atoms: O3_24  and  C19_25 
REMARK    8  A    between atoms: C19_25  and  C20_26 
REMARK    9  A    between atoms: C20_26  and  O4_27 
ROOT
HETATM    1  C4  UNL     1      25.503   1.464  52.212  1.00  0.00     0.104 A 
HETATM    2  C5  UNL     1      26.384   2.083  51.352  1.00  0.00     0.072 A 
HETATM    3  C6  UNL     1      26.130   3.147  50.551  1.00  0.00     0.075 A 
HETATM    4  N1  UNL     1      27.096   3.639  49.764  1.00  0.00    -0.241 NA
HETATM    5  C7  UNL     1      26.811   4.700  48.977  1.00  0.00     0.236 A 
HETATM    6  N2  UNL     1      25.562   5.239  48.999  1.00  0.00    -0.223 NA
HETATM    7  C8  UNL     1      24.574   4.755  49.786  1.00  0.00     0.147 A 
HETATM    8  C16 UNL     1      24.859   3.671  50.594  1.00  0.00     0.042 A 
HETATM    9  C17 UNL     1      23.901   3.120  51.426  1.00  0.00     0.057 A 
HETATM   10  C18 UNL     1      24.217   2.020  52.234  1.00  0.00     0.103 A 
ENDROOT
BRANCH   7  11
HETATM   11  N3  UNL     1      23.272   5.337  49.792  1.00  0.00    -0.317 N 
HETATM   12  C9  UNL     1      22.205   4.692  49.107  1.00  0.00     0.098 C 
HETATM   13  C10 UNL     1      21.015   5.212  48.852  1.00  0.00     0.018 C 
HETATM   14  C11 UNL     1      20.417   6.508  49.150  1.00  0.00     0.008 C 
HETATM   15  C12 UNL     1      20.959   7.457  49.886  1.00  0.00    -0.061 C 
HETATM   16  C13 UNL     1      20.146   8.699  50.044  1.00  0.00     0.048 C 
HETATM   17  C14 UNL     1      22.265   7.457  50.575  1.00  0.00     0.024 C 
HETATM   18  C15 UNL     1      23.246   6.558  50.534  1.00  0.00     0.098 C 
ENDBRANCH   7  11
BRANCH  10  19
HETATM   19  O3  UNL     1      23.188   1.540  53.033  1.00  0.00    -0.346 OA
BRANCH  19  20
HETATM   20  C19 UNL     1      22.161   0.779  52.457  1.00  0.00     0.201 C 
BRANCH  20  21
HETATM   21  C20 UNL     1      22.282  -0.693  52.788  1.00  0.00     0.193 C 
BRANCH  21  22
HETATM   22  O4  UNL     1      21.608  -0.941  53.960  1.00  0.00    -0.394 OA
HETATM   23  C21 UNL     1      22.425  -1.225  55.037  1.00  0.00     0.201 C 
ENDBRANCH  21  22
ENDBRANCH  20  21
ENDBRANCH  19  20
ENDBRANCH  10  19
BRANCH   1  24
HETATM   24  O2  UNL     1      25.620   0.413  53.053  1.00  0.00    -0.346 OA
BRANCH  24  25
HETATM   25  C3  UNL     1      26.213  -0.825  52.908  1.00  0.00     0.201 C 
BRANCH  25  26
HETATM   26  C2  UNL     1      27.672  -0.918  53.190  1.00  0.00     0.193 C 
BRANCH  26  27
HETATM   27  O1  UNL     1      28.019  -0.635  54.522  1.00  0.00    -0.394 OA
HETATM   28  C1  UNL     1      28.786   0.492  54.672  1.00  0.00     0.201 C 
ENDBRANCH  26  27
ENDBRANCH  25  26
ENDBRANCH  24  25
ENDBRANCH   1  24
TORSDOF 9
ENDMDL
MODEL 9
REMARK VINA RESULT:      -6.0      3.651      5.873
REMARK  9 active torsions:
REMARK  status: ('A' for Active; 'I' for Inactive)
REMARK    1  A    between atoms: O1_2  and  C2_3 
REMARK    2  A    between atoms: C2_3  and  C3_4 
REMARK    3  A    between atoms: C3_4  and  O2_5 
REMARK    4  A    between atoms: O2_5  and  C4_6 
REMARK    5  A    between atoms: C8_12  and  N3_13 
REMARK    6  A    between atoms: C18_23  and  O3_24 
REMARK    7  A    between atoms: O3_24  and  C19_25 
REMARK    8  A    between atoms: C19_25  and  C20_26 
REMARK    9  A    between atoms: C20_26  and  O4_27 
ROOT
HETATM    1  C4  UNL     1      25.960   3.499  50.373  1.00  0.00     0.104 A 
HETATM    2  C5  UNL     1      26.612   2.456  50.994  1.00  0.00     0.072 A 
HETATM    3  C6  UNL     1      26.047   1.452  51.709  1.00  0.00     0.075 A 
HETATM    4  N1  UNL     1      26.819   0.504  52.257  1.00  0.00    -0.241 NA
HETATM    5  C7  UNL     1      26.225  -0.483  52.964  1.00  0.00     0.236 A 
HETATM    6  N2  UNL     1      24.872  -0.492  53.104  1.00  0.00    -0.223 NA
HETATM    7  C8  UNL     1      24.077   0.457  52.558  1.00  0.00     0.147 A 
HETATM    8  C16 UNL     1      24.677   1.469  51.833  1.00  0.00     0.042 A 
HETATM    9  C17 UNL     1      23.932   2.475  51.245  1.00  0.00     0.057 A 
HETATM   10  C18 UNL     1      24.566   3.489  50.517  1.00  0.00     0.103 A 
ENDROOT
BRANCH   7  11
HETATM   11  N3  UNL     1      22.660   0.426  52.718  1.00  0.00    -0.317 N 
HETATM   12  C9  UNL     1      22.098   0.270  54.016  1.00  0.00     0.098 C 
HETATM   13  C10 UNL     1      20.828   0.017  54.289  1.00  0.00     0.018 C 
HETATM   14  C11 UNL     1      19.653  -0.177  53.447  1.00  0.00     0.008 C 
HETATM   15  C12 UNL     1      19.608  -0.019  52.140  1.00  0.00    -0.061 C 
HETATM   16  C13 UNL     1      18.283  -0.278  51.501  1.00  0.00     0.048 C 
HETATM   17  C14 UNL     1      20.692   0.378  51.220  1.00  0.00     0.024 C 
HETATM   18  C15 UNL     1      21.987   0.566  51.466  1.00  0.00     0.098 C 
ENDBRANCH   7  11
BRANCH  10  19
HETATM   19  O3  UNL     1      23.732   4.452  49.966  1.00  0.00    -0.346 OA
BRANCH  19  20
HETATM   20  C19 UNL     1      23.102   5.384  50.803  1.00  0.00     0.201 C 
BRANCH  20  21
HETATM   21  C20 UNL     1      21.892   6.017  50.150  1.00  0.00     0.193 C 
BRANCH  21  22
HETATM   22  O4  UNL     1      21.510   7.111  50.890  1.00  0.00    -0.394 OA
HETATM   23  C21 UNL     1      20.817   8.068  50.174  1.00  0.00     0.201 C 
ENDBRANCH  21  22
ENDBRANCH  20  21
ENDBRANCH  19  20
ENDBRANCH  10  19
BRANCH   1  24
HETATM   24  O2  UNL     1      26.391   4.550  49.641  1.00  0.00    -0.346 OA
BRANCH  24  25
HETATM   25  C3  UNL     1      27.460   4.702  48.781  1.00  0.00     0.201 C 
BRANCH  25  26
HETATM   26  C2  UNL     1      27.799   6.087  48.353  1.00  0.00     0.193 C 
BRANCH  26  27
HETATM   27  O1  UNL     1      27.087   7.089  49.034  1.00  0.00    -0.394 OA
HETATM   28  C1  UNL     1      27.739   8.294  49.097  1.00  0.00     0.201 C 
ENDBRANCH  26  27
ENDBRANCH  25  26
ENDBRANCH  24  25
ENDBRANCH   1  24
TORSDOF 9
ENDMDL
