MODEL 1
REMARK VINA RESULT:      -7.6      0.000      0.000
REMARK  6 active torsions:
REMARK  status: ('A' for Active; 'I' for Inactive)
REMARK    1  A    between atoms: C2_2  and  O1_3 
REMARK    2  A    between atoms: O1_3  and  C3_4 
REMARK    3  A    between atoms: C7_10  and  N3_11 
REMARK    4  A    between atoms: N3_11  and  C8_12 
REMARK    5  A    between atoms: C9_13  and  C10_14 
REMARK    6  A    between atoms: C11_15  and  C12_17 
ROOT
HETATM    1  C3  UNL     1      26.802   0.863  54.006  1.00  0.00     0.107 A 
HETATM    2  C4  UNL     1      26.761   1.806  53.012  1.00  0.00     0.072 A 
HETATM    3  C5  UNL     1      25.652   1.994  52.210  1.00  0.00     0.077 A 
HETATM    4  N1  UNL     1      25.579   2.910  51.227  1.00  0.00    -0.241 NA
HETATM    5  C6  UNL     1      24.472   3.049  50.477  1.00  0.00     0.236 A 
HETATM    6  N2  UNL     1      23.410   2.257  50.713  1.00  0.00    -0.223 NA
HETATM    7  C7  UNL     1      23.452   1.323  51.699  1.00  0.00     0.144 A 
HETATM    8  C13 UNL     1      24.583   1.168  52.477  1.00  0.00     0.075 A 
HETATM    9  C14 UNL     1      24.570   0.217  53.451  1.00  0.00     0.121 A 
HETATM   10  C15 UNL     1      25.718   0.063  54.236  1.00  0.00     0.136 A 
HETATM   11  O2  UNL     1      25.646  -0.918  55.208  1.00  0.00    -0.344 OA
HETATM   12  C16 UNL     1      24.449  -1.336  55.816  1.00  0.00     0.202 C 
HETATM   13  C17 UNL     1      23.216  -1.042  55.036  1.00  0.00     0.202 C 
HETATM   14  O3  UNL     1      23.461  -0.614  53.701  1.00  0.00    -0.345 OA
ENDROOT
BRANCH   7  15
HETATM   15  N3  UNL     1      22.277   0.537  51.864  1.00  0.00    -0.350 N 
HETATM   16  H8  UNL     1      22.176  -0.157  52.663  1.00  0.00     0.166 HD
BRANCH  15  17
HETATM   17  C8  UNL     1      21.129   0.566  51.028  1.00  0.00     0.090 C 
HETATM   18  C9  UNL     1      20.033   0.164  51.646  1.00  0.00     0.020 C 
BRANCH  18  19
HETATM   19  C10 UNL     1      18.635   0.006  51.260  1.00  0.00     0.040 C 
HETATM   20  C11 UNL     1      17.474  -0.451  51.692  1.00  0.00     0.107 C 
HETATM   21  F1  UNL     1      16.366  -0.358  50.885  1.00  0.00    -0.210 F 
BRANCH  20  22
HETATM   22  C12 UNL     1      16.997  -1.097  52.934  1.00  0.00     0.184 C 
HETATM   23 CL1  UNL     1      18.113  -2.308  53.579  1.00  0.00    -0.123 Cl
ENDBRANCH  20  22
ENDBRANCH  18  19
ENDBRANCH  15  17
ENDBRANCH   7  15
BRANCH   1  24
HETATM   24  O1  UNL     1      27.926   0.701  54.788  1.00  0.00    -0.348 OA
BRANCH  24  25
HETATM   25  C2  UNL     1      29.206   0.720  54.199  1.00  0.00     0.171 C 
HETATM   26  C1  UNL     1      29.621  -0.644  53.715  1.00  0.00     0.034 C 
ENDBRANCH  24  25
ENDBRANCH   1  24
TORSDOF 6
ENDMDL
MODEL 2
REMARK VINA RESULT:      -7.2      1.579      3.174
REMARK  6 active torsions:
REMARK  status: ('A' for Active; 'I' for Inactive)
REMARK    1  A    between atoms: C2_2  and  O1_3 
REMARK    2  A    between atoms: O1_3  and  C3_4 
REMARK    3  A    between atoms: C7_10  and  N3_11 
REMARK    4  A    between atoms: N3_11  and  C8_12 
REMARK    5  A    between atoms: C9_13  and  C10_14 
REMARK    6  A    between atoms: C11_15  and  C12_17 
ROOT
HETATM    1  C3  UNL     1      26.864   0.810  53.777  1.00  0.00     0.107 A 
HETATM    2  C4  UNL     1      26.222  -0.111  54.564  1.00  0.00     0.072 A 
HETATM    3  C5  UNL     1      24.862  -0.337  54.487  1.00  0.00     0.077 A 
HETATM    4  N1  UNL     1      24.203  -1.233  55.245  1.00  0.00    -0.241 NA
HETATM    5  C6  UNL     1      22.876  -1.411  55.126  1.00  0.00     0.236 A 
HETATM    6  N2  UNL     1      22.187  -0.679  54.230  1.00  0.00    -0.223 NA
HETATM    7  C7  UNL     1      22.824   0.233  53.451  1.00  0.00     0.144 A 
HETATM    8  C13 UNL     1      24.187   0.427  53.561  1.00  0.00     0.075 A 
HETATM    9  C14 UNL     1      24.774   1.354  52.755  1.00  0.00     0.121 A 
HETATM   10  C15 UNL     1      26.154   1.548  52.871  1.00  0.00     0.136 A 
HETATM   11  O2  UNL     1      26.694   2.502  52.027  1.00  0.00    -0.344 OA
HETATM   12  C16 UNL     1      26.148   2.845  50.777  1.00  0.00     0.202 C 
HETATM   13  C17 UNL     1      24.709   2.507  50.611  1.00  0.00     0.202 C 
HETATM   14  O3  UNL     1      24.058   2.122  51.816  1.00  0.00    -0.345 OA
ENDROOT
BRANCH   7  15
HETATM   15  N3  UNL     1      22.004   0.954  52.538  1.00  0.00    -0.350 N 
HETATM   16  H8  UNL     1      22.419   1.506  51.729  1.00  0.00     0.166 HD
BRANCH  15  17
HETATM   17  C8  UNL     1      20.587   1.035  52.574  1.00  0.00     0.090 C 
HETATM   18  C9  UNL     1      20.006   0.324  51.625  1.00  0.00     0.020 C 
BRANCH  18  19
HETATM   19  C10 UNL     1      18.625   0.071  51.229  1.00  0.00     0.040 C 
HETATM   20  C11 UNL     1      17.487  -0.439  51.664  1.00  0.00     0.107 C 
HETATM   21  F1  UNL     1      16.387  -0.439  50.843  1.00  0.00    -0.210 F 
BRANCH  20  22
HETATM   22  C12 UNL     1      17.034  -1.072  52.922  1.00  0.00     0.184 C 
HETATM   23 CL1  UNL     1      18.218  -2.180  53.628  1.00  0.00    -0.123 Cl
ENDBRANCH  20  22
ENDBRANCH  18  19
ENDBRANCH  15  17
ENDBRANCH   7  15
BRANCH   1  24
HETATM   24  O1  UNL     1      28.224   1.011  53.880  1.00  0.00    -0.348 OA
BRANCH  24  25
HETATM   25  C2  UNL     1      29.040   0.031  54.477  1.00  0.00     0.171 C 
HETATM   26  C1  UNL     1      29.775  -0.790  53.451  1.00  0.00     0.034 C 
ENDBRANCH  24  25
ENDBRANCH   1  24
TORSDOF 6
ENDMDL
MODEL 3
REMARK VINA RESULT:      -7.1      3.778      4.730
REMARK  6 active torsions:
REMARK  status: ('A' for Active; 'I' for Inactive)
REMARK    1  A    between atoms: C2_2  and  O1_3 
REMARK    2  A    between atoms: O1_3  and  C3_4 
REMARK    3  A    between atoms: C7_10  and  N3_11 
REMARK    4  A    between atoms: N3_11  and  C8_12 
REMARK    5  A    between atoms: C9_13  and  C10_14 
REMARK    6  A    between atoms: C11_15  and  C12_17 
ROOT
HETATM    1  C3  UNL     1      26.580   0.263  53.290  1.00  0.00     0.107 A 
HETATM    2  C4  UNL     1      27.179   1.212  52.502  1.00  0.00     0.072 A 
HETATM    3  C5  UNL     1      26.467   2.015  51.634  1.00  0.00     0.077 A 
HETATM    4  N1  UNL     1      27.024   2.954  50.847  1.00  0.00    -0.241 NA
HETATM    5  C6  UNL     1      26.280   3.709  50.019  1.00  0.00     0.236 A 
HETATM    6  N2  UNL     1      24.948   3.523  49.974  1.00  0.00    -0.223 NA
HETATM    7  C7  UNL     1      24.356   2.583  50.756  1.00  0.00     0.144 A 
HETATM    8  C13 UNL     1      25.107   1.801  51.611  1.00  0.00     0.075 A 
HETATM    9  C14 UNL     1      24.461   0.874  52.371  1.00  0.00     0.121 A 
HETATM   10  C15 UNL     1      25.227   0.084  53.235  1.00  0.00     0.136 A 
HETATM   11  O2  UNL     1      24.517  -0.840  53.982  1.00  0.00    -0.344 OA
HETATM   12  C16 UNL     1      23.171  -0.678  54.357  1.00  0.00     0.202 C 
HETATM   13  C17 UNL     1      22.398   0.274  53.516  1.00  0.00     0.202 C 
HETATM   14  O3  UNL     1      23.068   0.677  52.327  1.00  0.00    -0.345 OA
ENDROOT
BRANCH   7  15
HETATM   15  N3  UNL     1      22.943   2.468  50.630  1.00  0.00    -0.350 N 
HETATM   16  H8  UNL     1      22.435   1.557  50.835  1.00  0.00     0.166 HD
BRANCH  15  17
HETATM   17  C8  UNL     1      22.053   3.502  50.233  1.00  0.00     0.090 C 
HETATM   18  C9  UNL     1      22.175   4.595  50.964  1.00  0.00     0.020 C 
BRANCH  18  19
HETATM   19  C10 UNL     1      21.525   5.900  50.976  1.00  0.00     0.040 C 
HETATM   20  C11 UNL     1      21.725   7.174  50.686  1.00  0.00     0.107 C 
HETATM   21  F1  UNL     1      20.717   8.083  50.895  1.00  0.00    -0.210 F 
BRANCH  20  22
HETATM   22  C12 UNL     1      22.853   7.961  50.141  1.00  0.00     0.184 C 
HETATM   23 CL1  UNL     1      24.422   7.531  50.835  1.00  0.00    -0.123 Cl
ENDBRANCH  20  22
ENDBRANCH  18  19
ENDBRANCH  15  17
ENDBRANCH   7  15
BRANCH   1  24
HETATM   24  O1  UNL     1      27.322  -0.523  54.147  1.00  0.00    -0.348 OA
BRANCH  24  25
HETATM   25  C2  UNL     1      28.626  -0.135  54.511  1.00  0.00     0.171 C 
HETATM   26  C1  UNL     1      29.673  -0.943  53.792  1.00  0.00     0.034 C 
ENDBRANCH  24  25
ENDBRANCH   1  24
TORSDOF 6
ENDMDL
MODEL 4
REMARK VINA RESULT:      -7.0      1.824      2.046
REMARK  6 active torsions:
REMARK  status: ('A' for Active; 'I' for Inactive)
REMARK    1  A    between atoms: C2_2  and  O1_3 
REMARK    2  A    between atoms: O1_3  and  C3_4 
REMARK    3  A    between atoms: C7_10  and  N3_11 
REMARK    4  A    between atoms: N3_11  and  C8_12 
REMARK    5  A    between atoms: C9_13  and  C10_14 
REMARK    6  A    between atoms: C11_15  and  C12_17 
ROOT
HETATM    1  C3  UNL     1      26.658   0.314  54.045  1.00  0.00     0.107 A 
HETATM    2  C4  UNL     1      26.813   1.268  53.073  1.00  0.00     0.072 A 
HETATM    3  C5  UNL     1      25.785   1.650  52.234  1.00  0.00     0.077 A 
HETATM    4  N1  UNL     1      25.905   2.583  51.271  1.00  0.00    -0.241 NA
HETATM    5  C6  UNL     1      24.868   2.915  50.482  1.00  0.00     0.236 A 
HETATM    6  N2  UNL     1      23.682   2.304  50.657  1.00  0.00    -0.223 NA
HETATM    7  C7  UNL     1      23.530   1.358  51.620  1.00  0.00     0.144 A 
HETATM    8  C13 UNL     1      24.585   1.006  52.438  1.00  0.00     0.075 A 
HETATM    9  C14 UNL     1      24.376   0.053  53.387  1.00  0.00     0.121 A 
HETATM   10  C15 UNL     1      25.449  -0.300  54.213  1.00  0.00     0.136 A 
HETATM   11  O2  UNL     1      25.176  -1.274  55.157  1.00  0.00    -0.344 OA
HETATM   12  C16 UNL     1      23.902  -1.500  55.708  1.00  0.00     0.202 C 
HETATM   13  C17 UNL     1      22.769  -0.995  54.887  1.00  0.00     0.202 C 
HETATM   14  O3  UNL     1      23.137  -0.589  53.574  1.00  0.00    -0.345 OA
ENDROOT
BRANCH   7  15
HETATM   15  N3  UNL     1      22.236   0.774  51.720  1.00  0.00    -0.350 N 
HETATM   16  H8  UNL     1      22.099  -0.232  52.035  1.00  0.00     0.166 HD
BRANCH  15  17
HETATM   17  C8  UNL     1      21.004   1.417  51.428  1.00  0.00     0.090 C 
HETATM   18  C9  UNL     1      20.120   0.608  50.872  1.00  0.00     0.020 C 
BRANCH  18  19
HETATM   19  C10 UNL     1      18.751   0.756  50.392  1.00  0.00     0.040 C 
HETATM   20  C11 UNL     1      17.952   1.582  49.741  1.00  0.00     0.107 C 
HETATM   21  F1  UNL     1      16.641   1.232  49.529  1.00  0.00    -0.210 F 
BRANCH  20  22
HETATM   22  C12 UNL     1      18.105   2.914  49.115  1.00  0.00     0.184 C 
HETATM   23 CL1  UNL     1      18.769   4.140  50.204  1.00  0.00    -0.123 Cl
ENDBRANCH  20  22
ENDBRANCH  18  19
ENDBRANCH  15  17
ENDBRANCH   7  15
BRANCH   1  24
HETATM   24  O1  UNL     1      27.706  -0.044  54.866  1.00  0.00    -0.348 OA
BRANCH  24  25
HETATM   25  C2  UNL     1      29.029   0.269  54.500  1.00  0.00     0.171 C 
HETATM   26  C1  UNL     1      29.716  -0.892  53.832  1.00  0.00     0.034 C 
ENDBRANCH  24  25
ENDBRANCH   1  24
TORSDOF 6
ENDMDL
MODEL 5
REMARK VINA RESULT:      -6.9      2.588      4.119
REMARK  6 active torsions:
REMARK  status: ('A' for Active; 'I' for Inactive)
REMARK    1  A    between atoms: C2_2  and  O1_3 
REMARK    2  A    between atoms: O1_3  and  C3_4 
REMARK    3  A    between atoms: C7_10  and  N3_11 
REMARK    4  A    between atoms: N3_11  and  C8_12 
REMARK    5  A    between atoms: C9_13  and  C10_14 
REMARK    6  A    between atoms: C11_15  and  C12_17 
ROOT
HETATM    1  C3  UNL     1      26.227   2.839  51.076  1.00  0.00     0.107 A 
HETATM    2  C4  UNL     1      26.595   1.628  51.603  1.00  0.00     0.072 A 
HETATM    3  C5  UNL     1      25.723   0.833  52.321  1.00  0.00     0.077 A 
HETATM    4  N1  UNL     1      26.052  -0.360  52.850  1.00  0.00    -0.241 NA
HETATM    5  C6  UNL     1      25.161  -1.091  53.542  1.00  0.00     0.236 A 
HETATM    6  N2  UNL     1      23.911  -0.623  53.710  1.00  0.00    -0.223 NA
HETATM    7  C7  UNL     1      23.548   0.577  53.188  1.00  0.00     0.144 A 
HETATM    8  C13 UNL     1      24.452   1.340  52.476  1.00  0.00     0.075 A 
HETATM    9  C14 UNL     1      24.034   2.535  51.975  1.00  0.00     0.121 A 
HETATM   10  C15 UNL     1      24.955   3.304  51.255  1.00  0.00     0.136 A 
HETATM   11  O2  UNL     1      24.474   4.508  50.771  1.00  0.00    -0.344 OA
HETATM   12  C16 UNL     1      23.124   4.744  50.455  1.00  0.00     0.202 C 
HETATM   13  C17 UNL     1      22.157   3.829  51.119  1.00  0.00     0.202 C 
HETATM   14  O3  UNL     1      22.727   3.029  52.148  1.00  0.00    -0.345 OA
ENDROOT
BRANCH   7  15
HETATM   15  N3  UNL     1      22.203   0.979  53.425  1.00  0.00    -0.350 N 
HETATM   16  H8  UNL     1      21.964   1.952  53.779  1.00  0.00     0.166 HD
BRANCH  15  17
HETATM   17  C8  UNL     1      21.046   0.178  53.232  1.00  0.00     0.090 C 
HETATM   18  C9  UNL     1      20.297   0.590  52.226  1.00  0.00     0.020 C 
BRANCH  18  19
HETATM   19  C10 UNL     1      19.047   0.140  51.624  1.00  0.00     0.040 C 
HETATM   20  C11 UNL     1      17.934  -0.521  51.890  1.00  0.00     0.107 C 
HETATM   21  F1  UNL     1      16.992  -0.687  50.904  1.00  0.00    -0.210 F 
BRANCH  20  22
HETATM   22  C12 UNL     1      17.372  -1.193  53.082  1.00  0.00     0.184 C 
HETATM   23 CL1  UNL     1      18.484  -2.339  53.843  1.00  0.00    -0.123 Cl
ENDBRANCH  20  22
ENDBRANCH  18  19
ENDBRANCH  15  17
ENDBRANCH   7  15
BRANCH   1  24
HETATM   24  O1  UNL     1      27.123   3.607  50.364  1.00  0.00    -0.348 OA
BRANCH  24  25
HETATM   25  C2  UNL     1      26.830   3.989  49.040  1.00  0.00     0.171 C 
HETATM   26  C1  UNL     1      27.681   5.145  48.587  1.00  0.00     0.034 C 
ENDBRANCH  24  25
ENDBRANCH   1  24
TORSDOF 6
ENDMDL
MODEL 6
REMARK VINA RESULT:      -6.9      2.449      3.725
REMARK  6 active torsions:
REMARK  status: ('A' for Active; 'I' for Inactive)
REMARK    1  A    between atoms: C2_2  and  O1_3 
REMARK    2  A    between atoms: O1_3  and  C3_4 
REMARK    3  A    between atoms: C7_10  and  N3_11 
REMARK    4  A    between atoms: N3_11  and  C8_12 
REMARK    5  A    between atoms: C9_13  and  C10_14 
REMARK    6  A    between atoms: C11_15  and  C12_17 
ROOT
HETATM    1  C3  UNL     1      26.562   0.319  52.708  1.00  0.00     0.107 A 
HETATM    2  C4  UNL     1      25.651  -0.433  53.403  1.00  0.00     0.072 A 
HETATM    3  C5  UNL     1      24.315  -0.095  53.485  1.00  0.00     0.077 A 
HETATM    4  N1  UNL     1      23.396  -0.812  54.160  1.00  0.00    -0.241 NA
HETATM    5  C6  UNL     1      22.107  -0.434  54.206  1.00  0.00     0.236 A 
HETATM    6  N2  UNL     1      21.722   0.685  53.564  1.00  0.00    -0.223 NA
HETATM    7  C7  UNL     1      22.626   1.429  52.875  1.00  0.00     0.144 A 
HETATM    8  C13 UNL     1      23.954   1.054  52.818  1.00  0.00     0.075 A 
HETATM    9  C14 UNL     1      24.816   1.837  52.113  1.00  0.00     0.121 A 
HETATM   10  C15 UNL     1      26.160   1.453  52.060  1.00  0.00     0.136 A 
HETATM   11  O2  UNL     1      26.988   2.287  51.330  1.00  0.00    -0.344 OA
HETATM   12  C16 UNL     1      26.552   3.081  50.254  1.00  0.00     0.202 C 
HETATM   13  C17 UNL     1      25.092   3.369  50.241  1.00  0.00     0.202 C 
HETATM   14  O3  UNL     1      24.418   3.008  51.440  1.00  0.00    -0.345 OA
ENDROOT
BRANCH   7  15
HETATM   15  N3  UNL     1      22.115   2.592  52.233  1.00  0.00    -0.350 N 
HETATM   16  H8  UNL     1      22.577   3.543  52.347  1.00  0.00     0.166 HD
BRANCH  15  17
HETATM   17  C8  UNL     1      20.972   2.648  51.392  1.00  0.00     0.090 C 
HETATM   18  C9  UNL     1      19.959   3.291  51.944  1.00  0.00     0.020 C 
BRANCH  18  19
HETATM   19  C10 UNL     1      18.602   3.622  51.524  1.00  0.00     0.040 C 
HETATM   20  C11 UNL     1      17.422   3.084  51.271  1.00  0.00     0.107 C 
HETATM   21  F1  UNL     1      16.381   3.888  50.875  1.00  0.00    -0.210 F 
BRANCH  20  22
HETATM   22  C12 UNL     1      16.865   1.713  51.304  1.00  0.00     0.184 C 
HETATM   23 CL1  UNL     1      17.871   0.517  50.477  1.00  0.00    -0.123 Cl
ENDBRANCH  20  22
ENDBRANCH  18  19
ENDBRANCH  15  17
ENDBRANCH   7  15
BRANCH   1  24
HETATM   24  O1  UNL     1      27.890  -0.047  52.646  1.00  0.00    -0.348 OA
BRANCH  24  25
HETATM   25  C2  UNL     1      28.657  -0.125  53.825  1.00  0.00     0.171 C 
HETATM   26  C1  UNL     1      29.887  -0.973  53.639  1.00  0.00     0.034 C 
ENDBRANCH  24  25
ENDBRANCH   1  24
TORSDOF 6
ENDMDL
MODEL 7
REMARK VINA RESULT:      -6.9      3.895      5.482
REMARK  6 active torsions:
REMARK  status: ('A' for Active; 'I' for Inactive)
REMARK    1  A    between atoms: C2_2  and  O1_3 
REMARK    2  A    between atoms: O1_3  and  C3_4 
REMARK    3  A    between atoms: C7_10  and  N3_11 
REMARK    4  A    between atoms: N3_11  and  C8_12 
REMARK    5  A    between atoms: C9_13  and  C10_14 
REMARK    6  A    between atoms: C11_15  and  C12_17 
ROOT
HETATM    1  C3  UNL     1      26.654   0.625  52.659  1.00  0.00     0.107 A 
HETATM    2  C4  UNL     1      25.741  -0.160  53.314  1.00  0.00     0.072 A 
HETATM    3  C5  UNL     1      24.378   0.031  53.200  1.00  0.00     0.077 A 
HETATM    4  N1  UNL     1      23.456  -0.721  53.829  1.00  0.00    -0.241 NA
HETATM    5  C6  UNL     1      22.140  -0.489  53.680  1.00  0.00     0.236 A 
HETATM    6  N2  UNL     1      21.732   0.517  52.885  1.00  0.00    -0.223 NA
HETATM    7  C7  UNL     1      22.638   1.293  52.236  1.00  0.00     0.144 A 
HETATM    8  C13 UNL     1      23.993   1.068  52.379  1.00  0.00     0.075 A 
HETATM    9  C14 UNL     1      24.856   1.877  51.705  1.00  0.00     0.121 A 
HETATM   10  C15 UNL     1      26.228   1.644  51.855  1.00  0.00     0.136 A 
HETATM   11  O2  UNL     1      27.056   2.498  51.147  1.00  0.00    -0.344 OA
HETATM   12  C16 UNL     1      26.686   3.137  49.950  1.00  0.00     0.202 C 
HETATM   13  C17 UNL     1      25.220   3.256  49.732  1.00  0.00     0.202 C 
HETATM   14  O3  UNL     1      24.434   2.930  50.872  1.00  0.00    -0.345 OA
ENDROOT
BRANCH   7  15
HETATM   15  N3  UNL     1      22.101   2.329  51.421  1.00  0.00    -0.350 N 
HETATM   16  H8  UNL     1      22.067   2.247  50.362  1.00  0.00     0.166 HD
BRANCH  15  17
HETATM   17  C8  UNL     1      21.562   3.560  51.882  1.00  0.00     0.090 C 
HETATM   18  C9  UNL     1      21.602   4.513  50.969  1.00  0.00     0.020 C 
BRANCH  18  19
HETATM   19  C10 UNL     1      21.193   5.913  50.927  1.00  0.00     0.040 C 
HETATM   20  C11 UNL     1      21.662   7.137  50.764  1.00  0.00     0.107 C 
HETATM   21  F1  UNL     1      20.800   8.205  50.815  1.00  0.00    -0.210 F 
BRANCH  20  22
HETATM   22  C12 UNL     1      22.997   7.725  50.515  1.00  0.00     0.184 C 
HETATM   23 CL1  UNL     1      24.331   6.758  51.158  1.00  0.00    -0.123 Cl
ENDBRANCH  20  22
ENDBRANCH  18  19
ENDBRANCH  15  17
ENDBRANCH   7  15
BRANCH   1  24
HETATM   24  O1  UNL     1      28.008   0.407  52.796  1.00  0.00    -0.348 OA
BRANCH  24  25
HETATM   25  C2  UNL     1      28.522  -0.119  53.997  1.00  0.00     0.171 C 
HETATM   26  C1  UNL     1      29.787  -0.904  53.771  1.00  0.00     0.034 C 
ENDBRANCH  24  25
ENDBRANCH   1  24
TORSDOF 6
ENDMDL
MODEL 8
REMARK VINA RESULT:      -6.8      3.207      4.441
REMARK  6 active torsions:
REMARK  status: ('A' for Active; 'I' for Inactive)
REMARK    1  A    between atoms: C2_2  and  O1_3 
REMARK    2  A    between atoms: O1_3  and  C3_4 
REMARK    3  A    between atoms: C7_10  and  N3_11 
REMARK    4  A    between atoms: N3_11  and  C8_12 
REMARK    5  A    between atoms: C9_13  and  C10_14 
REMARK    6  A    between atoms: C11_15  and  C12_17 
ROOT
HETATM    1  C3  UNL     1      26.342   0.027  52.729  1.00  0.00     0.107 A 
HETATM    2  C4  UNL     1      25.395  -0.700  53.403  1.00  0.00     0.072 A 
HETATM    3  C5  UNL     1      24.080  -0.294  53.509  1.00  0.00     0.077 A 
HETATM    4  N1  UNL     1      23.128  -0.984  54.164  1.00  0.00    -0.241 NA
HETATM    5  C6  UNL     1      21.861  -0.539  54.234  1.00  0.00     0.236 A 
HETATM    6  N2  UNL     1      21.534   0.623  53.639  1.00  0.00    -0.223 NA
HETATM    7  C7  UNL     1      22.473   1.343  52.971  1.00  0.00     0.144 A 
HETATM    8  C13 UNL     1      23.778   0.898  52.890  1.00  0.00     0.075 A 
HETATM    9  C14 UNL     1      24.677   1.660  52.208  1.00  0.00     0.121 A 
HETATM   10  C15 UNL     1      25.998   1.206  52.129  1.00  0.00     0.136 A 
HETATM   11  O2  UNL     1      26.866   2.021  51.424  1.00  0.00    -0.344 OA
HETATM   12  C16 UNL     1      26.467   2.878  50.382  1.00  0.00     0.202 C 
HETATM   13  C17 UNL     1      25.025   3.245  50.392  1.00  0.00     0.202 C 
HETATM   14  O3  UNL     1      24.340   2.876  51.583  1.00  0.00    -0.345 OA
ENDROOT
BRANCH   7  15
HETATM   15  N3  UNL     1      22.023   2.556  52.379  1.00  0.00    -0.350 N 
HETATM   16  H8  UNL     1      22.626   3.431  52.368  1.00  0.00     0.166 HD
BRANCH  15  17
HETATM   17  C8  UNL     1      20.766   2.762  51.750  1.00  0.00     0.090 C 
HETATM   18  C9  UNL     1      20.808   2.571  50.443  1.00  0.00     0.020 C 
BRANCH  18  19
HETATM   19  C10 UNL     1      19.832   2.649  49.362  1.00  0.00     0.040 C 
HETATM   20  C11 UNL     1      19.711   2.931  48.077  1.00  0.00     0.107 C 
HETATM   21  F1  UNL     1      18.478   2.849  47.478  1.00  0.00    -0.210 F 
BRANCH  20  22
HETATM   22  C12 UNL     1      20.639   3.349  47.003  1.00  0.00     0.184 C 
HETATM   23 CL1  UNL     1      22.274   2.699  47.182  1.00  0.00    -0.123 Cl
ENDBRANCH  20  22
ENDBRANCH  18  19
ENDBRANCH  15  17
ENDBRANCH   7  15
BRANCH   1  24
HETATM   24  O1  UNL     1      27.647  -0.408  52.642  1.00  0.00    -0.348 OA
BRANCH  24  25
HETATM   25  C2  UNL     1      28.483  -0.363  53.775  1.00  0.00     0.171 C 
HETATM   26  C1  UNL     1      29.840  -0.951  53.494  1.00  0.00     0.034 C 
ENDBRANCH  24  25
ENDBRANCH   1  24
TORSDOF 6
ENDMDL
MODEL 9
REMARK VINA RESULT:      -6.8      5.551      8.180
REMARK  6 active torsions:
REMARK  status: ('A' for Active; 'I' for Inactive)
REMARK    1  A    between atoms: C2_2  and  O1_3 
REMARK    2  A    between atoms: O1_3  and  C3_4 
REMARK    3  A    between atoms: C7_10  and  N3_11 
REMARK    4  A    between atoms: N3_11  and  C8_12 
REMARK    5  A    between atoms: C9_13  and  C10_14 
REMARK    6  A    between atoms: C11_15  and  C12_17 
ROOT
HETATM    1  C3  UNL     1      23.334   0.799  52.837  1.00  0.00     0.107 A 
HETATM    2  C4  UNL     1      22.524   1.143  51.785  1.00  0.00     0.072 A 
HETATM    3  C5  UNL     1      22.955   1.943  50.745  1.00  0.00     0.077 A 
HETATM    4  N1  UNL     1      22.185   2.300  49.700  1.00  0.00    -0.241 NA
HETATM    5  C6  UNL     1      22.659   3.082  48.715  1.00  0.00     0.236 A 
HETATM    6  N2  UNL     1      23.930   3.521  48.771  1.00  0.00    -0.223 NA
HETATM    7  C7  UNL     1      24.731   3.179  49.813  1.00  0.00     0.144 A 
HETATM    8  C13 UNL     1      24.259   2.376  50.833  1.00  0.00     0.075 A 
HETATM    9  C14 UNL     1      25.106   2.064  51.853  1.00  0.00     0.121 A 
HETATM   10  C15 UNL     1      24.622   1.251  52.884  1.00  0.00     0.136 A 
HETATM   11  O2  UNL     1      25.527   0.968  53.892  1.00  0.00    -0.344 OA
HETATM   12  C16 UNL     1      26.921   0.932  53.709  1.00  0.00     0.202 C 
HETATM   13  C17 UNL     1      27.416   1.687  52.526  1.00  0.00     0.202 C 
HETATM   14  O3  UNL     1      26.436   2.520  51.916  1.00  0.00    -0.345 OA
ENDROOT
BRANCH   7  15
HETATM   15  N3  UNL     1      26.057   3.696  49.777  1.00  0.00    -0.350 N 
HETATM   16  H8  UNL     1      26.880   3.153  50.173  1.00  0.00     0.166 HD
BRANCH  15  17
HETATM   17  C8  UNL     1      26.449   4.949  49.235  1.00  0.00     0.090 C 
HETATM   18  C9  UNL     1      27.666   4.928  48.722  1.00  0.00     0.020 C 
BRANCH  18  19
HETATM   19  C10 UNL     1      28.520   5.911  48.065  1.00  0.00     0.040 C 
HETATM   20  C11 UNL     1      29.737   6.426  48.089  1.00  0.00     0.107 C 
HETATM   21  F1  UNL     1      30.076   7.406  47.189  1.00  0.00    -0.210 F 
BRANCH  20  22
HETATM   22  C12 UNL     1      30.952   6.209  48.905  1.00  0.00     0.184 C 
HETATM   23 CL1  UNL     1      31.686   7.703  49.500  1.00  0.00    -0.123 Cl
ENDBRANCH  20  22
ENDBRANCH  18  19
ENDBRANCH  15  17
ENDBRANCH   7  15
BRANCH   1  24
HETATM   24  O1  UNL     1      22.871  -0.002  53.859  1.00  0.00    -0.348 OA
BRANCH  24  25
HETATM   25  C2  UNL     1      21.559  -0.513  53.818  1.00  0.00     0.171 C 
HETATM   26  C1  UNL     1      21.430  -1.791  54.603  1.00  0.00     0.034 C 
ENDBRANCH  24  25
ENDBRANCH   1  24
TORSDOF 6
ENDMDL
