MODEL 1
REMARK VINA RESULT:      -8.5      0.000      0.000
REMARK  7 active torsions:
REMARK  status: ('A' for Active; 'I' for Inactive)
REMARK    1  A    between atoms: C2_2  and  C3_3 
REMARK    2  A    between atoms: C4_4  and  N1_5 
REMARK    3  A    between atoms: N1_5  and  C5_6 
REMARK    4  A    between atoms: N4_16  and  C13_17 
REMARK    5  A    between atoms: C13_17  and  C14_18 
REMARK    6  A    between atoms: C14_18  and  C15_19 
REMARK    7  A    between atoms: C15_19  and  N5_20 
ROOT
HETATM    1  C5  UNL     1      24.318   4.690  51.025  1.00  0.00     0.141 A 
HETATM    2  N2  UNL     1      23.891   5.907  50.661  1.00  0.00    -0.224 NA
HETATM    3  C6  UNL     1      22.637   6.346  50.809  1.00  0.00     0.236 A 
HETATM    4  N3  UNL     1      21.794   5.472  51.359  1.00  0.00    -0.241 NA
HETATM    5  C7  UNL     1      22.084   4.229  51.765  1.00  0.00     0.075 A 
HETATM    6  C8  UNL     1      21.073   3.450  52.327  1.00  0.00     0.071 A 
HETATM    7  C9  UNL     1      21.466   2.180  52.724  1.00  0.00     0.098 A 
HETATM    8  C10 UNL     1      22.776   1.776  52.552  1.00  0.00     0.071 A 
HETATM    9  C11 UNL     1      23.733   2.563  52.000  1.00  0.00     0.050 A 
HETATM   10  C12 UNL     1      23.419   3.823  51.587  1.00  0.00     0.041 A 
HETATM   11  N4  UNL     1      23.118   0.471  52.980  1.00  0.00    -0.314 N 
HETATM   12  C20 UNL     1      22.036  -0.294  53.554  1.00  0.00     0.248 C 
HETATM   13  O2  UNL     1      22.199  -1.563  53.527  1.00  0.00    -0.271 OA
HETATM   14  C21 UNL     1      20.811   0.319  54.140  1.00  0.00     0.279 C 
HETATM   15  O3  UNL     1      20.463   1.405  53.281  1.00  0.00    -0.340 OA
ENDROOT
BRANCH  11  16
HETATM   16  C13 UNL     1      24.454  -0.144  52.900  1.00  0.00     0.134 C 
BRANCH  16  17
HETATM   17  C14 UNL     1      24.990  -0.172  54.276  1.00  0.00     0.050 C 
BRANCH  17  18
HETATM   18  C15 UNL     1      26.302   0.463  54.541  1.00  0.00     0.274 C 
BRANCH  18  19
HETATM   19  N5  UNL     1      27.410  -0.007  53.795  1.00  0.00     0.092 N 
HETATM   20  C16 UNL     1      28.631   0.056  54.669  1.00  0.00     0.298 C 
HETATM   21  C17 UNL     1      29.208   1.420  54.739  1.00  0.00     0.198 C 
HETATM   22  O1  UNL     1      28.422   2.456  54.318  1.00  0.00    -0.388 OA
HETATM   23  C18 UNL     1      27.903   2.272  53.039  1.00  0.00     0.198 C 
HETATM   24  C19 UNL     1      27.821   0.822  52.668  1.00  0.00     0.298 C 
ENDBRANCH  18  19
ENDBRANCH  17  18
ENDBRANCH  16  17
ENDBRANCH  11  16
BRANCH   1  25
HETATM   25  N1  UNL     1      25.656   4.310  50.828  1.00  0.00    -0.350 N 
HETATM   26  H6  UNL     1      26.044   4.812  51.650  1.00  0.00     0.166 HD
BRANCH  25  27
HETATM   27  C4  UNL     1      26.466   3.555  49.959  1.00  0.00     0.090 C 
HETATM   28  C3  UNL     1      27.103   4.216  49.001  1.00  0.00     0.016 C 
BRANCH  28  29
HETATM   29  C2  UNL     1      27.006   5.677  48.801  1.00  0.00    -0.009 C 
HETATM   30  C1  UNL     1      28.038   6.294  48.196  1.00  0.00     0.011 C 
ENDBRANCH  28  29
ENDBRANCH  25  27
ENDBRANCH   1  25
TORSDOF 7
ENDMDL
MODEL 2
REMARK VINA RESULT:      -8.1      2.400      5.777
REMARK  7 active torsions:
REMARK  status: ('A' for Active; 'I' for Inactive)
REMARK    1  A    between atoms: C2_2  and  C3_3 
REMARK    2  A    between atoms: C4_4  and  N1_5 
REMARK    3  A    between atoms: N1_5  and  C5_6 
REMARK    4  A    between atoms: N4_16  and  C13_17 
REMARK    5  A    between atoms: C13_17  and  C14_18 
REMARK    6  A    between atoms: C14_18  and  C15_19 
REMARK    7  A    between atoms: C15_19  and  N5_20 
ROOT
HETATM    1  C5  UNL     1      27.018   2.070  52.403  1.00  0.00     0.141 A 
HETATM    2  N2  UNL     1      28.299   1.852  52.730  1.00  0.00    -0.224 NA
HETATM    3  C6  UNL     1      28.712   0.925  53.600  1.00  0.00     0.236 A 
HETATM    4  N3  UNL     1      27.742   0.196  54.151  1.00  0.00    -0.241 NA
HETATM    5  C7  UNL     1      26.427   0.307  53.918  1.00  0.00     0.075 A 
HETATM    6  C8  UNL     1      25.549  -0.548  54.584  1.00  0.00     0.071 A 
HETATM    7  C9  UNL     1      24.209  -0.364  54.275  1.00  0.00     0.098 A 
HETATM    8  C10 UNL     1      23.835   0.607  53.367  1.00  0.00     0.071 A 
HETATM    9  C11 UNL     1      24.719   1.422  52.738  1.00  0.00     0.050 A 
HETATM   10  C12 UNL     1      26.052   1.298  52.993  1.00  0.00     0.041 A 
HETATM   11  N4  UNL     1      22.454   0.744  53.090  1.00  0.00    -0.314 N 
HETATM   12  C20 UNL     1      21.587  -0.163  53.804  1.00  0.00     0.248 C 
HETATM   13  O2  UNL     1      20.373   0.224  53.915  1.00  0.00    -0.271 OA
HETATM   14  C21 UNL     1      22.044  -1.459  54.380  1.00  0.00     0.279 C 
HETATM   15  O3  UNL     1      23.336  -1.211  54.936  1.00  0.00    -0.340 OA
ENDROOT
BRANCH  11  16
HETATM   16  C13 UNL     1      21.851   1.704  52.148  1.00  0.00     0.134 C 
BRANCH  16  17
HETATM   17  C14 UNL     1      21.799   1.031  50.834  1.00  0.00     0.050 C 
BRANCH  17  18
HETATM   18  C15 UNL     1      22.340   1.739  49.651  1.00  0.00     0.274 C 
BRANCH  18  19
HETATM   19  N5  UNL     1      21.600   1.646  48.448  1.00  0.00     0.092 N 
HETATM   20  C16 UNL     1      22.363   2.358  47.366  1.00  0.00     0.298 C 
HETATM   21  C17 UNL     1      22.177   3.829  47.413  1.00  0.00     0.198 C 
HETATM   22  O1  UNL     1      21.655   4.358  48.561  1.00  0.00    -0.388 OA
HETATM   23  C18 UNL     1      20.461   3.758  48.954  1.00  0.00     0.198 C 
HETATM   24  C19 UNL     1      20.331   2.363  48.421  1.00  0.00     0.298 C 
ENDBRANCH  18  19
ENDBRANCH  17  18
ENDBRANCH  16  17
ENDBRANCH  11  16
BRANCH   1  25
HETATM   25  N1  UNL     1      26.674   3.072  51.481  1.00  0.00    -0.350 N 
HETATM   26  H6  UNL     1      26.552   3.836  52.175  1.00  0.00     0.166 HD
BRANCH  25  27
HETATM   27  C4  UNL     1      26.486   3.276  50.101  1.00  0.00     0.090 C 
HETATM   28  C3  UNL     1      25.427   3.988  49.736  1.00  0.00     0.016 C 
BRANCH  28  29
HETATM   29  C2  UNL     1      24.452   4.565  50.684  1.00  0.00    -0.009 C 
HETATM   30  C1  UNL     1      24.313   5.903  50.701  1.00  0.00     0.011 C 
ENDBRANCH  28  29
ENDBRANCH  25  27
ENDBRANCH   1  25
TORSDOF 7
ENDMDL
MODEL 3
REMARK VINA RESULT:      -8.1      2.627      7.677
REMARK  7 active torsions:
REMARK  status: ('A' for Active; 'I' for Inactive)
REMARK    1  A    between atoms: C2_2  and  C3_3 
REMARK    2  A    between atoms: C4_4  and  N1_5 
REMARK    3  A    between atoms: N1_5  and  C5_6 
REMARK    4  A    between atoms: N4_16  and  C13_17 
REMARK    5  A    between atoms: C13_17  and  C14_18 
REMARK    6  A    between atoms: C14_18  and  C15_19 
REMARK    7  A    between atoms: C15_19  and  N5_20 
ROOT
HETATM    1  C5  UNL     1      26.395  -0.220  54.355  1.00  0.00     0.141 A 
HETATM    2  N2  UNL     1      27.592  -0.298  54.951  1.00  0.00    -0.224 NA
HETATM    3  C6  UNL     1      28.650   0.451  54.626  1.00  0.00     0.236 A 
HETATM    4  N3  UNL     1      28.445   1.318  53.633  1.00  0.00    -0.241 NA
HETATM    5  C7  UNL     1      27.306   1.499  52.953  1.00  0.00     0.075 A 
HETATM    6  C8  UNL     1      27.269   2.460  51.943  1.00  0.00     0.071 A 
HETATM    7  C9  UNL     1      26.047   2.582  51.297  1.00  0.00     0.098 A 
HETATM    8  C10 UNL     1      24.983   1.785  51.673  1.00  0.00     0.071 A 
HETATM    9  C11 UNL     1      25.057   0.859  52.662  1.00  0.00     0.050 A 
HETATM   10  C12 UNL     1      26.227   0.684  53.340  1.00  0.00     0.041 A 
HETATM   11  N4  UNL     1      23.761   1.959  50.981  1.00  0.00    -0.314 N 
HETATM   12  C20 UNL     1      23.775   2.965  49.945  1.00  0.00     0.248 C 
HETATM   13  O2  UNL     1      22.874   2.828  49.048  1.00  0.00    -0.271 OA
HETATM   14  C21 UNL     1      24.753   4.087  49.899  1.00  0.00     0.279 C 
HETATM   15  O3  UNL     1      26.009   3.535  50.294  1.00  0.00    -0.340 OA
ENDROOT
BRANCH  11  16
HETATM   16  C13 UNL     1      22.510   1.223  51.235  1.00  0.00     0.134 C 
BRANCH  16  17
HETATM   17  C14 UNL     1      21.725   2.040  52.183  1.00  0.00     0.050 C 
BRANCH  17  18
HETATM   18  C15 UNL     1      20.257   2.121  52.004  1.00  0.00     0.274 C 
BRANCH  18  19
HETATM   19  N5  UNL     1      19.773   2.250  50.679  1.00  0.00     0.092 N 
HETATM   20  C16 UNL     1      19.682   3.713  50.348  1.00  0.00     0.298 C 
HETATM   21  C17 UNL     1      18.458   4.344  50.898  1.00  0.00     0.198 C 
HETATM   22  O1  UNL     1      17.780   3.659  51.867  1.00  0.00    -0.388 OA
HETATM   23  C18 UNL     1      17.466   2.352  51.503  1.00  0.00     0.198 C 
HETATM   24  C19 UNL     1      18.398   1.820  50.456  1.00  0.00     0.298 C 
ENDBRANCH  18  19
ENDBRANCH  17  18
ENDBRANCH  16  17
ENDBRANCH  11  16
BRANCH   1  25
HETATM   25  N1  UNL     1      25.337  -1.052  54.758  1.00  0.00    -0.350 N 
HETATM   26  H6  UNL     1      25.320  -1.645  53.905  1.00  0.00     0.166 HD
BRANCH  25  27
HETATM   27  C4  UNL     1      24.450  -1.257  55.832  1.00  0.00     0.090 C 
HETATM   28  C3  UNL     1      23.159  -1.342  55.539  1.00  0.00     0.016 C 
BRANCH  28  29
HETATM   29  C2  UNL     1      22.612  -1.229  54.172  1.00  0.00    -0.009 C 
HETATM   30  C1  UNL     1      21.274  -1.182  54.035  1.00  0.00     0.011 C 
ENDBRANCH  28  29
ENDBRANCH  25  27
ENDBRANCH   1  25
TORSDOF 7
ENDMDL
MODEL 4
REMARK VINA RESULT:      -8.0      2.380      5.726
REMARK  7 active torsions:
REMARK  status: ('A' for Active; 'I' for Inactive)
REMARK    1  A    between atoms: C2_2  and  C3_3 
REMARK    2  A    between atoms: C4_4  and  N1_5 
REMARK    3  A    between atoms: N1_5  and  C5_6 
REMARK    4  A    between atoms: N4_16  and  C13_17 
REMARK    5  A    between atoms: C13_17  and  C14_18 
REMARK    6  A    between atoms: C14_18  and  C15_19 
REMARK    7  A    between atoms: C15_19  and  N5_20 
ROOT
HETATM    1  C5  UNL     1      24.702  -0.520  53.813  1.00  0.00     0.141 A 
HETATM    2  N2  UNL     1      25.157  -1.003  54.977  1.00  0.00    -0.224 NA
HETATM    3  C6  UNL     1      24.380  -1.459  55.964  1.00  0.00     0.236 A 
HETATM    4  N3  UNL     1      23.070  -1.406  55.722  1.00  0.00    -0.241 NA
HETATM    5  C7  UNL     1      22.481  -0.949  54.609  1.00  0.00     0.075 A 
HETATM    6  C8  UNL     1      21.089  -0.973  54.523  1.00  0.00     0.071 A 
HETATM    7  C9  UNL     1      20.568  -0.487  53.333  1.00  0.00     0.098 A 
HETATM    8  C10 UNL     1      21.416  -0.030  52.342  1.00  0.00     0.071 A 
HETATM    9  C11 UNL     1      22.767  -0.021  52.462  1.00  0.00     0.050 A 
HETATM   10  C12 UNL     1      23.349  -0.484  53.605  1.00  0.00     0.041 A 
HETATM   11  N4  UNL     1      20.826   0.450  51.149  1.00  0.00    -0.314 N 
HETATM   12  C20 UNL     1      19.383   0.405  51.111  1.00  0.00     0.248 C 
HETATM   13  O2  UNL     1      18.839   1.212  50.281  1.00  0.00    -0.271 OA
HETATM   14  C21 UNL     1      18.564  -0.503  51.963  1.00  0.00     0.279 C 
HETATM   15  O3  UNL     1      19.186  -0.509  53.247  1.00  0.00    -0.340 OA
ENDROOT
BRANCH  11  16
HETATM   16  C13 UNL     1      21.548   0.966  49.973  1.00  0.00     0.134 C 
BRANCH  16  17
HETATM   17  C14 UNL     1      21.836   2.390  50.245  1.00  0.00     0.050 C 
BRANCH  17  18
HETATM   18  C15 UNL     1      23.137   2.947  49.809  1.00  0.00     0.274 C 
BRANCH  18  19
HETATM   19  N5  UNL     1      24.166   3.023  50.779  1.00  0.00     0.092 N 
HETATM   20  C16 UNL     1      23.680   3.871  51.920  1.00  0.00     0.298 C 
HETATM   21  C17 UNL     1      23.790   5.323  51.634  1.00  0.00     0.198 C 
HETATM   22  O1  UNL     1      23.976   5.693  50.332  1.00  0.00    -0.388 OA
HETATM   23  C18 UNL     1      25.051   5.050  49.722  1.00  0.00     0.198 C 
HETATM   24  C19 UNL     1      25.370   3.742  50.380  1.00  0.00     0.298 C 
ENDBRANCH  18  19
ENDBRANCH  17  18
ENDBRANCH  16  17
ENDBRANCH  11  16
BRANCH   1  25
HETATM   25  N1  UNL     1      25.593  -0.056  52.831  1.00  0.00    -0.350 N 
HETATM   26  H6  UNL     1      25.381  -0.787  52.123  1.00  0.00     0.166 HD
BRANCH  25  27
HETATM   27  C4  UNL     1      26.533   0.965  52.597  1.00  0.00     0.090 C 
HETATM   28  C3  UNL     1      27.810   0.669  52.802  1.00  0.00     0.016 C 
BRANCH  28  29
HETATM   29  C2  UNL     1      28.288  -0.652  53.259  1.00  0.00    -0.009 C 
HETATM   30  C1  UNL     1      29.610  -0.803  53.461  1.00  0.00     0.011 C 
ENDBRANCH  28  29
ENDBRANCH  25  27
ENDBRANCH   1  25
TORSDOF 7
ENDMDL
MODEL 5
REMARK VINA RESULT:      -7.9      2.465      6.487
REMARK  7 active torsions:
REMARK  status: ('A' for Active; 'I' for Inactive)
REMARK    1  A    between atoms: C2_2  and  C3_3 
REMARK    2  A    between atoms: C4_4  and  N1_5 
REMARK    3  A    between atoms: N1_5  and  C5_6 
REMARK    4  A    between atoms: N4_16  and  C13_17 
REMARK    5  A    between atoms: C13_17  and  C14_18 
REMARK    6  A    between atoms: C14_18  and  C15_19 
REMARK    7  A    between atoms: C15_19  and  N5_20 
ROOT
HETATM    1  C5  UNL     1      26.896   2.138  52.361  1.00  0.00     0.141 A 
HETATM    2  N2  UNL     1      28.198   1.974  52.629  1.00  0.00    -0.224 NA
HETATM    3  C6  UNL     1      28.687   1.077  53.491  1.00  0.00     0.236 A 
HETATM    4  N3  UNL     1      27.773   0.320  54.098  1.00  0.00    -0.241 NA
HETATM    5  C7  UNL     1      26.446   0.378  53.926  1.00  0.00     0.075 A 
HETATM    6  C8  UNL     1      25.633  -0.499  54.645  1.00  0.00     0.071 A 
HETATM    7  C9  UNL     1      24.274  -0.371  54.398  1.00  0.00     0.098 A 
HETATM    8  C10 UNL     1      23.820   0.571  53.495  1.00  0.00     0.071 A 
HETATM    9  C11 UNL     1      24.642   1.408  52.814  1.00  0.00     0.050 A 
HETATM   10  C12 UNL     1      25.989   1.339  53.007  1.00  0.00     0.041 A 
HETATM   11  N4  UNL     1      22.423   0.651  53.283  1.00  0.00    -0.314 N 
HETATM   12  C20 UNL     1      21.627  -0.277  54.051  1.00  0.00     0.248 C 
HETATM   13  O2  UNL     1      20.405   0.066  54.214  1.00  0.00    -0.271 OA
HETATM   14  C21 UNL     1      22.161  -1.545  54.622  1.00  0.00     0.279 C 
HETATM   15  O3  UNL     1      23.466  -1.240  55.112  1.00  0.00    -0.340 OA
ENDROOT
BRANCH  11  16
HETATM   16  C13 UNL     1      21.740   1.572  52.358  1.00  0.00     0.134 C 
BRANCH  16  17
HETATM   17  C14 UNL     1      21.379   0.781  51.164  1.00  0.00     0.050 C 
BRANCH  17  18
HETATM   18  C15 UNL     1      20.010   0.910  50.613  1.00  0.00     0.274 C 
BRANCH  18  19
HETATM   19  N5  UNL     1      18.943   0.971  51.541  1.00  0.00     0.092 N 
HETATM   20  C16 UNL     1      18.018  -0.183  51.277  1.00  0.00     0.298 C 
HETATM   21  C17 UNL     1      17.097   0.076  50.143  1.00  0.00     0.198 C 
HETATM   22  O1  UNL     1      17.408   1.112  49.307  1.00  0.00    -0.388 OA
HETATM   23  C18 UNL     1      17.621   2.316  49.974  1.00  0.00     0.198 C 
HETATM   24  C19 UNL     1      18.035   2.104  51.398  1.00  0.00     0.298 C 
ENDBRANCH  18  19
ENDBRANCH  17  18
ENDBRANCH  16  17
ENDBRANCH  11  16
BRANCH   1  25
HETATM   25  N1  UNL     1      26.470   3.112  51.442  1.00  0.00    -0.350 N 
HETATM   26  H6  UNL     1      25.807   3.595  52.080  1.00  0.00     0.166 HD
BRANCH  25  27
HETATM   27  C4  UNL     1      26.674   3.532  50.115  1.00  0.00     0.090 C 
HETATM   28  C3  UNL     1      25.592   3.783  49.389  1.00  0.00     0.016 C 
BRANCH  28  29
HETATM   29  C2  UNL     1      24.209   3.644  49.891  1.00  0.00    -0.009 C 
HETATM   30  C1  UNL     1      23.317   3.021  49.099  1.00  0.00     0.011 C 
ENDBRANCH  28  29
ENDBRANCH  25  27
ENDBRANCH   1  25
TORSDOF 7
ENDMDL
MODEL 6
REMARK VINA RESULT:      -7.9      1.808      5.559
REMARK  7 active torsions:
REMARK  status: ('A' for Active; 'I' for Inactive)
REMARK    1  A    between atoms: C2_2  and  C3_3 
REMARK    2  A    between atoms: C4_4  and  N1_5 
REMARK    3  A    between atoms: N1_5  and  C5_6 
REMARK    4  A    between atoms: N4_16  and  C13_17 
REMARK    5  A    between atoms: C13_17  and  C14_18 
REMARK    6  A    between atoms: C14_18  and  C15_19 
REMARK    7  A    between atoms: C15_19  and  N5_20 
ROOT
HETATM    1  C5  UNL     1      26.995   2.058  52.283  1.00  0.00     0.141 A 
HETATM    2  N2  UNL     1      28.258   2.207  52.706  1.00  0.00    -0.224 NA
HETATM    3  C6  UNL     1      28.764   1.625  53.797  1.00  0.00     0.236 A 
HETATM    4  N3  UNL     1      27.912   0.856  54.475  1.00  0.00    -0.241 NA
HETATM    5  C7  UNL     1      26.629   0.622  54.168  1.00  0.00     0.075 A 
HETATM    6  C8  UNL     1      25.880  -0.218  54.992  1.00  0.00     0.071 A 
HETATM    7  C9  UNL     1      24.565  -0.408  54.592  1.00  0.00     0.098 A 
HETATM    8  C10 UNL     1      24.091   0.214  53.454  1.00  0.00     0.071 A 
HETATM    9  C11 UNL     1      24.851   1.027  52.676  1.00  0.00     0.050 A 
HETATM   10  C12 UNL     1      26.152   1.259  53.008  1.00  0.00     0.041 A 
HETATM   11  N4  UNL     1      22.743  -0.020  53.095  1.00  0.00    -0.314 N 
HETATM   12  C20 UNL     1      22.012  -0.897  53.980  1.00  0.00     0.248 C 
HETATM   13  O2  UNL     1      20.740  -0.766  53.939  1.00  0.00    -0.271 OA
HETATM   14  C21 UNL     1      22.662  -1.887  54.882  1.00  0.00     0.279 C 
HETATM   15  O3  UNL     1      23.821  -1.241  55.410  1.00  0.00    -0.340 OA
ENDROOT
BRANCH  11  16
HETATM   16  C13 UNL     1      22.051   0.533  51.918  1.00  0.00     0.134 C 
BRANCH  16  17
HETATM   17  C14 UNL     1      21.417   1.794  52.355  1.00  0.00     0.050 C 
BRANCH  17  18
HETATM   18  C15 UNL     1      21.998   3.077  51.899  1.00  0.00     0.274 C 
BRANCH  18  19
HETATM   19  N5  UNL     1      21.179   4.228  51.992  1.00  0.00     0.092 N 
HETATM   20  C16 UNL     1      19.870   3.934  51.316  1.00  0.00     0.298 C 
HETATM   21  C17 UNL     1      19.951   4.065  49.840  1.00  0.00     0.198 C 
HETATM   22  O1  UNL     1      21.198   4.091  49.282  1.00  0.00    -0.388 OA
HETATM   23  C18 UNL     1      22.038   5.048  49.848  1.00  0.00     0.198 C 
HETATM   24  C19 UNL     1      21.630   5.397  51.246  1.00  0.00     0.298 C 
ENDBRANCH  18  19
ENDBRANCH  17  18
ENDBRANCH  16  17
ENDBRANCH  11  16
BRANCH   1  25
HETATM   25  N1  UNL     1      26.545   2.713  51.124  1.00  0.00    -0.350 N 
HETATM   26  H6  UNL     1      27.208   2.258  50.465  1.00  0.00     0.166 HD
BRANCH  25  27
HETATM   27  C4  UNL     1      25.594   3.658  50.697  1.00  0.00     0.090 C 
HETATM   28  C3  UNL     1      25.923   4.419  49.661  1.00  0.00     0.016 C 
BRANCH  28  29
HETATM   29  C2  UNL     1      27.214   4.331  48.948  1.00  0.00    -0.009 C 
HETATM   30  C1  UNL     1      27.762   5.477  48.504  1.00  0.00     0.011 C 
ENDBRANCH  28  29
ENDBRANCH  25  27
ENDBRANCH   1  25
TORSDOF 7
ENDMDL
MODEL 7
REMARK VINA RESULT:      -7.7      2.723      6.742
REMARK  7 active torsions:
REMARK  status: ('A' for Active; 'I' for Inactive)
REMARK    1  A    between atoms: C2_2  and  C3_3 
REMARK    2  A    between atoms: C4_4  and  N1_5 
REMARK    3  A    between atoms: N1_5  and  C5_6 
REMARK    4  A    between atoms: N4_16  and  C13_17 
REMARK    5  A    between atoms: C13_17  and  C14_18 
REMARK    6  A    between atoms: C14_18  and  C15_19 
REMARK    7  A    between atoms: C15_19  and  N5_20 
ROOT
HETATM    1  C5  UNL     1      21.171   0.071  52.953  1.00  0.00     0.141 A 
HETATM    2  N2  UNL     1      20.727  -0.847  53.822  1.00  0.00    -0.224 NA
HETATM    3  C6  UNL     1      21.510  -1.552  54.645  1.00  0.00     0.236 A 
HETATM    4  N3  UNL     1      22.813  -1.285  54.552  1.00  0.00    -0.241 NA
HETATM    5  C7  UNL     1      23.390  -0.398  53.731  1.00  0.00     0.075 A 
HETATM    6  C8  UNL     1      24.776  -0.245  53.770  1.00  0.00     0.071 A 
HETATM    7  C9  UNL     1      25.285   0.700  52.890  1.00  0.00     0.098 A 
HETATM    8  C10 UNL     1      24.432   1.404  52.062  1.00  0.00     0.071 A 
HETATM    9  C11 UNL     1      23.087   1.226  52.051  1.00  0.00     0.050 A 
HETATM   10  C12 UNL     1      22.517   0.315  52.889  1.00  0.00     0.041 A 
HETATM   11  N4  UNL     1      25.010   2.356  51.189  1.00  0.00    -0.314 N 
HETATM   12  C20 UNL     1      26.446   2.477  51.270  1.00  0.00     0.248 C 
HETATM   13  O2  UNL     1      27.006   2.968  50.229  1.00  0.00    -0.271 OA
HETATM   14  C21 UNL     1      27.243   2.068  52.460  1.00  0.00     0.279 C 
HETATM   15  O3  UNL     1      26.660   0.852  52.929  1.00  0.00    -0.340 OA
ENDROOT
BRANCH  11  16
HETATM   16  C13 UNL     1      24.280   3.216  50.242  1.00  0.00     0.134 C 
BRANCH  16  17
HETATM   17  C14 UNL     1      24.055   4.505  50.928  1.00  0.00     0.050 C 
BRANCH  17  18
HETATM   18  C15 UNL     1      24.724   5.717  50.400  1.00  0.00     0.274 C 
BRANCH  18  19
HETATM   19  N5  UNL     1      25.067   5.719  49.026  1.00  0.00     0.092 N 
HETATM   20  C16 UNL     1      26.527   6.054  48.903  1.00  0.00     0.298 C 
HETATM   21  C17 UNL     1      26.787   7.510  49.010  1.00  0.00     0.198 C 
HETATM   22  O1  UNL     1      25.786   8.289  49.521  1.00  0.00    -0.388 OA
HETATM   23  C18 UNL     1      24.565   8.114  48.876  1.00  0.00     0.198 C 
HETATM   24  C19 UNL     1      24.464   6.772  48.217  1.00  0.00     0.298 C 
ENDBRANCH  18  19
ENDBRANCH  17  18
ENDBRANCH  16  17
ENDBRANCH  11  16
BRANCH   1  25
HETATM   25  N1  UNL     1      20.276   0.763  52.120  1.00  0.00    -0.350 N 
HETATM   26  H6  UNL     1      20.592   1.720  52.374  1.00  0.00     0.166 HD
BRANCH  25  27
HETATM   27  C4  UNL     1      19.243   0.537  51.191  1.00  0.00     0.090 C 
HETATM   28  C3  UNL     1      19.416   1.022  49.968  1.00  0.00     0.016 C 
BRANCH  28  29
HETATM   29  C2  UNL     1      20.612   1.776  49.539  1.00  0.00    -0.009 C 
HETATM   30  C1  UNL     1      21.441   1.185  48.659  1.00  0.00     0.011 C 
ENDBRANCH  28  29
ENDBRANCH  25  27
ENDBRANCH   1  25
TORSDOF 7
ENDMDL
MODEL 8
REMARK VINA RESULT:      -7.6      2.607      5.820
REMARK  7 active torsions:
REMARK  status: ('A' for Active; 'I' for Inactive)
REMARK    1  A    between atoms: C2_2  and  C3_3 
REMARK    2  A    between atoms: C4_4  and  N1_5 
REMARK    3  A    between atoms: N1_5  and  C5_6 
REMARK    4  A    between atoms: N4_16  and  C13_17 
REMARK    5  A    between atoms: C13_17  and  C14_18 
REMARK    6  A    between atoms: C14_18  and  C15_19 
REMARK    7  A    between atoms: C15_19  and  N5_20 
ROOT
HETATM    1  C5  UNL     1      24.421  -0.352  53.641  1.00  0.00     0.141 A 
HETATM    2  N2  UNL     1      24.872  -0.884  54.785  1.00  0.00    -0.224 NA
HETATM    3  C6  UNL     1      24.093  -1.404  55.738  1.00  0.00     0.236 A 
HETATM    4  N3  UNL     1      22.785  -1.364  55.483  1.00  0.00    -0.241 NA
HETATM    5  C7  UNL     1      22.200  -0.863  54.387  1.00  0.00     0.075 A 
HETATM    6  C8  UNL     1      20.810  -0.908  54.283  1.00  0.00     0.071 A 
HETATM    7  C9  UNL     1      20.293  -0.372  53.112  1.00  0.00     0.098 A 
HETATM    8  C10 UNL     1      21.143   0.151  52.157  1.00  0.00     0.071 A 
HETATM    9  C11 UNL     1      22.493   0.178  52.293  1.00  0.00     0.050 A 
HETATM   10  C12 UNL     1      23.070  -0.331  53.418  1.00  0.00     0.041 A 
HETATM   11  N4  UNL     1      20.557   0.679  50.982  1.00  0.00    -0.314 N 
HETATM   12  C20 UNL     1      19.116   0.608  50.924  1.00  0.00     0.248 C 
HETATM   13  O2  UNL     1      18.566   1.446  50.128  1.00  0.00    -0.271 OA
HETATM   14  C21 UNL     1      18.305  -0.356  51.718  1.00  0.00     0.279 C 
HETATM   15  O3  UNL     1      18.913  -0.416  53.009  1.00  0.00    -0.340 OA
ENDROOT
BRANCH  11  16
HETATM   16  C13 UNL     1      21.283   1.267  49.842  1.00  0.00     0.134 C 
BRANCH  16  17
HETATM   17  C14 UNL     1      21.285   2.730  50.052  1.00  0.00     0.050 C 
BRANCH  17  18
HETATM   18  C15 UNL     1      22.541   3.383  50.489  1.00  0.00     0.274 C 
BRANCH  18  19
HETATM   19  N5  UNL     1      22.464   4.252  51.604  1.00  0.00     0.092 N 
HETATM   20  C16 UNL     1      21.366   5.247  51.354  1.00  0.00     0.298 C 
HETATM   21  C17 UNL     1      21.796   6.357  50.469  1.00  0.00     0.198 C 
HETATM   22  O1  UNL     1      22.945   6.177  49.752  1.00  0.00    -0.388 OA
HETATM   23  C18 UNL     1      24.034   5.804  50.536  1.00  0.00     0.198 C 
HETATM   24  C19 UNL     1      23.608   5.134  51.807  1.00  0.00     0.298 C 
ENDBRANCH  18  19
ENDBRANCH  17  18
ENDBRANCH  16  17
ENDBRANCH  11  16
BRANCH   1  25
HETATM   25  N1  UNL     1      25.314   0.178  52.695  1.00  0.00    -0.350 N 
HETATM   26  H6  UNL     1      24.594   0.502  52.020  1.00  0.00     0.166 HD
BRANCH  25  27
HETATM   27  C4  UNL     1      26.691   0.356  52.465  1.00  0.00     0.090 C 
HETATM   28  C3  UNL     1      27.053   1.428  51.773  1.00  0.00     0.016 C 
BRANCH  28  29
HETATM   29  C2  UNL     1      26.104   2.426  51.238  1.00  0.00    -0.009 C 
HETATM   30  C1  UNL     1      26.412   3.019  50.070  1.00  0.00     0.011 C 
ENDBRANCH  28  29
ENDBRANCH  25  27
ENDBRANCH   1  25
TORSDOF 7
ENDMDL
MODEL 9
REMARK VINA RESULT:      -7.6      2.497      7.000
REMARK  7 active torsions:
REMARK  status: ('A' for Active; 'I' for Inactive)
REMARK    1  A    between atoms: C2_2  and  C3_3 
REMARK    2  A    between atoms: C4_4  and  N1_5 
REMARK    3  A    between atoms: N1_5  and  C5_6 
REMARK    4  A    between atoms: N4_16  and  C13_17 
REMARK    5  A    between atoms: C13_17  and  C14_18 
REMARK    6  A    between atoms: C14_18  and  C15_19 
REMARK    7  A    between atoms: C15_19  and  N5_20 
ROOT
HETATM    1  C5  UNL     1      21.249   0.091  52.933  1.00  0.00     0.141 A 
HETATM    2  N2  UNL     1      20.803  -0.821  53.806  1.00  0.00    -0.224 NA
HETATM    3  C6  UNL     1      21.583  -1.520  54.637  1.00  0.00     0.236 A 
HETATM    4  N3  UNL     1      22.886  -1.252  54.548  1.00  0.00    -0.241 NA
HETATM    5  C7  UNL     1      23.466  -0.370  53.724  1.00  0.00     0.075 A 
HETATM    6  C8  UNL     1      24.851  -0.213  53.769  1.00  0.00     0.071 A 
HETATM    7  C9  UNL     1      25.362   0.726  52.885  1.00  0.00     0.098 A 
HETATM    8  C10 UNL     1      24.512   1.423  52.048  1.00  0.00     0.071 A 
HETATM    9  C11 UNL     1      23.167   1.244  52.032  1.00  0.00     0.050 A 
HETATM   10  C12 UNL     1      22.595   0.337  52.874  1.00  0.00     0.041 A 
HETATM   11  N4  UNL     1      25.092   2.371  51.172  1.00  0.00    -0.314 N 
HETATM   12  C20 UNL     1      26.528   2.494  51.257  1.00  0.00     0.248 C 
HETATM   13  O2  UNL     1      27.091   2.979  50.216  1.00  0.00    -0.271 OA
HETATM   14  C21 UNL     1      27.320   2.095  52.454  1.00  0.00     0.279 C 
HETATM   15  O3  UNL     1      26.737   0.881  52.928  1.00  0.00    -0.340 OA
ENDROOT
BRANCH  11  16
HETATM   16  C13 UNL     1      24.365   3.223  50.215  1.00  0.00     0.134 C 
BRANCH  16  17
HETATM   17  C14 UNL     1      24.405   4.597  50.758  1.00  0.00     0.050 C 
BRANCH  17  18
HETATM   18  C15 UNL     1      23.450   5.598  50.230  1.00  0.00     0.274 C 
BRANCH  18  19
HETATM   19  N5  UNL     1      22.622   6.260  51.169  1.00  0.00     0.092 N 
HETATM   20  C16 UNL     1      21.833   5.223  51.918  1.00  0.00     0.298 C 
HETATM   21  C17 UNL     1      20.653   4.747  51.156  1.00  0.00     0.198 C 
HETATM   22  O1  UNL     1      20.618   5.025  49.818  1.00  0.00    -0.388 OA
HETATM   23  C18 UNL     1      20.805   6.374  49.528  1.00  0.00     0.198 C 
HETATM   24  C19 UNL     1      21.555   7.084  50.613  1.00  0.00     0.298 C 
ENDBRANCH  18  19
ENDBRANCH  17  18
ENDBRANCH  16  17
ENDBRANCH  11  16
BRANCH   1  25
HETATM   25  N1  UNL     1      20.356   0.776  52.092  1.00  0.00    -0.350 N 
HETATM   26  H6  UNL     1      20.711   1.732  52.295  1.00  0.00     0.166 HD
BRANCH  25  27
HETATM   27  C4  UNL     1      19.293   0.545  51.199  1.00  0.00     0.090 C 
HETATM   28  C3  UNL     1      19.451   0.969  49.951  1.00  0.00     0.016 C 
BRANCH  28  29
HETATM   29  C2  UNL     1      20.661   1.661  49.460  1.00  0.00    -0.009 C 
HETATM   30  C1  UNL     1      21.501   0.967  48.671  1.00  0.00     0.011 C 
ENDBRANCH  28  29
ENDBRANCH  25  27
ENDBRANCH   1  25
TORSDOF 7
ENDMDL
