MODEL 1
REMARK VINA RESULT:      -6.8      0.000      0.000
REMARK  7 active torsions:
REMARK  status: ('A' for Active; 'I' for Inactive)
REMARK    1  A    between atoms: N1_2  and  C2_3 
REMARK    2  A    between atoms: N1_2  and  C10_13 
REMARK    3  A    between atoms: C4_5  and  C5_6 
REMARK    4  A    between atoms: C5_6  and  N2_7 
REMARK    5  A    between atoms: N2_7  and  C6_8 
REMARK    6  A    between atoms: C6_8  and  C7_9 
REMARK    7  A    between atoms: C16_22  and  C17_23 
ROOT
HETATM    1  C7  UNL     1      28.690   0.075  53.684  1.00  0.00     0.153 C 
HETATM    2  C8  UNL     1      28.723   1.550  53.836  1.00  0.00     0.060 C 
HETATM    3  N3  UNL     1      28.759   2.696  53.970  1.00  0.00    -0.197 NA
ENDROOT
BRANCH   1   4
HETATM    4  C6  UNL     1      27.795  -0.473  54.790  1.00  0.00     0.283 C 
BRANCH   4   5
HETATM    5  N2  UNL     1      26.416  -0.182  54.556  1.00  0.00     0.084 N 
HETATM    6  H10 UNL     1      26.121   0.773  54.771  1.00  0.00     0.315 HD
BRANCH   5   7
HETATM    7  C5  UNL     1      25.976  -0.577  53.258  1.00  0.00     0.274 C 
BRANCH   7   8
HETATM    8  C4  UNL     1      24.985   0.340  52.621  1.00  0.00     0.017 C 
HETATM    9  C3  UNL     1      23.578   0.091  53.112  1.00  0.00     0.031 C 
HETATM   10  C2  UNL     1      23.369   1.568  53.065  1.00  0.00     0.081 C 
HETATM   11  C9  UNL     1      24.871   1.731  53.208  1.00  0.00     0.031 C 
BRANCH  10  12
HETATM   12  N1  UNL     1      22.733   2.159  51.982  1.00  0.00    -0.387 N 
HETATM   13  C1  UNL     1      22.976   1.789  50.661  1.00  0.00     0.146 C 
BRANCH  12  14
HETATM   14  C10 UNL     1      21.592   2.948  52.260  1.00  0.00     0.241 A 
HETATM   15  N4  UNL     1      20.394   2.486  51.590  1.00  0.00    -0.252 NA
HETATM   16  C11 UNL     1      19.777   3.325  50.832  1.00  0.00     0.230 A 
HETATM   17  N5  UNL     1      20.036   4.704  50.487  1.00  0.00    -0.243 NA
HETATM   18  C12 UNL     1      21.087   5.296  51.000  1.00  0.00     0.079 A 
HETATM   19  C13 UNL     1      21.814   4.373  51.865  1.00  0.00     0.026 A 
HETATM   20  C16 UNL     1      21.678   6.643  50.902  1.00  0.00     0.209 C 
HETATM   21  C14 UNL     1      22.897   4.813  52.452  1.00  0.00     0.011 C 
HETATM   22  C15 UNL     1      23.720   5.515  51.725  1.00  0.00     0.148 C 
HETATM   23  O1  UNL     1      23.094   6.508  50.987  1.00  0.00    -0.348 OA
BRANCH  20  24
HETATM   24  C17 UNL     1      21.275   7.238  49.561  1.00  0.00     0.157 C 
HETATM   25  C18 UNL     1      20.251   8.307  49.869  1.00  0.00     0.037 C 
HETATM   26  C19 UNL     1      20.756   9.476  49.063  1.00  0.00     0.029 C 
HETATM   27  C20 UNL     1      22.237   9.177  48.964  1.00  0.00     0.168 C 
HETATM   28  O2  UNL     1      22.322   7.809  48.887  1.00  0.00    -0.383 OA
ENDBRANCH  20  24
ENDBRANCH  12  14
ENDBRANCH  10  12
ENDBRANCH   7   8
ENDBRANCH   5   7
ENDBRANCH   4   5
ENDBRANCH   1   4
TORSDOF 7
ENDMDL
MODEL 2
REMARK VINA RESULT:      -6.4      2.942      8.429
REMARK  7 active torsions:
REMARK  status: ('A' for Active; 'I' for Inactive)
REMARK    1  A    between atoms: N1_2  and  C2_3 
REMARK    2  A    between atoms: N1_2  and  C10_13 
REMARK    3  A    between atoms: C4_5  and  C5_6 
REMARK    4  A    between atoms: C5_6  and  N2_7 
REMARK    5  A    between atoms: N2_7  and  C6_8 
REMARK    6  A    between atoms: C6_8  and  C7_9 
REMARK    7  A    between atoms: C16_22  and  C17_23 
ROOT
HETATM    1  C7  UNL     1      21.077   7.227  48.043  1.00  0.00     0.153 C 
HETATM    2  C8  UNL     1      20.700   6.660  46.726  1.00  0.00     0.060 C 
HETATM    3  N3  UNL     1      20.420   6.205  45.702  1.00  0.00    -0.197 NA
ENDROOT
BRANCH   1   4
HETATM    4  C6  UNL     1      22.437   7.897  47.874  1.00  0.00     0.283 C 
BRANCH   4   5
HETATM    5  N2  UNL     1      23.237   7.785  49.052  1.00  0.00     0.084 N 
HETATM    6  H10 UNL     1      22.724   7.677  49.929  1.00  0.00     0.315 HD
BRANCH   5   7
HETATM    7  C5  UNL     1      24.269   6.808  48.932  1.00  0.00     0.274 C 
BRANCH   7   8
HETATM    8  C4  UNL     1      24.219   5.712  49.945  1.00  0.00     0.017 C 
HETATM    9  C3  UNL     1      23.209   5.986  51.035  1.00  0.00     0.031 C 
HETATM   10  C2  UNL     1      22.887   4.528  51.013  1.00  0.00     0.081 C 
HETATM   11  C9  UNL     1      23.400   4.490  49.586  1.00  0.00     0.031 C 
BRANCH  10  12
HETATM   12  N1  UNL     1      23.446   3.667  51.947  1.00  0.00    -0.387 N 
HETATM   13  C1  UNL     1      23.819   4.068  53.228  1.00  0.00     0.146 C 
BRANCH  12  14
HETATM   14  C10 UNL     1      23.353   2.281  51.678  1.00  0.00     0.241 A 
HETATM   15  N4  UNL     1      22.464   1.577  52.580  1.00  0.00    -0.252 NA
HETATM   16  C11 UNL     1      22.951   0.583  53.237  1.00  0.00     0.230 A 
HETATM   17  N5  UNL     1      24.266  -0.016  53.272  1.00  0.00    -0.243 NA
HETATM   18  C12 UNL     1      25.211   0.492  52.518  1.00  0.00     0.079 A 
HETATM   19  C13 UNL     1      24.694   1.625  51.758  1.00  0.00     0.026 A 
HETATM   20  C16 UNL     1      26.631   0.183  52.275  1.00  0.00     0.209 C 
HETATM   21  C14 UNL     1      25.520   2.248  50.957  1.00  0.00     0.011 C 
HETATM   22  C15 UNL     1      26.712   2.502  51.418  1.00  0.00     0.148 C 
HETATM   23  O1  UNL     1      27.311   1.410  52.028  1.00  0.00    -0.348 OA
BRANCH  20  24
HETATM   24  C17 UNL     1      27.185  -0.497  53.517  1.00  0.00     0.157 C 
HETATM   25  C18 UNL     1      28.480  -1.153  53.093  1.00  0.00     0.037 C 
HETATM   26  C19 UNL     1      29.432  -0.712  54.175  1.00  0.00     0.029 C 
HETATM   27  C20 UNL     1      28.800   0.580  54.648  1.00  0.00     0.168 C 
HETATM   28  O2  UNL     1      27.446   0.375  54.541  1.00  0.00    -0.383 OA
ENDBRANCH  20  24
ENDBRANCH  12  14
ENDBRANCH  10  12
ENDBRANCH   7   8
ENDBRANCH   5   7
ENDBRANCH   4   5
ENDBRANCH   1   4
TORSDOF 7
ENDMDL
MODEL 3
REMARK VINA RESULT:      -6.2      2.618      3.282
REMARK  7 active torsions:
REMARK  status: ('A' for Active; 'I' for Inactive)
REMARK    1  A    between atoms: N1_2  and  C2_3 
REMARK    2  A    between atoms: N1_2  and  C10_13 
REMARK    3  A    between atoms: C4_5  and  C5_6 
REMARK    4  A    between atoms: C5_6  and  N2_7 
REMARK    5  A    between atoms: N2_7  and  C6_8 
REMARK    6  A    between atoms: C6_8  and  C7_9 
REMARK    7  A    between atoms: C16_22  and  C17_23 
ROOT
HETATM    1  C7  UNL     1      28.513   0.146  53.637  1.00  0.00     0.153 C 
HETATM    2  C8  UNL     1      28.719   1.609  53.761  1.00  0.00     0.060 C 
HETATM    3  N3  UNL     1      28.892   2.745  53.871  1.00  0.00    -0.197 NA
ENDROOT
BRANCH   1   4
HETATM    4  C6  UNL     1      27.701  -0.301  54.848  1.00  0.00     0.283 C 
BRANCH   4   5
HETATM    5  N2  UNL     1      26.323  -0.493  54.526  1.00  0.00     0.084 N 
HETATM    6  H10 UNL     1      25.666   0.139  54.988  1.00  0.00     0.315 HD
BRANCH   5   7
HETATM    7  C5  UNL     1      26.083  -0.551  53.121  1.00  0.00     0.274 C 
BRANCH   7   8
HETATM    8  C4  UNL     1      25.092   0.443  52.610  1.00  0.00     0.017 C 
HETATM    9  C3  UNL     1      24.910   1.607  53.556  1.00  0.00     0.031 C 
HETATM   10  C2  UNL     1      24.804   2.484  52.353  1.00  0.00     0.081 C 
HETATM   11  C9  UNL     1      25.595   1.440  51.587  1.00  0.00     0.031 C 
BRANCH  10  12
HETATM   12  N1  UNL     1      23.563   2.871  51.867  1.00  0.00    -0.387 N 
HETATM   13  C1  UNL     1      22.367   2.293  52.285  1.00  0.00     0.146 C 
BRANCH  12  14
HETATM   14  C10 UNL     1      23.506   4.089  51.150  1.00  0.00     0.241 A 
HETATM   15  N4  UNL     1      22.866   5.161  51.885  1.00  0.00    -0.252 NA
HETATM   16  C11 UNL     1      21.855   5.738  51.333  1.00  0.00     0.230 A 
HETATM   17  N5  UNL     1      21.184   5.535  50.069  1.00  0.00    -0.243 NA
HETATM   18  C12 UNL     1      21.624   4.599  49.264  1.00  0.00     0.079 A 
HETATM   19  C13 UNL     1      22.771   3.921  49.859  1.00  0.00     0.026 A 
HETATM   20  C16 UNL     1      21.232   4.095  47.935  1.00  0.00     0.209 C 
HETATM   21  C14 UNL     1      23.326   2.952  49.178  1.00  0.00     0.011 C 
HETATM   22  C15 UNL     1      22.526   2.097  48.607  1.00  0.00     0.148 C 
HETATM   23  O1  UNL     1      21.491   2.695  47.903  1.00  0.00    -0.348 OA
BRANCH  20  24
HETATM   24  C17 UNL     1      19.748   4.371  47.746  1.00  0.00     0.157 C 
HETATM   25  C18 UNL     1      19.657   5.500  46.744  1.00  0.00     0.037 C 
HETATM   26  C19 UNL     1      18.626   4.985  45.774  1.00  0.00     0.029 C 
HETATM   27  C20 UNL     1      18.759   3.486  45.935  1.00  0.00     0.168 C 
HETATM   28  O2  UNL     1      19.055   3.294  47.261  1.00  0.00    -0.383 OA
ENDBRANCH  20  24
ENDBRANCH  12  14
ENDBRANCH  10  12
ENDBRANCH   7   8
ENDBRANCH   5   7
ENDBRANCH   4   5
ENDBRANCH   1   4
TORSDOF 7
ENDMDL
MODEL 4
REMARK VINA RESULT:      -6.2      3.387      8.116
REMARK  7 active torsions:
REMARK  status: ('A' for Active; 'I' for Inactive)
REMARK    1  A    between atoms: N1_2  and  C2_3 
REMARK    2  A    between atoms: N1_2  and  C10_13 
REMARK    3  A    between atoms: C4_5  and  C5_6 
REMARK    4  A    between atoms: C5_6  and  N2_7 
REMARK    5  A    between atoms: N2_7  and  C6_8 
REMARK    6  A    between atoms: C6_8  and  C7_9 
REMARK    7  A    between atoms: C16_22  and  C17_23 
ROOT
HETATM    1  C7  UNL     1      25.349  10.544  48.274  1.00  0.00     0.153 C 
HETATM    2  C8  UNL     1      26.653  10.126  48.841  1.00  0.00     0.060 C 
HETATM    3  N3  UNL     1      27.676   9.800  49.265  1.00  0.00    -0.197 NA
ENDROOT
BRANCH   1   4
HETATM    4  C6  UNL     1      24.731   9.317  47.610  1.00  0.00     0.283 C 
BRANCH   4   5
HETATM    5  N2  UNL     1      23.400   9.075  48.068  1.00  0.00     0.084 N 
HETATM    6  H10 UNL     1      22.709   9.786  47.822  1.00  0.00     0.315 HD
BRANCH   5   7
HETATM    7  C5  UNL     1      22.931   7.766  47.749  1.00  0.00     0.274 C 
BRANCH   7   8
HETATM    8  C4  UNL     1      23.205   6.728  48.786  1.00  0.00     0.017 C 
HETATM    9  C3  UNL     1      21.948   6.021  49.234  1.00  0.00     0.031 C 
HETATM   10  C2  UNL     1      22.754   4.766  49.300  1.00  0.00     0.081 C 
HETATM   11  C9  UNL     1      23.703   5.386  48.291  1.00  0.00     0.031 C 
BRANCH  10  12
HETATM   12  N1  UNL     1      23.265   4.317  50.509  1.00  0.00    -0.387 N 
HETATM   13  C1  UNL     1      23.501   5.155  51.596  1.00  0.00     0.146 C 
BRANCH  12  14
HETATM   14  C10 UNL     1      23.262   2.919  50.728  1.00  0.00     0.241 A 
HETATM   15  N4  UNL     1      22.322   2.497  51.746  1.00  0.00    -0.252 NA
HETATM   16  C11 UNL     1      22.788   1.824  52.741  1.00  0.00     0.230 A 
HETATM   17  N5  UNL     1      24.120   1.375  53.079  1.00  0.00    -0.243 NA
HETATM   18  C12 UNL     1      25.109   1.667  52.270  1.00  0.00     0.079 A 
HETATM   19  C13 UNL     1      24.618   2.433  51.129  1.00  0.00     0.026 A 
HETATM   20  C16 UNL     1      26.559   1.403  52.256  1.00  0.00     0.209 C 
HETATM   21  C14 UNL     1      25.487   2.808  50.228  1.00  0.00     0.011 C 
HETATM   22  C15 UNL     1      26.617   3.293  50.661  1.00  0.00     0.148 C 
HETATM   23  O1  UNL     1      27.203   2.521  51.653  1.00  0.00    -0.348 OA
BRANCH  20  24
HETATM   24  C17 UNL     1      27.020   1.228  53.694  1.00  0.00     0.157 C 
HETATM   25  C18 UNL     1      27.607  -0.162  53.779  1.00  0.00     0.037 C 
HETATM   26  C19 UNL     1      28.917   0.085  54.482  1.00  0.00     0.029 C 
HETATM   27  C20 UNL     1      29.205   1.526  54.119  1.00  0.00     0.168 C 
HETATM   28  O2  UNL     1      27.976   2.135  54.070  1.00  0.00    -0.383 OA
ENDBRANCH  20  24
ENDBRANCH  12  14
ENDBRANCH  10  12
ENDBRANCH   7   8
ENDBRANCH   5   7
ENDBRANCH   4   5
ENDBRANCH   1   4
TORSDOF 7
ENDMDL
MODEL 5
REMARK VINA RESULT:      -6.2      4.532      8.485
REMARK  7 active torsions:
REMARK  status: ('A' for Active; 'I' for Inactive)
REMARK    1  A    between atoms: N1_2  and  C2_3 
REMARK    2  A    between atoms: N1_2  and  C10_13 
REMARK    3  A    between atoms: C4_5  and  C5_6 
REMARK    4  A    between atoms: C5_6  and  N2_7 
REMARK    5  A    between atoms: N2_7  and  C6_8 
REMARK    6  A    between atoms: C6_8  and  C7_9 
REMARK    7  A    between atoms: C16_22  and  C17_23 
ROOT
HETATM    1  C7  UNL     1      29.118  11.026  47.773  1.00  0.00     0.153 C 
HETATM    2  C8  UNL     1      28.649  12.151  48.617  1.00  0.00     0.060 C 
HETATM    3  N3  UNL     1      28.284  13.015  49.290  1.00  0.00    -0.197 NA
ENDROOT
BRANCH   1   4
HETATM    4  C6  UNL     1      27.927  10.099  47.553  1.00  0.00     0.283 C 
BRANCH   4   5
HETATM    5  N2  UNL     1      26.686  10.747  47.838  1.00  0.00     0.084 N 
HETATM    6  H10 UNL     1      26.595  11.704  47.492  1.00  0.00     0.315 HD
BRANCH   5   7
HETATM    7  C5  UNL     1      25.552   9.959  47.482  1.00  0.00     0.274 C 
BRANCH   7   8
HETATM    8  C4  UNL     1      25.276   8.806  48.391  1.00  0.00     0.017 C 
HETATM    9  C3  UNL     1      23.799   8.626  48.653  1.00  0.00     0.031 C 
HETATM   10  C2  UNL     1      24.037   7.153  48.609  1.00  0.00     0.081 C 
HETATM   11  C9  UNL     1      25.263   7.430  47.760  1.00  0.00     0.031 C 
BRANCH  10  12
HETATM   12  N1  UNL     1      24.187   6.426  49.782  1.00  0.00    -0.387 N 
HETATM   13  C1  UNL     1      24.629   6.989  50.977  1.00  0.00     0.146 C 
BRANCH  12  14
HETATM   14  C10 UNL     1      23.587   5.146  49.824  1.00  0.00     0.241 A 
HETATM   15  N4  UNL     1      22.494   5.052  50.770  1.00  0.00    -0.252 NA
HETATM   16  C11 UNL     1      22.572   4.143  51.679  1.00  0.00     0.230 A 
HETATM   17  N5  UNL     1      23.571   3.141  51.976  1.00  0.00    -0.243 NA
HETATM   18  C12 UNL     1      24.641   3.074  51.222  1.00  0.00     0.079 A 
HETATM   19  C13 UNL     1      24.588   4.093  50.180  1.00  0.00     0.026 A 
HETATM   20  C16 UNL     1      25.847   2.226  51.194  1.00  0.00     0.209 C 
HETATM   21  C14 UNL     1      25.591   4.161  49.343  1.00  0.00     0.011 C 
HETATM   22  C15 UNL     1      26.789   4.075  49.848  1.00  0.00     0.148 C 
HETATM   23  O1  UNL     1      26.935   3.026  50.744  1.00  0.00    -0.348 OA
BRANCH  20  24
HETATM   24  C17 UNL     1      26.100   1.720  52.606  1.00  0.00     0.157 C 
HETATM   25  C18 UNL     1      25.918   0.219  52.550  1.00  0.00     0.037 C 
HETATM   26  C19 UNL     1      27.148  -0.279  53.265  1.00  0.00     0.029 C 
HETATM   27  C20 UNL     1      28.126   0.855  53.042  1.00  0.00     0.168 C 
HETATM   28  O2  UNL     1      27.362   1.995  53.061  1.00  0.00    -0.383 OA
ENDBRANCH  20  24
ENDBRANCH  12  14
ENDBRANCH  10  12
ENDBRANCH   7   8
ENDBRANCH   5   7
ENDBRANCH   4   5
ENDBRANCH   1   4
TORSDOF 7
ENDMDL
MODEL 6
REMARK VINA RESULT:      -6.1      8.465     10.238
REMARK  7 active torsions:
REMARK  status: ('A' for Active; 'I' for Inactive)
REMARK    1  A    between atoms: N1_2  and  C2_3 
REMARK    2  A    between atoms: N1_2  and  C10_13 
REMARK    3  A    between atoms: C4_5  and  C5_6 
REMARK    4  A    between atoms: C5_6  and  N2_7 
REMARK    5  A    between atoms: N2_7  and  C6_8 
REMARK    6  A    between atoms: C6_8  and  C7_9 
REMARK    7  A    between atoms: C16_22  and  C17_23 
ROOT
HETATM    1  C7  UNL     1      33.500   5.439  41.745  1.00  0.00     0.153 C 
HETATM    2  C8  UNL     1      33.970   6.784  42.153  1.00  0.00     0.060 C 
HETATM    3  N3  UNL     1      34.354   7.826  42.469  1.00  0.00    -0.197 NA
ENDROOT
BRANCH   1   4
HETATM    4  C6  UNL     1      33.800   4.487  42.899  1.00  0.00     0.283 C 
BRANCH   4   5
HETATM    5  N2  UNL     1      33.773   5.153  44.162  1.00  0.00     0.084 N 
HETATM    6  H10 UNL     1      33.433   6.116  44.150  1.00  0.00     0.315 HD
BRANCH   5   7
HETATM    7  C5  UNL     1      33.126   4.390  45.179  1.00  0.00     0.274 C 
BRANCH   7   8
HETATM    8  C4  UNL     1      32.454   5.198  46.241  1.00  0.00     0.017 C 
HETATM    9  C3  UNL     1      33.300   5.321  47.487  1.00  0.00     0.031 C 
HETATM   10  C2  UNL     1      32.805   6.724  47.606  1.00  0.00     0.081 C 
HETATM   11  C9  UNL     1      32.546   6.703  46.111  1.00  0.00     0.031 C 
BRANCH  10  12
HETATM   12  N1  UNL     1      31.757   7.034  48.461  1.00  0.00    -0.387 N 
HETATM   13  C1  UNL     1      31.672   6.556  49.767  1.00  0.00     0.146 C 
BRANCH  12  14
HETATM   14  C10 UNL     1      30.914   8.104  48.081  1.00  0.00     0.241 A 
HETATM   15  N4  UNL     1      31.140   9.315  48.843  1.00  0.00    -0.252 NA
HETATM   16  C11 UNL     1      30.132   9.822  49.465  1.00  0.00     0.230 A 
HETATM   17  N5  UNL     1      28.748   9.421  49.573  1.00  0.00    -0.243 NA
HETATM   18  C12 UNL     1      28.354   8.338  48.947  1.00  0.00     0.079 A 
HETATM   19  C13 UNL     1      29.472   7.735  48.231  1.00  0.00     0.026 A 
HETATM   20  C16 UNL     1      27.075   7.619  48.810  1.00  0.00     0.209 C 
HETATM   21  C14 UNL     1      29.243   6.637  47.558  1.00  0.00     0.011 C 
HETATM   22  C15 UNL     1      28.519   5.725  48.141  1.00  0.00     0.148 C 
HETATM   23  O1  UNL     1      27.362   6.227  48.719  1.00  0.00    -0.348 OA
BRANCH  20  24
HETATM   24  C17 UNL     1      26.234   7.914  50.043  1.00  0.00     0.157 C 
HETATM   25  C18 UNL     1      25.161   8.882  49.596  1.00  0.00     0.037 C 
HETATM   26  C19 UNL     1      23.912   8.262  50.167  1.00  0.00     0.029 C 
HETATM   27  C20 UNL     1      24.296   6.801  50.258  1.00  0.00     0.168 C 
HETATM   28  O2  UNL     1      25.633   6.800  50.567  1.00  0.00    -0.383 OA
ENDBRANCH  20  24
ENDBRANCH  12  14
ENDBRANCH  10  12
ENDBRANCH   7   8
ENDBRANCH   5   7
ENDBRANCH   4   5
ENDBRANCH   1   4
TORSDOF 7
ENDMDL
MODEL 7
REMARK VINA RESULT:      -5.9      2.905      8.676
REMARK  7 active torsions:
REMARK  status: ('A' for Active; 'I' for Inactive)
REMARK    1  A    between atoms: N1_2  and  C2_3 
REMARK    2  A    between atoms: N1_2  and  C10_13 
REMARK    3  A    between atoms: C4_5  and  C5_6 
REMARK    4  A    between atoms: C5_6  and  N2_7 
REMARK    5  A    between atoms: N2_7  and  C6_8 
REMARK    6  A    between atoms: C6_8  and  C7_9 
REMARK    7  A    between atoms: C16_22  and  C17_23 
ROOT
HETATM    1  C7  UNL     1      19.251   9.654  49.759  1.00  0.00     0.153 C 
HETATM    2  C8  UNL     1      20.015  10.870  49.392  1.00  0.00     0.060 C 
HETATM    3  N3  UNL     1      20.593  11.826  49.102  1.00  0.00    -0.197 NA
ENDROOT
BRANCH   1   4
HETATM    4  C6  UNL     1      18.741   9.032  48.463  1.00  0.00     0.283 C 
BRANCH   4   5
HETATM    5  N2  UNL     1      18.969   7.622  48.421  1.00  0.00     0.084 N 
HETATM    6  H10 UNL     1      18.221   7.064  48.003  1.00  0.00     0.315 HD
BRANCH   5   7
HETATM    7  C5  UNL     1      20.239   7.280  47.870  1.00  0.00     0.274 C 
BRANCH   7   8
HETATM    8  C4  UNL     1      21.185   6.628  48.824  1.00  0.00     0.017 C 
HETATM    9  C3  UNL     1      21.730   5.325  48.287  1.00  0.00     0.031 C 
HETATM   10  C2  UNL     1      23.036   5.689  48.911  1.00  0.00     0.081 C 
HETATM   11  C9  UNL     1      22.608   7.143  48.830  1.00  0.00     0.031 C 
BRANCH  10  12
HETATM   12  N1  UNL     1      23.401   5.169  50.144  1.00  0.00    -0.387 N 
HETATM   13  C1  UNL     1      23.683   5.963  51.254  1.00  0.00     0.146 C 
BRANCH  12  14
HETATM   14  C10 UNL     1      23.187   3.785  50.346  1.00  0.00     0.241 A 
HETATM   15  N4  UNL     1      22.230   3.496  51.394  1.00  0.00    -0.252 NA
HETATM   16  C11 UNL     1      22.621   2.742  52.363  1.00  0.00     0.230 A 
HETATM   17  N5  UNL     1      23.877   2.084  52.644  1.00  0.00    -0.243 NA
HETATM   18  C12 UNL     1      24.870   2.233  51.801  1.00  0.00     0.079 A 
HETATM   19  C13 UNL     1      24.464   3.086  50.689  1.00  0.00     0.026 A 
HETATM   20  C16 UNL     1      26.259   1.747  51.728  1.00  0.00     0.209 C 
HETATM   21  C14 UNL     1      25.349   3.338  49.760  1.00  0.00     0.011 C 
HETATM   22  C15 UNL     1      26.555   3.633  50.156  1.00  0.00     0.148 C 
HETATM   23  O1  UNL     1      27.048   2.762  51.116  1.00  0.00    -0.348 OA
BRANCH  20  24
HETATM   24  C17 UNL     1      26.739   1.477  53.146  1.00  0.00     0.157 C 
HETATM   25  C18 UNL     1      27.658   0.279  53.056  1.00  0.00     0.037 C 
HETATM   26  C19 UNL     1      28.858   0.735  53.845  1.00  0.00     0.029 C 
HETATM   27  C20 UNL     1      28.775   2.240  53.708  1.00  0.00     0.168 C 
HETATM   28  O2  UNL     1      27.432   2.525  53.692  1.00  0.00    -0.383 OA
ENDBRANCH  20  24
ENDBRANCH  12  14
ENDBRANCH  10  12
ENDBRANCH   7   8
ENDBRANCH   5   7
ENDBRANCH   4   5
ENDBRANCH   1   4
TORSDOF 7
ENDMDL
MODEL 8
REMARK VINA RESULT:      -5.9      2.985      4.574
REMARK  7 active torsions:
REMARK  status: ('A' for Active; 'I' for Inactive)
REMARK    1  A    between atoms: N1_2  and  C2_3 
REMARK    2  A    between atoms: N1_2  and  C10_13 
REMARK    3  A    between atoms: C4_5  and  C5_6 
REMARK    4  A    between atoms: C5_6  and  N2_7 
REMARK    5  A    between atoms: N2_7  and  C6_8 
REMARK    6  A    between atoms: C6_8  and  C7_9 
REMARK    7  A    between atoms: C16_22  and  C17_23 
ROOT
HETATM    1  C7  UNL     1      27.925   0.099  53.883  1.00  0.00     0.153 C 
HETATM    2  C8  UNL     1      28.316  -1.272  53.477  1.00  0.00     0.060 C 
HETATM    3  N3  UNL     1      28.614  -2.337  53.143  1.00  0.00    -0.197 NA
ENDROOT
BRANCH   1   4
HETATM    4  C6  UNL     1      26.409   0.104  54.052  1.00  0.00     0.283 C 
BRANCH   4   5
HETATM    5  N2  UNL     1      25.741   0.560  52.874  1.00  0.00     0.084 N 
HETATM    6  H10 UNL     1      24.772   0.255  52.767  1.00  0.00     0.315 HD
BRANCH   5   7
HETATM    7  C5  UNL     1      25.866   1.966  52.673  1.00  0.00     0.274 C 
BRANCH   7   8
HETATM    8  C4  UNL     1      24.618   2.651  52.218  1.00  0.00     0.017 C 
HETATM    9  C3  UNL     1      24.875   3.608  51.078  1.00  0.00     0.031 C 
HETATM   10  C2  UNL     1      23.569   3.171  50.503  1.00  0.00     0.081 C 
HETATM   11  C9  UNL     1      23.722   1.875  51.276  1.00  0.00     0.031 C 
BRANCH  10  12
HETATM   12  N1  UNL     1      22.423   3.931  50.693  1.00  0.00    -0.387 N 
HETATM   13  C1  UNL     1      22.332   4.950  51.638  1.00  0.00     0.146 C 
BRANCH  12  14
HETATM   14  C10 UNL     1      21.429   3.854  49.690  1.00  0.00     0.241 A 
HETATM   15  N4  UNL     1      21.262   5.087  48.947  1.00  0.00    -0.252 NA
HETATM   16  C11 UNL     1      20.086   5.610  48.921  1.00  0.00     0.230 A 
HETATM   17  N5  UNL     1      18.826   5.211  49.506  1.00  0.00    -0.243 NA
HETATM   18  C12 UNL     1      18.781   4.113  50.221  1.00  0.00     0.079 A 
HETATM   19  C13 UNL     1      20.100   3.492  50.274  1.00  0.00     0.026 A 
HETATM   20  C16 UNL     1      17.730   3.389  50.958  1.00  0.00     0.209 C 
HETATM   21  C14 UNL     1      20.225   2.384  50.958  1.00  0.00     0.011 C 
HETATM   22  C15 UNL     1      19.643   2.340  52.122  1.00  0.00     0.148 C 
HETATM   23  O1  UNL     1      18.330   2.787  52.100  1.00  0.00    -0.348 OA
BRANCH  20  24
HETATM   24  C17 UNL     1      16.670   4.397  51.377  1.00  0.00     0.157 C 
HETATM   25  C18 UNL     1      15.452   4.099  50.531  1.00  0.00     0.037 C 
HETATM   26  C19 UNL     1      14.348   4.071  51.556  1.00  0.00     0.029 C 
HETATM   27  C20 UNL     1      15.096   3.696  52.818  1.00  0.00     0.168 C 
HETATM   28  O2  UNL     1      16.323   4.299  52.699  1.00  0.00    -0.383 OA
ENDBRANCH  20  24
ENDBRANCH  12  14
ENDBRANCH  10  12
ENDBRANCH   7   8
ENDBRANCH   5   7
ENDBRANCH   4   5
ENDBRANCH   1   4
TORSDOF 7
ENDMDL
MODEL 9
REMARK VINA RESULT:      -5.9     10.224     12.046
REMARK  7 active torsions:
REMARK  status: ('A' for Active; 'I' for Inactive)
REMARK    1  A    between atoms: N1_2  and  C2_3 
REMARK    2  A    between atoms: N1_2  and  C10_13 
REMARK    3  A    between atoms: C4_5  and  C5_6 
REMARK    4  A    between atoms: C5_6  and  N2_7 
REMARK    5  A    between atoms: N2_7  and  C6_8 
REMARK    6  A    between atoms: C6_8  and  C7_9 
REMARK    7  A    between atoms: C16_22  and  C17_23 
ROOT
HETATM    1  C7  UNL     1      33.801   3.349  40.287  1.00  0.00     0.153 C 
HETATM    2  C8  UNL     1      32.757   2.300  40.197  1.00  0.00     0.060 C 
HETATM    3  N3  UNL     1      31.935   1.493  40.114  1.00  0.00    -0.197 NA
ENDROOT
BRANCH   1   4
HETATM    4  C6  UNL     1      33.200   4.518  41.061  1.00  0.00     0.283 C 
BRANCH   4   5
HETATM    5  N2  UNL     1      33.162   4.264  42.467  1.00  0.00     0.084 N 
HETATM    6  H10 UNL     1      32.994   3.293  42.738  1.00  0.00     0.315 HD
BRANCH   5   7
HETATM    7  C5  UNL     1      34.282   4.808  43.161  1.00  0.00     0.274 C 
BRANCH   7   8
HETATM    8  C4  UNL     1      34.150   4.834  44.649  1.00  0.00     0.017 C 
HETATM    9  C3  UNL     1      33.793   6.207  45.167  1.00  0.00     0.031 C 
HETATM   10  C2  UNL     1      32.921   5.529  46.172  1.00  0.00     0.081 C 
HETATM   11  C9  UNL     1      32.837   4.348  45.223  1.00  0.00     0.031 C 
BRANCH  10  12
HETATM   12  N1  UNL     1      33.370   5.314  47.468  1.00  0.00    -0.387 N 
HETATM   13  C1  UNL     1      34.696   5.017  47.775  1.00  0.00     0.146 C 
BRANCH  12  14
HETATM   14  C10 UNL     1      32.508   5.703  48.519  1.00  0.00     0.241 A 
HETATM   15  N4  UNL     1      31.215   5.052  48.475  1.00  0.00    -0.252 NA
HETATM   16  C11 UNL     1      30.171   5.807  48.439  1.00  0.00     0.230 A 
HETATM   17  N5  UNL     1      30.003   7.242  48.432  1.00  0.00    -0.243 NA
HETATM   18  C12 UNL     1      31.070   8.003  48.465  1.00  0.00     0.079 A 
HETATM   19  C13 UNL     1      32.274   7.181  48.505  1.00  0.00     0.026 A 
HETATM   20  C16 UNL     1      31.316   9.456  48.472  1.00  0.00     0.209 C 
HETATM   21  C14 UNL     1      33.430   7.793  48.536  1.00  0.00     0.011 C 
HETATM   22  C15 UNL     1      33.584   8.805  47.729  1.00  0.00     0.148 C 
HETATM   23  O1  UNL     1      32.525   9.700  47.759  1.00  0.00    -0.348 OA
BRANCH  20  24
HETATM   24  C17 UNL     1      30.142  10.137  47.786  1.00  0.00     0.157 C 
HETATM   25  C18 UNL     1      30.242  11.603  48.141  1.00  0.00     0.037 C 
HETATM   26  C19 UNL     1      30.073  12.270  46.800  1.00  0.00     0.029 C 
HETATM   27  C20 UNL     1      30.553  11.195  45.848  1.00  0.00     0.168 C 
HETATM   28  O2  UNL     1      30.165  10.010  46.422  1.00  0.00    -0.383 OA
ENDBRANCH  20  24
ENDBRANCH  12  14
ENDBRANCH  10  12
ENDBRANCH   7   8
ENDBRANCH   5   7
ENDBRANCH   4   5
ENDBRANCH   1   4
TORSDOF 7
ENDMDL
