MODEL 1
REMARK VINA RESULT:      -8.6      0.000      0.000
REMARK  1 active torsions:
REMARK  status: ('A' for Active; 'I' for Inactive)
REMARK    1  A    between atoms: C8_10  and  C9_11 
ROOT
HETATM    1  O1  UNL     1      22.234   1.193  52.857  1.00  0.00    -0.273 OA
HETATM    2  C1  UNL     1      21.050   1.551  52.836  1.00  0.00     0.223 C 
HETATM    3  C2  UNL     1      21.307   2.917  52.357  1.00  0.00     0.125 C 
HETATM    4  C3  UNL     1      22.689   2.989  51.787  1.00  0.00     0.157 C 
HETATM    5  N1  UNL     1      23.736   2.629  52.714  1.00  0.00    -0.299 NA
HETATM    6  C4  UNL     1      24.776   1.967  52.238  1.00  0.00     0.141 C 
HETATM    7  C5  UNL     1      26.019   1.409  52.734  1.00  0.00     0.073 A 
HETATM    8  C6  UNL     1      27.121   2.275  52.628  1.00  0.00     0.035 A 
HETATM    9  C7  UNL     1      28.272   1.649  53.136  1.00  0.00     0.030 A 
HETATM   10  C8  UNL     1      27.760   0.406  53.525  1.00  0.00     0.039 A 
HETATM   11  N2  UNL     1      26.447   0.285  53.283  1.00  0.00    -0.258 N 
HETATM   12  N3  UNL     1      25.773  -0.871  53.606  1.00  0.00    -0.292 N 
HETATM   13  C12 UNL     1      24.379  -0.878  53.883  1.00  0.00     0.072 C 
HETATM   14  C13 UNL     1      24.205  -1.003  55.219  1.00  0.00     0.166 C 
HETATM   15  O2  UNL     1      22.892  -1.323  55.674  1.00  0.00    -0.355 OA
HETATM   16  C14 UNL     1      21.941  -1.669  54.632  1.00  0.00     0.231 C 
HETATM   17  C15 UNL     1      22.160  -0.702  53.513  1.00  0.00     0.038 C 
HETATM   18  C16 UNL     1      23.322  -0.716  52.880  1.00  0.00     0.060 C 
HETATM   19  N4  UNL     1      21.026   0.179  53.298  1.00  0.00    -0.329 N 
HETATM   20  H13 UNL     1      26.156  -1.821  53.701  1.00  0.00     0.187 HD
HETATM   21  H18 UNL     1      20.058  -0.154  53.478  1.00  0.00     0.168 HD
ENDROOT
BRANCH  10  22
HETATM   22  C9  UNL     1      28.752  -0.555  54.129  1.00  0.00     0.038 A 
HETATM   23  C10 UNL     1      29.208  -1.702  53.227  1.00  0.00     0.011 A 
HETATM   24  C11 UNL     1      30.139  -0.627  53.674  1.00  0.00     0.011 A 
ENDBRANCH  10  22
TORSDOF 1
ENDMDL
MODEL 2
REMARK VINA RESULT:      -8.3      2.748      5.084
REMARK  1 active torsions:
REMARK  status: ('A' for Active; 'I' for Inactive)
REMARK    1  A    between atoms: C8_10  and  C9_11 
ROOT
HETATM    1  O1  UNL     1      24.603  -0.103  53.544  1.00  0.00    -0.273 OA
HETATM    2  C1  UNL     1      24.267  -0.939  54.391  1.00  0.00     0.223 C 
HETATM    3  C2  UNL     1      22.819  -0.797  54.189  1.00  0.00     0.125 C 
HETATM    4  C3  UNL     1      22.567  -0.107  52.885  1.00  0.00     0.157 C 
HETATM    5  N1  UNL     1      23.171   1.201  52.776  1.00  0.00    -0.299 NA
HETATM    6  C4  UNL     1      23.652   1.558  51.599  1.00  0.00     0.141 C 
HETATM    7  C5  UNL     1      24.318   2.703  51.008  1.00  0.00     0.073 A 
HETATM    8  C6  UNL     1      23.446   3.625  50.401  1.00  0.00     0.035 A 
HETATM    9  C7  UNL     1      24.181   4.695  49.863  1.00  0.00     0.030 A 
HETATM   10  C8  UNL     1      25.488   4.326  50.198  1.00  0.00     0.039 A 
HETATM   11  N2  UNL     1      25.548   3.164  50.863  1.00  0.00    -0.258 N 
HETATM   12  N3  UNL     1      26.755   2.648  51.276  1.00  0.00    -0.292 N 
HETATM   13  C12 UNL     1      26.859   1.775  52.392  1.00  0.00     0.072 C 
HETATM   14  C13 UNL     1      27.372   2.467  53.436  1.00  0.00     0.166 C 
HETATM   15  O2  UNL     1      27.826   1.710  54.556  1.00  0.00    -0.355 OA
HETATM   16  C14 UNL     1      27.862   0.272  54.358  1.00  0.00     0.231 C 
HETATM   17  C15 UNL     1      26.608  -0.094  53.632  1.00  0.00     0.038 C 
HETATM   18  C16 UNL     1      26.422   0.376  52.409  1.00  0.00     0.060 C 
HETATM   19  N4  UNL     1      25.715  -0.919  54.427  1.00  0.00    -0.329 N 
HETATM   20  H13 UNL     1      27.687   2.820  50.876  1.00  0.00     0.187 HD
HETATM   21  H18 UNL     1      26.097  -1.595  55.118  1.00  0.00     0.168 HD
ENDROOT
BRANCH  10  22
HETATM   22  C9  UNL     1      26.573   5.276  49.757  1.00  0.00     0.038 A 
HETATM   23  C10 UNL     1      27.468   4.790  48.617  1.00  0.00     0.011 A 
HETATM   24  C11 UNL     1      26.539   5.945  48.458  1.00  0.00     0.011 A 
ENDBRANCH  10  22
TORSDOF 1
ENDMDL
MODEL 3
REMARK VINA RESULT:      -8.2      2.040      6.376
REMARK  1 active torsions:
REMARK  status: ('A' for Active; 'I' for Inactive)
REMARK    1  A    between atoms: C8_10  and  C9_11 
ROOT
HETATM    1  O1  UNL     1      26.382   1.702  52.613  1.00  0.00    -0.273 OA
HETATM    2  C1  UNL     1      27.540   2.134  52.627  1.00  0.00     0.223 C 
HETATM    3  C2  UNL     1      28.046   1.203  53.644  1.00  0.00     0.125 C 
HETATM    4  C3  UNL     1      27.093   0.056  53.781  1.00  0.00     0.157 C 
HETATM    5  N1  UNL     1      25.748   0.438  54.144  1.00  0.00    -0.299 NA
HETATM    6  C4  UNL     1      24.751  -0.246  53.611  1.00  0.00     0.141 C 
HETATM    7  C5  UNL     1      23.301  -0.251  53.656  1.00  0.00     0.073 A 
HETATM    8  C6  UNL     1      22.760  -1.122  54.617  1.00  0.00     0.035 A 
HETATM    9  C7  UNL     1      21.356  -1.055  54.587  1.00  0.00     0.030 A 
HETATM   10  C8  UNL     1      21.149  -0.114  53.572  1.00  0.00     0.039 A 
HETATM   11  N2  UNL     1      22.293   0.342  53.042  1.00  0.00    -0.258 N 
HETATM   12  N3  UNL     1      22.280   1.278  52.033  1.00  0.00    -0.292 N 
HETATM   13  C12 UNL     1      23.367   2.167  51.817  1.00  0.00     0.072 C 
HETATM   14  C13 UNL     1      23.019   3.393  52.272  1.00  0.00     0.166 C 
HETATM   15  O2  UNL     1      23.850   4.487  51.887  1.00  0.00    -0.355 OA
HETATM   16  C14 UNL     1      24.859   4.178  50.889  1.00  0.00     0.231 C 
HETATM   17  C15 UNL     1      25.444   2.855  51.266  1.00  0.00     0.038 C 
HETATM   18  C16 UNL     1      24.663   1.787  51.248  1.00  0.00     0.060 C 
HETATM   19  N4  UNL     1      26.841   2.945  51.651  1.00  0.00    -0.329 N 
HETATM   20  H13 UNL     1      21.531   1.465  51.353  1.00  0.00     0.187 HD
HETATM   21  H18 UNL     1      27.465   3.652  51.214  1.00  0.00     0.168 HD
ENDROOT
BRANCH  10  22
HETATM   22  C9  UNL     1      19.710   0.209  53.259  1.00  0.00     0.038 A 
HETATM   23  C10 UNL     1      19.220  -0.190  51.867  1.00  0.00     0.011 A 
HETATM   24  C11 UNL     1      18.696  -0.832  53.106  1.00  0.00     0.011 A 
ENDBRANCH  10  22
TORSDOF 1
ENDMDL
MODEL 4
REMARK VINA RESULT:      -7.8      2.315      4.675
REMARK  1 active torsions:
REMARK  status: ('A' for Active; 'I' for Inactive)
REMARK    1  A    between atoms: C8_10  and  C9_11 
ROOT
HETATM    1  O1  UNL     1      21.361  -0.148  53.258  1.00  0.00    -0.273 OA
HETATM    2  C1  UNL     1      20.574  -0.948  53.777  1.00  0.00     0.223 C 
HETATM    3  C2  UNL     1      21.589  -1.715  54.512  1.00  0.00     0.125 C 
HETATM    4  C3  UNL     1      22.855  -0.920  54.580  1.00  0.00     0.157 C 
HETATM    5  N1  UNL     1      23.403  -0.559  53.294  1.00  0.00    -0.299 NA
HETATM    6  C4  UNL     1      23.978   0.625  53.181  1.00  0.00     0.141 C 
HETATM    7  C5  UNL     1      24.640   1.410  52.158  1.00  0.00     0.073 A 
HETATM    8  C6  UNL     1      26.038   1.257  52.131  1.00  0.00     0.035 A 
HETATM    9  C7  UNL     1      26.586   2.050  51.109  1.00  0.00     0.030 A 
HETATM   10  C8  UNL     1      25.437   2.645  50.576  1.00  0.00     0.039 A 
HETATM   11  N2  UNL     1      24.314   2.260  51.200  1.00  0.00    -0.258 N 
HETATM   12  N3  UNL     1      23.087   2.742  50.806  1.00  0.00    -0.292 N 
HETATM   13  C12 UNL     1      21.886   2.013  51.023  1.00  0.00     0.072 C 
HETATM   14  C13 UNL     1      21.488   1.475  49.847  1.00  0.00     0.166 C 
HETATM   15  O2  UNL     1      20.161   0.956  49.788  1.00  0.00    -0.355 OA
HETATM   16  C14 UNL     1      19.330   1.245  50.943  1.00  0.00     0.231 C 
HETATM   17  C15 UNL     1      20.188   1.045  52.151  1.00  0.00     0.038 C 
HETATM   18  C16 UNL     1      21.235   1.837  52.324  1.00  0.00     0.060 C 
HETATM   19  N4  UNL     1      19.750  -0.065  52.977  1.00  0.00    -0.329 N 
HETATM   20  H13 UNL     1      22.880   3.624  50.319  1.00  0.00     0.187 HD
HETATM   21  H18 UNL     1      18.741  -0.306  53.046  1.00  0.00     0.168 HD
ENDROOT
BRANCH  10  22
HETATM   22  C9  UNL     1      25.660   3.593  49.426  1.00  0.00     0.038 A 
HETATM   23  C10 UNL     1      25.775   5.074  49.789  1.00  0.00     0.011 A 
HETATM   24  C11 UNL     1      26.924   4.301  49.237  1.00  0.00     0.011 A 
ENDBRANCH  10  22
TORSDOF 1
ENDMDL
MODEL 5
REMARK VINA RESULT:      -7.6      1.891      3.895
REMARK  1 active torsions:
REMARK  status: ('A' for Active; 'I' for Inactive)
REMARK    1  A    between atoms: C8_10  and  C9_11 
ROOT
HETATM    1  O1  UNL     1      21.732   2.223  52.105  1.00  0.00    -0.273 OA
HETATM    2  C1  UNL     1      20.566   2.402  51.736  1.00  0.00     0.223 C 
HETATM    3  C2  UNL     1      20.095   1.042  52.035  1.00  0.00     0.125 C 
HETATM    4  C3  UNL     1      21.073   0.371  52.948  1.00  0.00     0.157 C 
HETATM    5  N1  UNL     1      22.415   0.281  52.422  1.00  0.00    -0.299 NA
HETATM    6  C4  UNL     1      23.418   0.421  53.271  1.00  0.00     0.141 C 
HETATM    7  C5  UNL     1      24.868   0.414  53.238  1.00  0.00     0.073 A 
HETATM    8  C6  UNL     1      25.442  -0.842  53.503  1.00  0.00     0.035 A 
HETATM    9  C7  UNL     1      26.843  -0.749  53.446  1.00  0.00     0.030 A 
HETATM   10  C8  UNL     1      27.016   0.606  53.140  1.00  0.00     0.039 A 
HETATM   11  N2  UNL     1      25.855   1.266  53.024  1.00  0.00    -0.258 N 
HETATM   12  N3  UNL     1      25.833   2.608  52.721  1.00  0.00    -0.292 N 
HETATM   13  C12 UNL     1      24.725   3.216  52.072  1.00  0.00     0.072 C 
HETATM   14  C13 UNL     1      25.054   3.447  50.780  1.00  0.00     0.166 C 
HETATM   15  O2  UNL     1      24.196   4.310  50.037  1.00  0.00    -0.355 OA
HETATM   16  C14 UNL     1      23.178   4.993  50.815  1.00  0.00     0.231 C 
HETATM   17  C15 UNL     1      22.626   3.989  51.775  1.00  0.00     0.038 C 
HETATM   18  C16 UNL     1      23.428   3.487  52.700  1.00  0.00     0.060 C 
HETATM   19  N4  UNL     1      21.233   3.668  51.518  1.00  0.00    -0.329 N 
HETATM   20  H13 UNL     1      26.567   3.308  52.895  1.00  0.00     0.187 HD
HETATM   21  H18 UNL     1      20.588   4.387  51.133  1.00  0.00     0.168 HD
ENDROOT
BRANCH  10  22
HETATM   22  C9  UNL     1      28.443   1.072  53.004  1.00  0.00     0.038 A 
HETATM   23  C10 UNL     1      29.068   1.693  54.253  1.00  0.00     0.011 A 
HETATM   24  C11 UNL     1      29.548   0.401  53.685  1.00  0.00     0.011 A 
ENDBRANCH  10  22
TORSDOF 1
ENDMDL
MODEL 6
REMARK VINA RESULT:      -7.4      2.345      5.537
REMARK  1 active torsions:
REMARK  status: ('A' for Active; 'I' for Inactive)
REMARK    1  A    between atoms: C8_10  and  C9_11 
ROOT
HETATM    1  O1  UNL     1      22.992   0.020  53.355  1.00  0.00    -0.273 OA
HETATM    2  C1  UNL     1      22.808  -1.063  53.923  1.00  0.00     0.223 C 
HETATM    3  C2  UNL     1      21.341  -0.982  53.946  1.00  0.00     0.125 C 
HETATM    4  C3  UNL     1      20.888   0.058  52.970  1.00  0.00     0.157 C 
HETATM    5  N1  UNL     1      21.419   1.379  53.216  1.00  0.00    -0.299 NA
HETATM    6  C4  UNL     1      21.722   2.124  52.168  1.00  0.00     0.141 C 
HETATM    7  C5  UNL     1      22.256   3.445  51.902  1.00  0.00     0.073 A 
HETATM    8  C6  UNL     1      21.274   4.437  51.727  1.00  0.00     0.035 A 
HETATM    9  C7  UNL     1      21.886   5.677  51.479  1.00  0.00     0.030 A 
HETATM   10  C8  UNL     1      23.241   5.329  51.525  1.00  0.00     0.039 A 
HETATM   11  N2  UNL     1      23.436   4.026  51.771  1.00  0.00    -0.258 N 
HETATM   12  N3  UNL     1      24.707   3.505  51.855  1.00  0.00    -0.292 N 
HETATM   13  C12 UNL     1      24.995   2.339  52.614  1.00  0.00     0.072 C 
HETATM   14  C13 UNL     1      25.617   2.710  53.757  1.00  0.00     0.166 C 
HETATM   15  O2  UNL     1      26.248   1.679  54.515  1.00  0.00    -0.355 OA
HETATM   16  C14 UNL     1      26.314   0.383  53.865  1.00  0.00     0.231 C 
HETATM   17  C15 UNL     1      24.988   0.163  53.210  1.00  0.00     0.038 C 
HETATM   18  C16 UNL     1      24.621   0.974  52.231  1.00  0.00     0.060 C 
HETATM   19  N4  UNL     1      24.245  -0.939  53.796  1.00  0.00    -0.329 N 
HETATM   20  H13 UNL     1      25.569   3.868  51.426  1.00  0.00     0.187 HD
HETATM   21  H18 UNL     1      24.743  -1.763  54.186  1.00  0.00     0.168 HD
ENDROOT
BRANCH  10  22
HETATM   22  C9  UNL     1      24.217   6.453  51.289  1.00  0.00     0.038 A 
HETATM   23  C10 UNL     1      24.708   6.625  49.851  1.00  0.00     0.011 A 
HETATM   24  C11 UNL     1      23.858   7.647  50.526  1.00  0.00     0.011 A 
ENDBRANCH  10  22
TORSDOF 1
ENDMDL
MODEL 7
REMARK VINA RESULT:      -7.4      3.220      5.958
REMARK  1 active torsions:
REMARK  status: ('A' for Active; 'I' for Inactive)
REMARK    1  A    between atoms: C8_10  and  C9_11 
ROOT
HETATM    1  O1  UNL     1      24.869   4.850  49.526  1.00  0.00    -0.273 OA
HETATM    2  C1  UNL     1      25.331   5.812  48.902  1.00  0.00     0.223 C 
HETATM    3  C2  UNL     1      26.735   5.383  48.967  1.00  0.00     0.125 C 
HETATM    4  C3  UNL     1      26.792   3.933  49.332  1.00  0.00     0.157 C 
HETATM    5  N1  UNL     1      26.160   3.610  50.590  1.00  0.00    -0.299 NA
HETATM    6  C4  UNL     1      25.514   2.460  50.675  1.00  0.00     0.141 C 
HETATM    7  C5  UNL     1      24.757   1.720  51.665  1.00  0.00     0.073 A 
HETATM    8  C6  UNL     1      25.522   0.801  52.405  1.00  0.00     0.035 A 
HETATM    9  C7  UNL     1      24.704   0.138  53.336  1.00  0.00     0.030 A 
HETATM   10  C8  UNL     1      23.461   0.728  53.079  1.00  0.00     0.039 A 
HETATM   11  N2  UNL     1      23.512   1.645  52.103  1.00  0.00    -0.258 N 
HETATM   12  N3  UNL     1      22.382   2.330  51.719  1.00  0.00    -0.292 N 
HETATM   13  C12 UNL     1      22.448   3.622  51.129  1.00  0.00     0.072 C 
HETATM   14  C13 UNL     1      22.076   4.537  52.053  1.00  0.00     0.166 C 
HETATM   15  O2  UNL     1      21.794   5.854  51.583  1.00  0.00    -0.355 OA
HETATM   16  C14 UNL     1      21.750   6.001  50.139  1.00  0.00     0.231 C 
HETATM   17  C15 UNL     1      22.896   5.212  49.593  1.00  0.00     0.038 C 
HETATM   18  C16 UNL     1      22.902   3.900  49.764  1.00  0.00     0.060 C 
HETATM   19  N4  UNL     1      23.902   6.044  48.957  1.00  0.00    -0.329 N 
HETATM   20  H13 UNL     1      21.401   2.035  51.811  1.00  0.00     0.187 HD
HETATM   21  H18 UNL     1      23.631   6.919  48.466  1.00  0.00     0.168 HD
ENDROOT
BRANCH  10  22
HETATM   22  C9  UNL     1      22.313   0.234  53.921  1.00  0.00     0.038 A 
HETATM   23  C10 UNL     1      21.474  -0.893  53.319  1.00  0.00     0.011 A 
HETATM   24  C11 UNL     1      22.313  -1.092  54.535  1.00  0.00     0.011 A 
ENDBRANCH  10  22
TORSDOF 1
ENDMDL
MODEL 8
REMARK VINA RESULT:      -7.2      8.347     11.602
REMARK  1 active torsions:
REMARK  status: ('A' for Active; 'I' for Inactive)
REMARK    1  A    between atoms: C8_10  and  C9_11 
ROOT
HETATM    1  O1  UNL     1      32.079   7.163  48.175  1.00  0.00    -0.273 OA
HETATM    2  C1  UNL     1      33.308   7.203  48.302  1.00  0.00     0.223 C 
HETATM    3  C2  UNL     1      33.483   5.776  48.603  1.00  0.00     0.125 C 
HETATM    4  C3  UNL     1      32.250   5.031  48.197  1.00  0.00     0.157 C 
HETATM    5  N1  UNL     1      31.039   5.485  48.841  1.00  0.00    -0.299 NA
HETATM    6  C4  UNL     1      29.927   5.485  48.127  1.00  0.00     0.141 C 
HETATM    7  C5  UNL     1      28.530   5.829  48.307  1.00  0.00     0.073 A 
HETATM    8  C6  UNL     1      27.718   4.750  48.698  1.00  0.00     0.035 A 
HETATM    9  C7  UNL     1      26.390   5.182  48.850  1.00  0.00     0.030 A 
HETATM   10  C8  UNL     1      26.503   6.538  48.527  1.00  0.00     0.039 A 
HETATM   11  N2  UNL     1      27.757   6.896  48.213  1.00  0.00    -0.258 N 
HETATM   12  N3  UNL     1      28.056   8.196  47.873  1.00  0.00    -0.292 N 
HETATM   13  C12 UNL     1      29.353   8.744  48.060  1.00  0.00     0.072 C 
HETATM   14  C13 UNL     1      29.323   9.566  49.135  1.00  0.00     0.166 C 
HETATM   15  O2  UNL     1      30.439  10.435  49.317  1.00  0.00    -0.355 OA
HETATM   16  C14 UNL     1      31.384  10.471  48.215  1.00  0.00     0.231 C 
HETATM   17  C15 UNL     1      31.567   9.059  47.760  1.00  0.00     0.038 C 
HETATM   18  C16 UNL     1      30.529   8.416  47.249  1.00  0.00     0.060 C 
HETATM   19  N4  UNL     1      32.912   8.561  47.992  1.00  0.00    -0.329 N 
HETATM   20  H13 UNL     1      27.426   8.907  47.478  1.00  0.00     0.187 HD
HETATM   21  H18 UNL     1      33.728   9.203  47.942  1.00  0.00     0.168 HD
ENDROOT
BRANCH  10  22
HETATM   22  C9  UNL     1      25.226   7.337  48.582  1.00  0.00     0.038 A 
HETATM   23  C10 UNL     1      24.554   7.622  47.239  1.00  0.00     0.011 A 
HETATM   24  C11 UNL     1      23.926   6.746  48.269  1.00  0.00     0.011 A 
ENDBRANCH  10  22
TORSDOF 1
ENDMDL
MODEL 9
REMARK VINA RESULT:      -7.0      2.618      4.947
REMARK  1 active torsions:
REMARK  status: ('A' for Active; 'I' for Inactive)
REMARK    1  A    between atoms: C8_10  and  C9_11 
ROOT
HETATM    1  O1  UNL     1      20.920   4.313  51.328  1.00  0.00    -0.273 OA
HETATM    2  C1  UNL     1      20.098   5.027  50.741  1.00  0.00     0.223 C 
HETATM    3  C2  UNL     1      19.005   4.045  50.743  1.00  0.00     0.125 C 
HETATM    4  C3  UNL     1      19.303   2.977  51.748  1.00  0.00     0.157 C 
HETATM    5  N1  UNL     1      20.544   2.273  51.520  1.00  0.00    -0.299 NA
HETATM    6  C4  UNL     1      21.246   1.909  52.579  1.00  0.00     0.141 C 
HETATM    7  C5  UNL     1      22.489   1.220  52.863  1.00  0.00     0.073 A 
HETATM    8  C6  UNL     1      22.344  -0.163  53.074  1.00  0.00     0.035 A 
HETATM    9  C7  UNL     1      23.598  -0.740  53.337  1.00  0.00     0.030 A 
HETATM   10  C8  UNL     1      24.437   0.377  53.263  1.00  0.00     0.039 A 
HETATM   11  N2  UNL     1      23.773   1.509  52.986  1.00  0.00    -0.258 N 
HETATM   12  N3  UNL     1      24.439   2.708  52.871  1.00  0.00    -0.292 N 
HETATM   13  C12 UNL     1      23.933   3.778  52.084  1.00  0.00     0.072 C 
HETATM   14  C13 UNL     1      24.651   3.847  50.939  1.00  0.00     0.166 C 
HETATM   15  O2  UNL     1      24.498   5.025  50.149  1.00  0.00    -0.355 OA
HETATM   16  C14 UNL     1      23.738   6.095  50.772  1.00  0.00     0.231 C 
HETATM   17  C15 UNL     1      22.566   5.454  51.444  1.00  0.00     0.038 C 
HETATM   18  C16 UNL     1      22.787   4.617  52.444  1.00  0.00     0.060 C 
HETATM   19  N4  UNL     1      21.297   5.832  50.847  1.00  0.00    -0.329 N 
HETATM   20  H13 UNL     1      25.338   2.975  53.294  1.00  0.00     0.187 HD
HETATM   21  H18 UNL     1      21.170   6.777  50.432  1.00  0.00     0.168 HD
ENDROOT
BRANCH  10  22
HETATM   22  C9  UNL     1      25.902   0.118  53.506  1.00  0.00     0.038 A 
HETATM   23  C10 UNL     1      26.565  -0.903  52.582  1.00  0.00     0.011 A 
HETATM   24  C11 UNL     1      26.933   0.542  52.561  1.00  0.00     0.011 A 
ENDBRANCH  10  22
TORSDOF 1
ENDMDL
