MODEL 1
REMARK VINA RESULT:      -8.9      0.000      0.000
REMARK  3 active torsions:
REMARK  status: ('A' for Active; 'I' for Inactive)
REMARK    1  A    between atoms: C2_3  and  C3_4 
REMARK    2  A    between atoms: C12_16  and  C15_19 
REMARK    3  A    between atoms: C15_19  and  C16_21 
ROOT
HETATM    1  C3  UNL     1      27.364   0.596  53.596  1.00  0.00     0.045 C 
HETATM    2  N1  UNL     1      26.871   1.646  53.129  1.00  0.00    -0.247 NA
HETATM    3  C4  UNL     1      26.946   2.343  51.948  1.00  0.00     0.442 C 
HETATM    4  N2  UNL     1      26.792   2.904  50.850  1.00  0.00    -0.316 NA
HETATM    5  N3  UNL     1      25.655   2.937  49.997  1.00  0.00    -0.309 N 
HETATM    6  C5  UNL     1      24.392   3.078  50.567  1.00  0.00     0.047 A 
HETATM    7  C6  UNL     1      23.692   4.263  50.685  1.00  0.00     0.031 A 
HETATM    8  C7  UNL     1      22.502   4.191  51.383  1.00  0.00     0.003 A 
HETATM    9  C8  UNL     1      21.980   3.051  51.958  1.00  0.00     0.008 A 
HETATM   10  C9  UNL     1      22.648   1.837  51.866  1.00  0.00    -0.045 A 
HETATM   11  C10 UNL     1      23.862   1.968  51.132  1.00  0.00     0.038 A 
HETATM   12  C11 UNL     1      22.122   0.696  52.612  1.00  0.00     0.011 A 
HETATM   13  C12 UNL     1      22.425  -0.224  53.659  1.00  0.00     0.035 A 
HETATM   14  C13 UNL     1      23.285  -0.893  54.578  1.00  0.00     0.058 A 
HETATM   15  C14 UNL     1      24.667  -0.937  54.963  1.00  0.00     0.121 A 
HETATM   16  C15 UNL     1      24.045  -0.179  54.010  1.00  0.00     0.067 A 
HETATM   17 CL1  UNL     1      25.181  -1.057  52.863  1.00  0.00    -0.117 Cl
HETATM   18  C16 UNL     1      23.424   0.569  53.067  1.00  0.00     0.033 A 
HETATM   19  O1  UNL     1      25.962  -0.793  55.142  1.00  0.00    -0.369 OA
HETATM   20  C17 UNL     1      26.951   0.151  54.942  1.00  0.00     0.224 C 
HETATM   21  H4  UNL     1      26.561   2.830  49.520  1.00  0.00     0.186 HD
ENDROOT
BRANCH   1  22
HETATM   22  C2  UNL     1      28.322  -0.491  53.127  1.00  0.00     0.084 C 
HETATM   23  C1  UNL     1      29.179   0.330  53.790  1.00  0.00     0.425 C 
HETATM   24  F1  UNL     1      30.474   0.601  54.207  1.00  0.00    -0.454 F 
ENDBRANCH   1  22
TORSDOF 3
ENDMDL
MODEL 2
REMARK VINA RESULT:      -8.6      3.807      5.870
REMARK  3 active torsions:
REMARK  status: ('A' for Active; 'I' for Inactive)
REMARK    1  A    between atoms: C2_3  and  C3_4 
REMARK    2  A    between atoms: C12_16  and  C15_19 
REMARK    3  A    between atoms: C15_19  and  C16_21 
ROOT
HETATM    1  C3  UNL     1      20.477   1.488  51.418  1.00  0.00     0.045 C 
HETATM    2  N1  UNL     1      21.669   1.410  51.053  1.00  0.00    -0.247 NA
HETATM    3  C4  UNL     1      22.708   2.284  50.845  1.00  0.00     0.442 C 
HETATM    4  N2  UNL     1      23.741   2.975  50.847  1.00  0.00    -0.316 NA
HETATM    5  N3  UNL     1      24.847   2.954  51.742  1.00  0.00    -0.309 N 
HETATM    6  C5  UNL     1      25.326   1.725  52.189  1.00  0.00     0.047 A 
HETATM    7  C6  UNL     1      26.405   1.043  51.659  1.00  0.00     0.031 A 
HETATM    8  C7  UNL     1      26.639  -0.212  52.186  1.00  0.00     0.003 A 
HETATM    9  C8  UNL     1      25.890  -0.818  53.173  1.00  0.00     0.008 A 
HETATM   10  C9  UNL     1      24.795  -0.172  53.734  1.00  0.00    -0.045 A 
HETATM   11  C10 UNL     1      24.605   1.118  53.160  1.00  0.00     0.038 A 
HETATM   12  C11 UNL     1      23.955  -0.914  54.671  1.00  0.00     0.011 A 
HETATM   13  C12 UNL     1      22.639  -1.424  54.870  1.00  0.00     0.035 A 
HETATM   14  C13 UNL     1      21.244  -1.533  54.597  1.00  0.00     0.058 A 
HETATM   15  C14 UNL     1      20.248  -0.996  53.714  1.00  0.00     0.121 A 
HETATM   16  C15 UNL     1      21.587  -0.729  53.793  1.00  0.00     0.067 A 
HETATM   17 CL1  UNL     1      21.016   0.980  54.154  1.00  0.00    -0.117 Cl
HETATM   18  C16 UNL     1      22.913  -0.469  53.875  1.00  0.00     0.033 A 
HETATM   19  O1  UNL     1      19.530  -0.375  52.803  1.00  0.00    -0.369 OA
HETATM   20  C17 UNL     1      19.696   0.245  51.579  1.00  0.00     0.224 C 
HETATM   21  H4  UNL     1      24.536   3.891  51.446  1.00  0.00     0.186 HD
ENDROOT
BRANCH   1  22
HETATM   22  C2  UNL     1      19.506   2.588  51.832  1.00  0.00     0.084 C 
HETATM   23  C1  UNL     1      19.028   2.282  50.597  1.00  0.00     0.425 C 
HETATM   24  F1  UNL     1      18.094   2.516  49.598  1.00  0.00    -0.454 F 
ENDBRANCH   1  22
TORSDOF 3
ENDMDL
MODEL 3
REMARK VINA RESULT:      -8.5      2.747      4.512
REMARK  3 active torsions:
REMARK  status: ('A' for Active; 'I' for Inactive)
REMARK    1  A    between atoms: C2_3  and  C3_4 
REMARK    2  A    between atoms: C12_16  and  C15_19 
REMARK    3  A    between atoms: C15_19  and  C16_21 
ROOT
HETATM    1  C3  UNL     1      25.387   0.193  53.363  1.00  0.00     0.045 C 
HETATM    2  N1  UNL     1      24.277  -0.381  53.331  1.00  0.00    -0.247 NA
HETATM    3  C4  UNL     1      23.352  -0.815  54.247  1.00  0.00     0.442 C 
HETATM    4  N2  UNL     1      22.382  -1.034  54.994  1.00  0.00    -0.316 NA
HETATM    5  N3  UNL     1      21.134  -0.358  55.085  1.00  0.00    -0.309 N 
HETATM    6  C5  UNL     1      20.504   0.049  53.911  1.00  0.00     0.047 A 
HETATM    7  C6  UNL     1      19.496  -0.638  53.261  1.00  0.00     0.031 A 
HETATM    8  C7  UNL     1      19.091  -0.106  52.053  1.00  0.00     0.003 A 
HETATM    9  C8  UNL     1      19.609   1.028  51.463  1.00  0.00     0.008 A 
HETATM   10  C9  UNL     1      20.623   1.750  52.078  1.00  0.00    -0.045 A 
HETATM   11  C10 UNL     1      20.996   1.163  53.321  1.00  0.00     0.038 A 
HETATM   12  C11 UNL     1      21.231   2.858  51.345  1.00  0.00     0.011 A 
HETATM   13  C12 UNL     1      22.454   3.319  50.776  1.00  0.00     0.035 A 
HETATM   14  C13 UNL     1      23.865   3.312  50.574  1.00  0.00     0.058 A 
HETATM   15  C14 UNL     1      25.037   2.603  51.005  1.00  0.00     0.121 A 
HETATM   16  C15 UNL     1      23.725   2.423  51.349  1.00  0.00     0.067 A 
HETATM   17 CL1  UNL     1      24.330   2.804  53.042  1.00  0.00    -0.117 Cl
HETATM   18  C16 UNL     1      22.426   2.248  51.687  1.00  0.00     0.033 A 
HETATM   19  O1  UNL     1      25.945   1.812  51.532  1.00  0.00    -0.369 OA
HETATM   20  C17 UNL     1      26.044   0.552  52.091  1.00  0.00     0.224 C 
HETATM   21  H4  UNL     1      21.553  -0.635  55.984  1.00  0.00     0.186 HD
ENDROOT
BRANCH   1  22
HETATM   22  C2  UNL     1      26.335   0.727  54.430  1.00  0.00     0.084 C 
HETATM   23  C1  UNL     1      27.098  -0.257  53.886  1.00  0.00     0.425 C 
HETATM   24  F1  UNL     1      28.297  -0.955  53.871  1.00  0.00    -0.454 F 
ENDBRANCH   1  22
TORSDOF 3
ENDMDL
MODEL 4
REMARK VINA RESULT:      -8.4      3.289      5.501
REMARK  3 active torsions:
REMARK  status: ('A' for Active; 'I' for Inactive)
REMARK    1  A    between atoms: C2_3  and  C3_4 
REMARK    2  A    between atoms: C12_16  and  C15_19 
REMARK    3  A    between atoms: C15_19  and  C16_21 
ROOT
HETATM    1  C3  UNL     1      23.494   3.380  49.644  1.00  0.00     0.045 C 
HETATM    2  N1  UNL     1      24.551   2.751  49.863  1.00  0.00    -0.247 NA
HETATM    3  C4  UNL     1      25.806   3.043  50.338  1.00  0.00     0.442 C 
HETATM    4  N2  UNL     1      26.876   3.184  50.955  1.00  0.00    -0.316 NA
HETATM    5  N3  UNL     1      27.258   2.694  52.234  1.00  0.00    -0.309 N 
HETATM    6  C5  UNL     1      26.890   1.400  52.595  1.00  0.00     0.047 A 
HETATM    7  C6  UNL     1      27.693   0.279  52.500  1.00  0.00     0.031 A 
HETATM    8  C7  UNL     1      27.087  -0.922  52.811  1.00  0.00     0.003 A 
HETATM    9  C8  UNL     1      25.772  -1.079  53.197  1.00  0.00     0.008 A 
HETATM   10  C9  UNL     1      24.926   0.018  53.306  1.00  0.00    -0.045 A 
HETATM   11  C10 UNL     1      25.604   1.229  52.981  1.00  0.00     0.038 A 
HETATM   12  C11 UNL     1      23.511  -0.220  53.579  1.00  0.00     0.011 A 
HETATM   13  C12 UNL     1      22.200  -0.062  53.041  1.00  0.00     0.035 A 
HETATM   14  C13 UNL     1      21.232   0.469  52.140  1.00  0.00     0.058 A 
HETATM   15  C14 UNL     1      21.141   1.369  51.024  1.00  0.00     0.121 A 
HETATM   16  C15 UNL     1      22.228   0.995  51.765  1.00  0.00     0.067 A 
HETATM   17 CL1  UNL     1      22.321   2.788  52.156  1.00  0.00    -0.117 Cl
HETATM   18  C16 UNL     1      23.302   0.622  52.499  1.00  0.00     0.033 A 
HETATM   19  O1  UNL     1      21.309   2.213  50.030  1.00  0.00    -0.369 OA
HETATM   20  C17 UNL     1      22.306   2.641  49.174  1.00  0.00     0.224 C 
HETATM   21  H4  UNL     1      27.558   3.656  52.023  1.00  0.00     0.186 HD
ENDROOT
BRANCH   1  22
HETATM   22  C2  UNL     1      23.004   4.817  49.774  1.00  0.00     0.084 C 
HETATM   23  C1  UNL     1      23.134   4.718  48.424  1.00  0.00     0.425 C 
HETATM   24  F1  UNL     1      23.023   5.314  47.177  1.00  0.00    -0.454 F 
ENDBRANCH   1  22
TORSDOF 3
ENDMDL
MODEL 5
REMARK VINA RESULT:      -8.1      4.251      6.833
REMARK  3 active torsions:
REMARK  status: ('A' for Active; 'I' for Inactive)
REMARK    1  A    between atoms: C2_3  and  C3_4 
REMARK    2  A    between atoms: C12_16  and  C15_19 
REMARK    3  A    between atoms: C15_19  and  C16_21 
ROOT
HETATM    1  C3  UNL     1      20.581   2.659  51.972  1.00  0.00     0.045 C 
HETATM    2  N1  UNL     1      20.831   1.960  52.978  1.00  0.00    -0.247 NA
HETATM    3  C4  UNL     1      20.414   0.753  53.482  1.00  0.00     0.442 C 
HETATM    4  N2  UNL     1      20.251  -0.412  53.884  1.00  0.00    -0.316 NA
HETATM    5  N3  UNL     1      21.158  -1.508  53.885  1.00  0.00    -0.309 N 
HETATM    6  C5  UNL     1      22.491  -1.276  54.216  1.00  0.00     0.047 A 
HETATM    7  C6  UNL     1      23.056  -1.477  55.461  1.00  0.00     0.031 A 
HETATM    8  C7  UNL     1      24.372  -1.078  55.594  1.00  0.00     0.003 A 
HETATM    9  C8  UNL     1      25.139  -0.505  54.601  1.00  0.00     0.008 A 
HETATM   10  C9  UNL     1      24.613  -0.283  53.335  1.00  0.00    -0.045 A 
HETATM   11  C10 UNL     1      23.260  -0.719  53.251  1.00  0.00     0.038 A 
HETATM   12  C11 UNL     1      25.422   0.455  52.367  1.00  0.00     0.011 A 
HETATM   13  C12 UNL     1      25.470   1.650  51.591  1.00  0.00     0.035 A 
HETATM   14  C13 UNL     1      24.921   2.823  50.997  1.00  0.00     0.058 A 
HETATM   15  C14 UNL     1      23.675   3.528  50.894  1.00  0.00     0.121 A 
HETATM   16  C15 UNL     1      23.976   2.367  51.550  1.00  0.00     0.067 A 
HETATM   17 CL1  UNL     1      22.723   1.642  50.418  1.00  0.00    -0.117 Cl
HETATM   18  C16 UNL     1      24.278   1.218  52.199  1.00  0.00     0.033 A 
HETATM   19  O1  UNL     1      22.445   3.989  50.952  1.00  0.00    -0.369 OA
HETATM   20  C17 UNL     1      21.333   3.913  51.769  1.00  0.00     0.224 C 
HETATM   21  H4  UNL     1      20.187  -1.739  53.633  1.00  0.00     0.186 HD
ENDROOT
BRANCH   1  22
HETATM   22  C2  UNL     1      19.675   2.571  50.750  1.00  0.00     0.084 C 
HETATM   23  C1  UNL     1      18.946   3.399  51.543  1.00  0.00     0.425 C 
HETATM   24  F1  UNL     1      17.801   4.161  51.723  1.00  0.00    -0.454 F 
ENDBRANCH   1  22
TORSDOF 3
ENDMDL
MODEL 6
REMARK VINA RESULT:      -8.1      3.960      6.305
REMARK  3 active torsions:
REMARK  status: ('A' for Active; 'I' for Inactive)
REMARK    1  A    between atoms: C2_3  and  C3_4 
REMARK    2  A    between atoms: C12_16  and  C15_19 
REMARK    3  A    between atoms: C15_19  and  C16_21 
ROOT
HETATM    1  C3  UNL     1      22.063   4.488  51.420  1.00  0.00     0.045 C 
HETATM    2  N1  UNL     1      21.578   3.718  52.277  1.00  0.00    -0.247 NA
HETATM    3  C4  UNL     1      20.469   2.916  52.383  1.00  0.00     0.442 C 
HETATM    4  N2  UNL     1      19.618   2.013  52.465  1.00  0.00    -0.316 NA
HETATM    5  N3  UNL     1      19.786   0.601  52.451  1.00  0.00    -0.309 N 
HETATM    6  C5  UNL     1      20.857   0.046  53.146  1.00  0.00     0.047 A 
HETATM    7  C6  UNL     1      20.797  -0.494  54.416  1.00  0.00     0.031 A 
HETATM    8  C7  UNL     1      22.004  -0.891  54.958  1.00  0.00     0.003 A 
HETATM    9  C8  UNL     1      23.233  -0.785  54.339  1.00  0.00     0.008 A 
HETATM   10  C9  UNL     1      23.343  -0.248  53.062  1.00  0.00    -0.045 A 
HETATM   11  C10 UNL     1      22.070   0.136  52.551  1.00  0.00     0.038 A 
HETATM   12  C11 UNL     1      24.679  -0.030  52.513  1.00  0.00     0.011 A 
HETATM   13  C12 UNL     1      25.577   0.979  52.057  1.00  0.00     0.035 A 
HETATM   14  C13 UNL     1      25.928   2.288  51.618  1.00  0.00     0.058 A 
HETATM   15  C14 UNL     1      25.325   3.566  51.365  1.00  0.00     0.121 A 
HETATM   16  C15 UNL     1      24.761   2.400  51.804  1.00  0.00     0.067 A 
HETATM   17 CL1  UNL     1      23.768   2.540  50.265  1.00  0.00    -0.117 Cl
HETATM   18  C16 UNL     1      24.208   1.243  52.239  1.00  0.00     0.033 A 
HETATM   19  O1  UNL     1      24.558   4.624  51.216  1.00  0.00    -0.369 OA
HETATM   20  C17 UNL     1      23.364   5.131  51.692  1.00  0.00     0.224 C 
HETATM   21  H4  UNL     1      18.978   0.955  51.919  1.00  0.00     0.186 HD
ENDROOT
BRANCH   1  22
HETATM   22  C2  UNL     1      21.698   4.973  50.022  1.00  0.00     0.084 C 
HETATM   23  C1  UNL     1      21.519   6.114  50.738  1.00  0.00     0.425 C 
HETATM   24  F1  UNL     1      21.169   7.456  50.758  1.00  0.00    -0.454 F 
ENDBRANCH   1  22
TORSDOF 3
ENDMDL
MODEL 7
REMARK VINA RESULT:      -7.9      3.897      6.618
REMARK  3 active torsions:
REMARK  status: ('A' for Active; 'I' for Inactive)
REMARK    1  A    between atoms: C2_3  and  C3_4 
REMARK    2  A    between atoms: C12_16  and  C15_19 
REMARK    3  A    between atoms: C15_19  and  C16_21 
ROOT
HETATM    1  C3  UNL     1      21.343   2.510  51.654  1.00  0.00     0.045 C 
HETATM    2  N1  UNL     1      22.176   2.171  52.522  1.00  0.00    -0.247 NA
HETATM    3  C4  UNL     1      22.549   1.005  53.145  1.00  0.00     0.442 C 
HETATM    4  N2  UNL     1      23.083  -0.027  53.586  1.00  0.00    -0.316 NA
HETATM    5  N3  UNL     1      24.355  -0.589  53.289  1.00  0.00    -0.309 N 
HETATM    6  C5  UNL     1      25.450   0.261  53.152  1.00  0.00     0.047 A 
HETATM    7  C6  UNL     1      26.379   0.540  54.136  1.00  0.00     0.031 A 
HETATM    8  C7  UNL     1      27.322   1.497  53.817  1.00  0.00     0.003 A 
HETATM    9  C8  UNL     1      27.398   2.179  52.620  1.00  0.00     0.008 A 
HETATM   10  C9  UNL     1      26.485   1.934  51.603  1.00  0.00    -0.045 A 
HETATM   11  C10 UNL     1      25.542   0.935  51.982  1.00  0.00     0.038 A 
HETATM   12  C11 UNL     1      26.524   2.783  50.414  1.00  0.00     0.011 A 
HETATM   13  C12 UNL     1      25.771   3.730  49.660  1.00  0.00     0.035 A 
HETATM   14  C13 UNL     1      24.585   4.422  49.277  1.00  0.00     0.058 A 
HETATM   15  C14 UNL     1      23.186   4.472  49.594  1.00  0.00     0.121 A 
HETATM   16  C15 UNL     1      24.178   3.691  50.119  1.00  0.00     0.067 A 
HETATM   17 CL1  UNL     1      23.149   2.311  49.478  1.00  0.00    -0.117 Cl
HETATM   18  C16 UNL     1      25.163   2.920  50.636  1.00  0.00     0.033 A 
HETATM   19  O1  UNL     1      21.963   4.342  50.059  1.00  0.00    -0.369 OA
HETATM   20  C17 UNL     1      21.314   3.915  51.202  1.00  0.00     0.224 C 
HETATM   21  H4  UNL     1      23.584  -1.266  53.379  1.00  0.00     0.186 HD
ENDROOT
BRANCH   1  22
HETATM   22  C2  UNL     1      20.275   1.829  50.808  1.00  0.00     0.084 C 
HETATM   23  C1  UNL     1      19.500   2.577  51.636  1.00  0.00     0.425 C 
HETATM   24  F1  UNL     1      18.231   2.976  52.032  1.00  0.00    -0.454 F 
ENDBRANCH   1  22
TORSDOF 3
ENDMDL
MODEL 8
REMARK VINA RESULT:      -7.8      4.805      7.668
REMARK  3 active torsions:
REMARK  status: ('A' for Active; 'I' for Inactive)
REMARK    1  A    between atoms: C2_3  and  C3_4 
REMARK    2  A    between atoms: C12_16  and  C15_19 
REMARK    3  A    between atoms: C15_19  and  C16_21 
ROOT
HETATM    1  C3  UNL     1      22.496   6.669  50.396  1.00  0.00     0.045 C 
HETATM    2  N1  UNL     1      22.768   5.801  51.254  1.00  0.00    -0.247 NA
HETATM    3  C4  UNL     1      22.202   4.635  51.706  1.00  0.00     0.442 C 
HETATM    4  N2  UNL     1      21.871   3.476  52.012  1.00  0.00    -0.316 NA
HETATM    5  N3  UNL     1      22.511   2.241  51.717  1.00  0.00    -0.309 N 
HETATM    6  C5  UNL     1      23.900   2.170  51.793  1.00  0.00     0.047 A 
HETATM    7  C6  UNL     1      24.622   1.693  52.870  1.00  0.00     0.031 A 
HETATM    8  C7  UNL     1      25.995   1.816  52.774  1.00  0.00     0.003 A 
HETATM    9  C8  UNL     1      26.677   2.369  51.710  1.00  0.00     0.008 A 
HETATM   10  C9  UNL     1      25.993   2.862  50.606  1.00  0.00    -0.045 A 
HETATM   11  C10 UNL     1      24.585   2.704  50.755  1.00  0.00     0.038 A 
HETATM   12  C11 UNL     1      26.754   3.564  49.575  1.00  0.00     0.011 A 
HETATM   13  C12 UNL     1      26.914   4.826  48.931  1.00  0.00     0.035 A 
HETATM   14  C13 UNL     1      26.529   6.153  48.583  1.00  0.00     0.058 A 
HETATM   15  C14 UNL     1      25.461   7.086  48.807  1.00  0.00     0.121 A 
HETATM   16  C15 UNL     1      25.622   5.808  49.268  1.00  0.00     0.067 A 
HETATM   17 CL1  UNL     1      24.064   5.498  48.345  1.00  0.00    -0.117 Cl
HETATM   18  C16 UNL     1      25.786   4.543  49.721  1.00  0.00     0.033 A 
HETATM   19  O1  UNL     1      24.387   7.757  49.161  1.00  0.00    -0.369 OA
HETATM   20  C17 UNL     1      23.447   7.776  50.174  1.00  0.00     0.224 C 
HETATM   21  H4  UNL     1      21.484   2.234  51.645  1.00  0.00     0.186 HD
ENDROOT
BRANCH   1  22
HETATM   22  C2  UNL     1      21.389   6.925  49.380  1.00  0.00     0.084 C 
HETATM   23  C1  UNL     1      21.076   7.845  50.330  1.00  0.00     0.425 C 
HETATM   24  F1  UNL     1      20.237   8.862  50.762  1.00  0.00    -0.454 F 
ENDBRANCH   1  22
TORSDOF 3
ENDMDL
MODEL 9
REMARK VINA RESULT:      -7.6      4.423      6.412
REMARK  3 active torsions:
REMARK  status: ('A' for Active; 'I' for Inactive)
REMARK    1  A    between atoms: C2_3  and  C3_4 
REMARK    2  A    between atoms: C12_16  and  C15_19 
REMARK    3  A    between atoms: C15_19  and  C16_21 
ROOT
HETATM    1  C3  UNL     1      21.731   4.863  50.553  1.00  0.00     0.045 C 
HETATM    2  N1  UNL     1      20.744   4.145  50.824  1.00  0.00    -0.247 NA
HETATM    3  C4  UNL     1      19.784   3.463  50.117  1.00  0.00     0.442 C 
HETATM    4  N2  UNL     1      19.025   2.656  49.555  1.00  0.00    -0.316 NA
HETATM    5  N3  UNL     1      19.051   1.234  49.553  1.00  0.00    -0.309 N 
HETATM    6  C5  UNL     1      19.351   0.566  50.737  1.00  0.00     0.047 A 
HETATM    7  C6  UNL     1      18.426   0.030  51.614  1.00  0.00     0.031 A 
HETATM    8  C7  UNL     1      18.940  -0.494  52.783  1.00  0.00     0.003 A 
HETATM    9  C8  UNL     1      20.275  -0.516  53.132  1.00  0.00     0.008 A 
HETATM   10  C9  UNL     1      21.241   0.012  52.284  1.00  0.00    -0.045 A 
HETATM   11  C10 UNL     1      20.657   0.530  51.092  1.00  0.00     0.038 A 
HETATM   12  C11 UNL     1      22.618   0.090  52.764  1.00  0.00     0.011 A 
HETATM   13  C12 UNL     1      23.668   1.000  53.083  1.00  0.00     0.035 A 
HETATM   14  C13 UNL     1      24.321   2.267  53.078  1.00  0.00     0.058 A 
HETATM   15  C14 UNL     1      24.135   3.603  52.585  1.00  0.00     0.121 A 
HETATM   16  C15 UNL     1      23.335   2.500  52.461  1.00  0.00     0.067 A 
HETATM   17 CL1  UNL     1      23.619   2.750  50.663  1.00  0.00    -0.117 Cl
HETATM   18  C16 UNL     1      22.545   1.407  52.341  1.00  0.00     0.033 A 
HETATM   19  O1  UNL     1      23.741   4.736  52.046  1.00  0.00    -0.369 OA
HETATM   20  C17 UNL     1      22.574   5.364  51.658  1.00  0.00     0.224 C 
HETATM   21  H4  UNL     1      18.825   1.672  48.649  1.00  0.00     0.186 HD
ENDROOT
BRANCH   1  22
HETATM   22  C2  UNL     1      22.418   5.388  49.299  1.00  0.00     0.084 C 
HETATM   23  C1  UNL     1      21.882   6.536  49.791  1.00  0.00     0.425 C 
HETATM   24  F1  UNL     1      21.693   7.904  49.663  1.00  0.00    -0.454 F 
ENDBRANCH   1  22
TORSDOF 3
ENDMDL
