MODEL 1
REMARK VINA RESULT:      -9.2      0.000      0.000
REMARK  5 active torsions:
REMARK  status: ('A' for Active; 'I' for Inactive)
REMARK    1  A    between atoms: C8_10  and  C9_11 
REMARK    2  A    between atoms: C18_21  and  N3_22 
REMARK    3  A    between atoms: N3_22  and  C19_23 
REMARK    4  A    between atoms: C19_23  and  C21_25 
REMARK    5  A    between atoms: C21_25  and  O1_26 
ROOT
HETATM    1  C1  UNL     1      24.964  -0.558  54.178  1.00  0.00     0.050 C 
HETATM    2  C2  UNL     1      24.848   0.427  53.067  1.00  0.00    -0.033 A 
HETATM    3  C3  UNL     1      23.637   0.883  52.623  1.00  0.00     0.041 A 
HETATM    4  C4  UNL     1      23.538   1.794  51.594  1.00  0.00     0.068 A 
HETATM    5  N1  UNL     1      22.332   2.205  51.219  1.00  0.00    -0.259 NA
HETATM    6  C5  UNL     1      22.193   3.092  50.240  1.00  0.00     0.140 A 
HETATM    7  C6  UNL     1      23.335   3.556  49.646  1.00  0.00     0.073 A 
HETATM    8  C7  UNL     1      23.156   4.503  48.570  1.00  0.00     0.102 C 
HETATM    9  N2  UNL     1      23.024   5.265  47.706  1.00  0.00    -0.191 NA
HETATM   10  C8  UNL     1      24.628   3.167  49.990  1.00  0.00    -0.001 A 
HETATM   11  C16 UNL     1      24.723   2.231  51.025  1.00  0.00     0.007 A 
HETATM   12  C17 UNL     1      25.952   1.757  51.486  1.00  0.00     0.044 A 
HETATM   13  C18 UNL     1      26.059   0.851  52.512  1.00  0.00     0.035 A 
ENDROOT
BRANCH  10  14
HETATM   14  C9  UNL     1      25.831   3.693  49.395  1.00  0.00     0.025 C 
HETATM   15  C10 UNL     1      26.400   4.857  49.190  1.00  0.00    -0.033 C 
HETATM   16  C11 UNL     1      27.685   4.978  48.512  1.00  0.00     0.024 C 
HETATM   17  C15 UNL     1      25.854   6.138  49.633  1.00  0.00     0.030 C 
HETATM   18  C12 UNL     1      28.081   6.139  48.102  1.00  0.00    -0.024 C 
HETATM   19  C13 UNL     1      27.764   7.253  48.730  1.00  0.00     0.031 C 
HETATM   20  C14 UNL     1      26.466   7.301  49.437  1.00  0.00     0.012 C 
HETATM   21 BR1  UNL     1      25.688   8.949  50.050  1.00  0.00    -0.051 Br
ENDBRANCH  10  14
BRANCH  13  22
HETATM   22  N3  UNL     1      27.334   0.436  52.940  1.00  0.00    -0.383 N 
HETATM   23  H11 UNL     1      27.769  -0.278  52.293  1.00  0.00     0.160 HD
BRANCH  22  24
HETATM   24  C19 UNL     1      28.036   0.886  54.113  1.00  0.00     0.101 C 
HETATM   25  C20 UNL     1      29.172  -0.029  54.492  1.00  0.00     0.034 C 
BRANCH  24  26
HETATM   26  C21 UNL     1      28.648   2.253  53.797  1.00  0.00     0.188 C 
BRANCH  26  27
HETATM   27  O1  UNL     1      29.713   2.422  54.692  1.00  0.00    -0.399 OA
HETATM   28  H18 UNL     1      30.533   2.543  54.143  1.00  0.00     0.209 HD
ENDBRANCH  26  27
ENDBRANCH  24  26
ENDBRANCH  22  24
ENDBRANCH  13  22
TORSDOF 5
ENDMDL
MODEL 2
REMARK VINA RESULT:      -9.1      1.596      1.770
REMARK  5 active torsions:
REMARK  status: ('A' for Active; 'I' for Inactive)
REMARK    1  A    between atoms: C8_10  and  C9_11 
REMARK    2  A    between atoms: C18_21  and  N3_22 
REMARK    3  A    between atoms: N3_22  and  C19_23 
REMARK    4  A    between atoms: C19_23  and  C21_25 
REMARK    5  A    between atoms: C21_25  and  O1_26 
ROOT
HETATM    1  C1  UNL     1      24.530  -0.942  54.873  1.00  0.00     0.050 C 
HETATM    2  C2  UNL     1      24.405  -0.028  53.702  1.00  0.00    -0.033 A 
HETATM    3  C3  UNL     1      23.190   0.363  53.212  1.00  0.00     0.041 A 
HETATM    4  C4  UNL     1      23.083   1.208  52.130  1.00  0.00     0.068 A 
HETATM    5  N1  UNL     1      21.873   1.560  51.710  1.00  0.00    -0.259 NA
HETATM    6  C5  UNL     1      21.726   2.383  50.678  1.00  0.00     0.140 A 
HETATM    7  C6  UNL     1      22.864   2.845  50.076  1.00  0.00     0.073 A 
HETATM    8  C7  UNL     1      22.678   3.721  48.944  1.00  0.00     0.102 C 
HETATM    9  N2  UNL     1      22.540   4.427  48.033  1.00  0.00    -0.191 NA
HETATM   10  C8  UNL     1      24.162   2.517  50.465  1.00  0.00    -0.001 A 
HETATM   11  C16 UNL     1      24.265   1.646  51.555  1.00  0.00     0.007 A 
HETATM   12  C17 UNL     1      25.499   1.239  52.064  1.00  0.00     0.044 A 
HETATM   13  C18 UNL     1      25.613   0.398  53.143  1.00  0.00     0.035 A 
ENDROOT
BRANCH  10  14
HETATM   14  C9  UNL     1      25.360   3.043  49.859  1.00  0.00     0.025 C 
HETATM   15  C10 UNL     1      25.892   4.209  49.581  1.00  0.00    -0.033 C 
HETATM   16  C11 UNL     1      27.188   4.329  48.926  1.00  0.00     0.024 C 
HETATM   17  C15 UNL     1      25.289   5.498  49.915  1.00  0.00     0.030 C 
HETATM   18  C12 UNL     1      27.552   5.471  48.439  1.00  0.00    -0.024 C 
HETATM   19  C13 UNL     1      27.180   6.615  48.976  1.00  0.00     0.031 C 
HETATM   20  C14 UNL     1      25.863   6.665  49.647  1.00  0.00     0.012 C 
HETATM   21 BR1  UNL     1      25.011   8.323  50.119  1.00  0.00    -0.051 Br
ENDBRANCH  10  14
BRANCH  13  22
HETATM   22  N3  UNL     1      26.892   0.048  53.617  1.00  0.00    -0.383 N 
HETATM   23  H11 UNL     1      27.089   0.432  54.581  1.00  0.00     0.160 HD
BRANCH  22  24
HETATM   24  C19 UNL     1      27.878  -0.742  52.927  1.00  0.00     0.101 C 
HETATM   25  C20 UNL     1      29.124  -0.954  53.747  1.00  0.00     0.034 C 
BRANCH  24  26
HETATM   26  C21 UNL     1      27.273  -2.122  52.664  1.00  0.00     0.188 C 
BRANCH  26  27
HETATM   27  O1  UNL     1      28.256  -3.055  53.019  1.00  0.00    -0.399 OA
HETATM   28  H18 UNL     1      29.038  -2.537  53.351  1.00  0.00     0.209 HD
ENDBRANCH  26  27
ENDBRANCH  24  26
ENDBRANCH  22  24
ENDBRANCH  13  22
TORSDOF 5
ENDMDL
MODEL 3
REMARK VINA RESULT:      -8.9      3.324      6.656
REMARK  5 active torsions:
REMARK  status: ('A' for Active; 'I' for Inactive)
REMARK    1  A    between atoms: C8_10  and  C9_11 
REMARK    2  A    between atoms: C18_21  and  N3_22 
REMARK    3  A    between atoms: N3_22  and  C19_23 
REMARK    4  A    between atoms: C19_23  and  C21_25 
REMARK    5  A    between atoms: C21_25  and  O1_26 
ROOT
HETATM    1  C1  UNL     1      21.430   2.595  48.525  1.00  0.00     0.050 C 
HETATM    2  C2  UNL     1      22.179   2.100  49.714  1.00  0.00    -0.033 A 
HETATM    3  C3  UNL     1      21.697   1.099  50.512  1.00  0.00     0.041 A 
HETATM    4  C4  UNL     1      22.396   0.648  51.610  1.00  0.00     0.068 A 
HETATM    5  N1  UNL     1      21.878  -0.335  52.337  1.00  0.00    -0.259 NA
HETATM    6  C5  UNL     1      22.526  -0.809  53.396  1.00  0.00     0.140 A 
HETATM    7  C6  UNL     1      23.734  -0.244  53.698  1.00  0.00     0.073 A 
HETATM    8  C7  UNL     1      24.408  -0.761  54.865  1.00  0.00     0.102 C 
HETATM    9  N2  UNL     1      24.959  -1.169  55.801  1.00  0.00    -0.191 NA
HETATM   10  C8  UNL     1      24.334   0.789  52.979  1.00  0.00    -0.001 A 
HETATM   11  C16 UNL     1      23.613   1.254  51.873  1.00  0.00     0.007 A 
HETATM   12  C17 UNL     1      24.094   2.276  51.052  1.00  0.00     0.044 A 
HETATM   13  C18 UNL     1      23.403   2.730  49.956  1.00  0.00     0.035 A 
ENDROOT
BRANCH  10  14
HETATM   14  C9  UNL     1      25.630   1.350  53.270  1.00  0.00     0.025 C 
HETATM   15  C10 UNL     1      26.868   0.945  53.413  1.00  0.00    -0.033 C 
HETATM   16  C11 UNL     1      27.951   1.868  53.727  1.00  0.00     0.024 C 
HETATM   17  C15 UNL     1      27.315  -0.437  53.246  1.00  0.00     0.030 C 
HETATM   18  C12 UNL     1      29.094   1.402  54.114  1.00  0.00    -0.024 C 
HETATM   19  C13 UNL     1      29.560   0.244  53.692  1.00  0.00     0.031 C 
HETATM   20  C14 UNL     1      28.582  -0.816  53.368  1.00  0.00     0.012 C 
HETATM   21 BR1  UNL     1      29.096  -2.654  53.131  1.00  0.00    -0.051 Br
ENDBRANCH  10  14
BRANCH  13  22
HETATM   22  N3  UNL     1      23.961   3.748  49.159  1.00  0.00    -0.383 N 
HETATM   23  H11 UNL     1      24.290   3.395  48.218  1.00  0.00     0.160 HD
BRANCH  22  24
HETATM   24  C19 UNL     1      24.104   5.136  49.512  1.00  0.00     0.101 C 
HETATM   25  C20 UNL     1      23.274   5.513  50.712  1.00  0.00     0.034 C 
BRANCH  24  26
HETATM   26  C21 UNL     1      25.568   5.376  49.886  1.00  0.00     0.188 C 
BRANCH  26  27
HETATM   27  O1  UNL     1      25.587   6.534  50.675  1.00  0.00    -0.399 OA
HETATM   28  H18 UNL     1      26.542   6.737  50.865  1.00  0.00     0.209 HD
ENDBRANCH  26  27
ENDBRANCH  24  26
ENDBRANCH  22  24
ENDBRANCH  13  22
TORSDOF 5
ENDMDL
MODEL 4
REMARK VINA RESULT:      -8.8      3.300      6.329
REMARK  5 active torsions:
REMARK  status: ('A' for Active; 'I' for Inactive)
REMARK    1  A    between atoms: C8_10  and  C9_11 
REMARK    2  A    between atoms: C18_21  and  N3_22 
REMARK    3  A    between atoms: N3_22  and  C19_23 
REMARK    4  A    between atoms: C19_23  and  C21_25 
REMARK    5  A    between atoms: C21_25  and  O1_26 
ROOT
HETATM    1  C1  UNL     1      19.221  -0.872  53.278  1.00  0.00     0.050 C 
HETATM    2  C2  UNL     1      20.690  -0.637  53.369  1.00  0.00    -0.033 A 
HETATM    3  C3  UNL     1      21.433  -1.080  54.428  1.00  0.00     0.041 A 
HETATM    4  C4  UNL     1      22.790  -0.859  54.505  1.00  0.00     0.068 A 
HETATM    5  N1  UNL     1      23.456  -1.325  55.555  1.00  0.00    -0.259 NA
HETATM    6  C5  UNL     1      24.768  -1.145  55.661  1.00  0.00     0.140 A 
HETATM    7  C6  UNL     1      25.392  -0.466  54.651  1.00  0.00     0.073 A 
HETATM    8  C7  UNL     1      26.814  -0.265  54.800  1.00  0.00     0.102 C 
HETATM    9  N2  UNL     1      27.957  -0.097  54.908  1.00  0.00    -0.191 NA
HETATM   10  C8  UNL     1      24.755   0.049  53.523  1.00  0.00    -0.001 A 
HETATM   11  C16 UNL     1      23.374  -0.165  53.458  1.00  0.00     0.007 A 
HETATM   12  C17 UNL     1      22.605   0.283  52.383  1.00  0.00     0.044 A 
HETATM   13  C18 UNL     1      21.252   0.065  52.299  1.00  0.00     0.035 A 
ENDROOT
BRANCH  10  14
HETATM   14  C9  UNL     1      25.422   0.723  52.437  1.00  0.00     0.025 C 
HETATM   15  C10 UNL     1      25.330   1.849  51.773  1.00  0.00    -0.033 C 
HETATM   16  C11 UNL     1      26.237   2.178  50.681  1.00  0.00     0.024 C 
HETATM   17  C15 UNL     1      24.358   2.903  52.056  1.00  0.00     0.030 C 
HETATM   18  C12 UNL     1      25.953   3.162  49.891  1.00  0.00    -0.024 C 
HETATM   19  C13 UNL     1      25.296   4.227  50.303  1.00  0.00     0.031 C 
HETATM   20  C14 UNL     1      24.304   4.048  51.385  1.00  0.00     0.012 C 
HETATM   21 BR1  UNL     1      22.998   5.392  51.816  1.00  0.00    -0.051 Br
ENDBRANCH  10  14
BRANCH  13  22
HETATM   22  N3  UNL     1      20.544   0.525  51.173  1.00  0.00    -0.383 N 
HETATM   23  H11 UNL     1      20.093  -0.259  50.626  1.00  0.00     0.160 HD
BRANCH  22  24
HETATM   24  C19 UNL     1      20.403   1.892  50.745  1.00  0.00     0.101 C 
HETATM   25  C20 UNL     1      20.064   2.006  49.281  1.00  0.00     0.034 C 
BRANCH  24  26
HETATM   26  C21 UNL     1      19.239   2.509  51.524  1.00  0.00     0.188 C 
BRANCH  26  27
HETATM   27  O1  UNL     1      19.809   3.174  52.618  1.00  0.00    -0.399 OA
HETATM   28  H18 UNL     1      20.562   2.609  52.938  1.00  0.00     0.209 HD
ENDBRANCH  26  27
ENDBRANCH  24  26
ENDBRANCH  22  24
ENDBRANCH  13  22
TORSDOF 5
ENDMDL
MODEL 5
REMARK VINA RESULT:      -8.8      3.645      6.051
REMARK  5 active torsions:
REMARK  status: ('A' for Active; 'I' for Inactive)
REMARK    1  A    between atoms: C8_10  and  C9_11 
REMARK    2  A    between atoms: C18_21  and  N3_22 
REMARK    3  A    between atoms: N3_22  and  C19_23 
REMARK    4  A    between atoms: C19_23  and  C21_25 
REMARK    5  A    between atoms: C21_25  and  O1_26 
ROOT
HETATM    1  C1  UNL     1      20.517  -1.481  54.134  1.00  0.00     0.050 C 
HETATM    2  C2  UNL     1      21.717  -0.657  53.815  1.00  0.00    -0.033 A 
HETATM    3  C3  UNL     1      22.988  -1.101  54.056  1.00  0.00     0.041 A 
HETATM    4  C4  UNL     1      24.093  -0.333  53.759  1.00  0.00     0.068 A 
HETATM    5  N1  UNL     1      25.300  -0.827  54.007  1.00  0.00    -0.259 NA
HETATM    6  C5  UNL     1      26.391  -0.124  53.723  1.00  0.00     0.140 A 
HETATM    7  C6  UNL     1      26.214   1.115  53.170  1.00  0.00     0.073 A 
HETATM    8  C7  UNL     1      27.415   1.867  52.891  1.00  0.00     0.102 C 
HETATM    9  N2  UNL     1      28.372   2.480  52.661  1.00  0.00    -0.191 NA
HETATM   10  C8  UNL     1      24.978   1.692  52.885  1.00  0.00    -0.001 A 
HETATM   11  C16 UNL     1      23.859   0.914  53.203  1.00  0.00     0.007 A 
HETATM   12  C17 UNL     1      22.558   1.356  52.962  1.00  0.00     0.044 A 
HETATM   13  C18 UNL     1      21.452   0.595  53.255  1.00  0.00     0.035 A 
ENDROOT
BRANCH  10  14
HETATM   14  C9  UNL     1      24.796   2.978  52.258  1.00  0.00     0.025 C 
HETATM   15  C10 UNL     1      24.324   3.468  51.138  1.00  0.00    -0.033 C 
HETATM   16  C11 UNL     1      24.319   4.900  50.863  1.00  0.00     0.024 C 
HETATM   17  C15 UNL     1      23.729   2.670  50.067  1.00  0.00     0.030 C 
HETATM   18  C12 UNL     1      24.093   5.316  49.660  1.00  0.00    -0.024 C 
HETATM   19  C13 UNL     1      23.305   4.667  48.827  1.00  0.00     0.031 C 
HETATM   20  C14 UNL     1      23.232   3.196  48.953  1.00  0.00     0.012 C 
HETATM   21 BR1  UNL     1      22.461   2.083  47.587  1.00  0.00    -0.051 Br
ENDBRANCH  10  14
BRANCH  13  22
HETATM   22  N3  UNL     1      20.170   1.097  52.963  1.00  0.00    -0.383 N 
HETATM   23  H11 UNL     1      19.644   1.401  53.828  1.00  0.00     0.160 HD
BRANCH  22  24
HETATM   24  C19 UNL     1      19.569   1.215  51.660  1.00  0.00     0.101 C 
HETATM   25  C20 UNL     1      18.566   0.124  51.387  1.00  0.00     0.034 C 
BRANCH  24  26
HETATM   26  C21 UNL     1      18.810   2.543  51.614  1.00  0.00     0.188 C 
BRANCH  26  27
HETATM   27  O1  UNL     1      19.545   3.443  52.397  1.00  0.00    -0.399 OA
HETATM   28  H18 UNL     1      19.846   2.943  53.203  1.00  0.00     0.209 HD
ENDBRANCH  26  27
ENDBRANCH  24  26
ENDBRANCH  22  24
ENDBRANCH  13  22
TORSDOF 5
ENDMDL
MODEL 6
REMARK VINA RESULT:      -8.8      3.180      4.646
REMARK  5 active torsions:
REMARK  status: ('A' for Active; 'I' for Inactive)
REMARK    1  A    between atoms: C8_10  and  C9_11 
REMARK    2  A    between atoms: C18_21  and  N3_22 
REMARK    3  A    between atoms: N3_22  and  C19_23 
REMARK    4  A    between atoms: C19_23  and  C21_25 
REMARK    5  A    between atoms: C21_25  and  O1_26 
ROOT
HETATM    1  C1  UNL     1      24.019  -1.211  55.695  1.00  0.00     0.050 C 
HETATM    2  C2  UNL     1      23.116  -0.833  54.571  1.00  0.00    -0.033 A 
HETATM    3  C3  UNL     1      21.759  -0.977  54.650  1.00  0.00     0.041 A 
HETATM    4  C4  UNL     1      20.930  -0.626  53.607  1.00  0.00     0.068 A 
HETATM    5  N1  UNL     1      19.619  -0.780  53.752  1.00  0.00    -0.259 NA
HETATM    6  C5  UNL     1      18.785  -0.441  52.775  1.00  0.00     0.140 A 
HETATM    7  C6  UNL     1      19.333   0.067  51.630  1.00  0.00     0.073 A 
HETATM    8  C7  UNL     1      18.406   0.408  50.575  1.00  0.00     0.102 C 
HETATM    9  N2  UNL     1      17.672   0.686  49.721  1.00  0.00    -0.191 NA
HETATM   10  C8  UNL     1      20.696   0.255  51.412  1.00  0.00    -0.001 A 
HETATM   11  C16 UNL     1      21.534  -0.118  52.469  1.00  0.00     0.007 A 
HETATM   12  C17 UNL     1      22.921   0.023  52.400  1.00  0.00     0.044 A 
HETATM   13  C18 UNL     1      23.752  -0.324  53.436  1.00  0.00     0.035 A 
ENDROOT
BRANCH  10  14
HETATM   14  C9  UNL     1      21.268   0.835  50.222  1.00  0.00     0.025 C 
HETATM   15  C10 UNL     1      21.882   1.936  49.862  1.00  0.00    -0.033 C 
HETATM   16  C11 UNL     1      22.323   2.160  48.491  1.00  0.00     0.024 C 
HETATM   17  C15 UNL     1      22.225   3.030  50.768  1.00  0.00     0.030 C 
HETATM   18  C12 UNL     1      22.683   3.347  48.123  1.00  0.00    -0.024 C 
HETATM   19  C13 UNL     1      23.250   4.198  48.953  1.00  0.00     0.031 C 
HETATM   20  C14 UNL     1      22.874   4.123  50.381  1.00  0.00     0.012 C 
HETATM   21 BR1  UNL     1      23.294   5.523  51.631  1.00  0.00    -0.051 Br
ENDBRANCH  10  14
BRANCH  13  22
HETATM   22  N3  UNL     1      25.141  -0.131  53.305  1.00  0.00    -0.383 N 
HETATM   23  H11 UNL     1      25.693  -1.018  53.467  1.00  0.00     0.160 HD
BRANCH  22  24
HETATM   24  C19 UNL     1      25.812   1.102  52.987  1.00  0.00     0.101 C 
HETATM   25  C20 UNL     1      24.965   2.313  53.285  1.00  0.00     0.034 C 
BRANCH  24  26
HETATM   26  C21 UNL     1      27.058   1.199  53.869  1.00  0.00     0.188 C 
BRANCH  26  27
HETATM   27  O1  UNL     1      27.375   2.561  53.953  1.00  0.00    -0.399 OA
HETATM   28  H18 UNL     1      26.840   3.024  53.254  1.00  0.00     0.209 HD
ENDBRANCH  26  27
ENDBRANCH  24  26
ENDBRANCH  22  24
ENDBRANCH  13  22
TORSDOF 5
ENDMDL
MODEL 7
REMARK VINA RESULT:      -8.3      2.835      6.083
REMARK  5 active torsions:
REMARK  status: ('A' for Active; 'I' for Inactive)
REMARK    1  A    between atoms: C8_10  and  C9_11 
REMARK    2  A    between atoms: C18_21  and  N3_22 
REMARK    3  A    between atoms: N3_22  and  C19_23 
REMARK    4  A    between atoms: C19_23  and  C21_25 
REMARK    5  A    between atoms: C21_25  and  O1_26 
ROOT
HETATM    1  C1  UNL     1      28.662   2.035  53.165  1.00  0.00     0.050 C 
HETATM    2  C2  UNL     1      27.318   1.395  53.236  1.00  0.00    -0.033 A 
HETATM    3  C3  UNL     1      26.921   0.657  54.317  1.00  0.00     0.041 A 
HETATM    4  C4  UNL     1      25.678   0.068  54.376  1.00  0.00     0.068 A 
HETATM    5  N1  UNL     1      25.349  -0.626  55.459  1.00  0.00    -0.259 NA
HETATM    6  C5  UNL     1      24.155  -1.198  55.561  1.00  0.00     0.140 A 
HETATM    7  C6  UNL     1      23.291  -1.042  54.512  1.00  0.00     0.073 A 
HETATM    8  C7  UNL     1      22.008  -1.692  54.638  1.00  0.00     0.102 C 
HETATM    9  N2  UNL     1      20.974  -2.209  54.728  1.00  0.00    -0.191 NA
HETATM   10  C8  UNL     1      23.572  -0.329  53.347  1.00  0.00    -0.001 A 
HETATM   11  C16 UNL     1      24.842   0.255  53.287  1.00  0.00     0.007 A 
HETATM   12  C17 UNL     1      25.259   1.008  52.189  1.00  0.00     0.044 A 
HETATM   13  C18 UNL     1      26.497   1.599  52.124  1.00  0.00     0.035 A 
ENDROOT
BRANCH  10  14
HETATM   14  C9  UNL     1      22.643  -0.126  52.263  1.00  0.00     0.025 C 
HETATM   15  C10 UNL     1      22.012   0.865  51.682  1.00  0.00    -0.033 C 
HETATM   16  C11 UNL     1      21.108   0.650  50.558  1.00  0.00     0.024 C 
HETATM   17  C15 UNL     1      22.155   2.272  52.050  1.00  0.00     0.030 C 
HETATM   18  C12 UNL     1      20.315   1.603  50.189  1.00  0.00    -0.024 C 
HETATM   19  C13 UNL     1      20.640   2.874  50.304  1.00  0.00     0.031 C 
HETATM   20  C14 UNL     1      21.525   3.260  51.424  1.00  0.00     0.012 C 
HETATM   21 BR1  UNL     1      21.765   5.090  51.963  1.00  0.00    -0.051 Br
ENDBRANCH  10  14
BRANCH  13  22
HETATM   22  N3  UNL     1      26.840   2.366  50.994  1.00  0.00    -0.383 N 
HETATM   23  H11 UNL     1      27.883   2.392  50.820  1.00  0.00     0.160 HD
BRANCH  22  24
HETATM   24  C19 UNL     1      25.935   3.065  50.122  1.00  0.00     0.101 C 
HETATM   25  C20 UNL     1      25.154   4.136  50.839  1.00  0.00     0.034 C 
BRANCH  24  26
HETATM   26  C21 UNL     1      26.767   3.764  49.044  1.00  0.00     0.188 C 
BRANCH  26  27
HETATM   27  O1  UNL     1      27.755   4.491  49.722  1.00  0.00    -0.399 OA
HETATM   28  H18 UNL     1      27.299   4.971  50.465  1.00  0.00     0.209 HD
ENDBRANCH  26  27
ENDBRANCH  24  26
ENDBRANCH  22  24
ENDBRANCH  13  22
TORSDOF 5
ENDMDL
MODEL 8
REMARK VINA RESULT:      -8.2      3.112      4.248
REMARK  5 active torsions:
REMARK  status: ('A' for Active; 'I' for Inactive)
REMARK    1  A    between atoms: C8_10  and  C9_11 
REMARK    2  A    between atoms: C18_21  and  N3_22 
REMARK    3  A    between atoms: N3_22  and  C19_23 
REMARK    4  A    between atoms: C19_23  and  C21_25 
REMARK    5  A    between atoms: C21_25  and  O1_26 
ROOT
HETATM    1  C1  UNL     1      25.269  -0.890  53.850  1.00  0.00     0.050 C 
HETATM    2  C2  UNL     1      24.152  -0.003  53.423  1.00  0.00    -0.033 A 
HETATM    3  C3  UNL     1      22.868  -0.459  53.297  1.00  0.00     0.041 A 
HETATM    4  C4  UNL     1      21.840   0.368  52.901  1.00  0.00     0.068 A 
HETATM    5  N1  UNL     1      20.615  -0.134  52.810  1.00  0.00    -0.259 NA
HETATM    6  C5  UNL     1      19.594   0.633  52.444  1.00  0.00     0.140 A 
HETATM    7  C6  UNL     1      19.860   1.946  52.170  1.00  0.00     0.073 A 
HETATM    8  C7  UNL     1      18.737   2.753  51.754  1.00  0.00     0.102 C 
HETATM    9  N2  UNL     1      17.843   3.412  51.420  1.00  0.00    -0.191 NA
HETATM   10  C8  UNL     1      21.121   2.537  52.246  1.00  0.00    -0.001 A 
HETATM   11  C16 UNL     1      22.164   1.689  52.634  1.00  0.00     0.007 A 
HETATM   12  C17 UNL     1      23.477   2.142  52.765  1.00  0.00     0.044 A 
HETATM   13  C18 UNL     1      24.506   1.323  53.160  1.00  0.00     0.035 A 
ENDROOT
BRANCH  10  14
HETATM   14  C9  UNL     1      21.391   3.932  52.003  1.00  0.00     0.025 C 
HETATM   15  C10 UNL     1      21.649   4.722  50.989  1.00  0.00    -0.033 C 
HETATM   16  C11 UNL     1      21.881   6.151  51.163  1.00  0.00     0.024 C 
HETATM   17  C15 UNL     1      21.700   4.292  49.592  1.00  0.00     0.030 C 
HETATM   18  C12 UNL     1      22.384   6.837  50.189  1.00  0.00    -0.024 C 
HETATM   19  C13 UNL     1      22.152   6.541  48.927  1.00  0.00     0.031 C 
HETATM   20  C14 UNL     1      21.935   5.120  48.581  1.00  0.00     0.012 C 
HETATM   21 BR1  UNL     1      21.984   4.484  46.767  1.00  0.00    -0.051 Br
ENDBRANCH  10  14
BRANCH  13  22
HETATM   22  N3  UNL     1      25.803   1.856  53.293  1.00  0.00    -0.383 N 
HETATM   23  H11 UNL     1      25.940   2.373  54.205  1.00  0.00     0.160 HD
BRANCH  22  24
HETATM   24  C19 UNL     1      26.877   1.752  52.342  1.00  0.00     0.101 C 
HETATM   25  C20 UNL     1      26.717   2.703  51.184  1.00  0.00     0.034 C 
BRANCH  24  26
HETATM   26  C21 UNL     1      28.175   2.132  53.057  1.00  0.00     0.188 C 
BRANCH  26  27
HETATM   27  O1  UNL     1      27.801   2.903  54.166  1.00  0.00    -0.399 OA
HETATM   28  H18 UNL     1      27.629   3.823  53.831  1.00  0.00     0.209 HD
ENDBRANCH  26  27
ENDBRANCH  24  26
ENDBRANCH  22  24
ENDBRANCH  13  22
TORSDOF 5
ENDMDL
MODEL 9
REMARK VINA RESULT:      -8.1      3.051      5.279
REMARK  5 active torsions:
REMARK  status: ('A' for Active; 'I' for Inactive)
REMARK    1  A    between atoms: C8_10  and  C9_11 
REMARK    2  A    between atoms: C18_21  and  N3_22 
REMARK    3  A    between atoms: N3_22  and  C19_23 
REMARK    4  A    between atoms: C19_23  and  C21_25 
REMARK    5  A    between atoms: C21_25  and  O1_26 
ROOT
HETATM    1  C1  UNL     1      27.034  -1.176  52.749  1.00  0.00     0.050 C 
HETATM    2  C2  UNL     1      26.287   0.054  52.362  1.00  0.00    -0.033 A 
HETATM    3  C3  UNL     1      26.860   1.049  51.618  1.00  0.00     0.041 A 
HETATM    4  C4  UNL     1      26.163   2.183  51.265  1.00  0.00     0.068 A 
HETATM    5  N1  UNL     1      26.774   3.106  50.531  1.00  0.00    -0.259 NA
HETATM    6  C5  UNL     1      26.133   4.208  50.158  1.00  0.00     0.140 A 
HETATM    7  C6  UNL     1      24.832   4.345  50.559  1.00  0.00     0.073 A 
HETATM    8  C7  UNL     1      24.165   5.562  50.159  1.00  0.00     0.102 C 
HETATM    9  N2  UNL     1      23.618   6.534  49.842  1.00  0.00    -0.191 NA
HETATM   10  C8  UNL     1      24.132   3.417  51.328  1.00  0.00    -0.001 A 
HETATM   11  C16 UNL     1      24.850   2.274  51.697  1.00  0.00     0.007 A 
HETATM   12  C17 UNL     1      24.277   1.253  52.457  1.00  0.00     0.044 A 
HETATM   13  C18 UNL     1      24.966   0.119  52.812  1.00  0.00     0.035 A 
ENDROOT
BRANCH  10  14
HETATM   14  C9  UNL     1      22.748   3.541  51.709  1.00  0.00     0.025 C 
HETATM   15  C10 UNL     1      21.567   3.551  51.139  1.00  0.00    -0.033 C 
HETATM   16  C11 UNL     1      20.340   3.712  51.908  1.00  0.00     0.024 C 
HETATM   17  C15 UNL     1      21.335   3.370  49.707  1.00  0.00     0.030 C 
HETATM   18  C12 UNL     1      19.233   3.977  51.293  1.00  0.00    -0.024 C 
HETATM   19  C13 UNL     1      18.981   3.535  50.078  1.00  0.00     0.031 C 
HETATM   20  C14 UNL     1      20.125   3.356  49.159  1.00  0.00     0.012 C 
HETATM   21 BR1  UNL     1      19.896   3.111  47.265  1.00  0.00    -0.051 Br
ENDBRANCH  10  14
BRANCH  13  22
HETATM   22  N3  UNL     1      24.315  -0.881  53.560  1.00  0.00    -0.383 N 
HETATM   23  H11 UNL     1      24.792  -1.821  53.486  1.00  0.00     0.160 HD
BRANCH  22  24
HETATM   24  C19 UNL     1      23.130  -0.722  54.361  1.00  0.00     0.101 C 
HETATM   25  C20 UNL     1      21.924  -1.381  53.744  1.00  0.00     0.034 C 
BRANCH  24  26
HETATM   26  C21 UNL     1      23.378  -1.409  55.705  1.00  0.00     0.188 C 
BRANCH  26  27
HETATM   27  O1  UNL     1      24.766  -1.559  55.819  1.00  0.00    -0.399 OA
HETATM   28  H18 UNL     1      24.988  -1.462  56.784  1.00  0.00     0.209 HD
ENDBRANCH  26  27
ENDBRANCH  24  26
ENDBRANCH  22  24
ENDBRANCH  13  22
TORSDOF 5
ENDMDL
