MODEL 1
REMARK VINA RESULT:      -9.2      0.000      0.000
REMARK  5 active torsions:
REMARK  status: ('A' for Active; 'I' for Inactive)
REMARK    1  A    between atoms: C4_6  and  N3_7 
REMARK    2  A    between atoms: N3_7  and  C5_8 
REMARK    3  A    between atoms: C13_17  and  N4_18 
REMARK    4  A    between atoms: N4_18  and  C14_19 
REMARK    5  A    between atoms: C14_19  and  C15_20 
ROOT
HETATM    1  N1  UNL     1      17.585  -1.195  53.484  1.00  0.00    -0.191 NA
HETATM    2  C1  UNL     1      18.502  -0.699  52.983  1.00  0.00     0.102 C 
HETATM    3  C2  UNL     1      19.638  -0.095  52.353  1.00  0.00     0.073 A 
HETATM    4  C3  UNL     1      19.498   0.648  51.203  1.00  0.00     0.142 A 
HETATM    5  N2  UNL     1      20.567   1.204  50.631  1.00  0.00    -0.241 NA
HETATM    6  C4  UNL     1      21.827   1.137  51.039  1.00  0.00     0.139 A 
HETATM    7  C11 UNL     1      21.971   0.395  52.190  1.00  0.00     0.024 A 
HETATM    8  C12 UNL     1      23.180   0.177  52.811  1.00  0.00     0.045 A 
HETATM    9  C13 UNL     1      23.386  -0.554  53.960  1.00  0.00     0.029 A 
HETATM   10  C19 UNL     1      22.297  -1.132  54.560  1.00  0.00     0.030 A 
HETATM   11  C20 UNL     1      21.053  -0.958  53.994  1.00  0.00     0.016 A 
HETATM   12  C21 UNL     1      20.919  -0.203  52.830  1.00  0.00     0.000 A 
ENDROOT
BRANCH   6  13
HETATM   13  N3  UNL     1      22.935   1.725  50.429  1.00  0.00    -0.340 N 
HETATM   14  H2  UNL     1      23.548   1.197  49.779  1.00  0.00     0.167 HD
BRANCH  13  15
HETATM   15  C5  UNL     1      23.403   3.039  50.560  1.00  0.00     0.035 A 
HETATM   16  C6  UNL     1      22.836   3.963  51.408  1.00  0.00     0.029 A 
HETATM   17  C7  UNL     1      23.273   5.259  51.568  1.00  0.00     0.004 A 
HETATM   18  C8  UNL     1      24.347   5.717  50.853  1.00  0.00     0.019 A 
HETATM   19  C9  UNL     1      24.960   4.849  49.987  1.00  0.00     0.013 A 
HETATM   20 BR1  UNL     1      26.446   5.422  48.973  1.00  0.00    -0.051 Br
HETATM   21  C10 UNL     1      24.474   3.568  49.876  1.00  0.00     0.048 A 
ENDBRANCH  13  15
ENDBRANCH   6  13
BRANCH   9  22
HETATM   22  N4  UNL     1      24.675  -0.729  54.537  1.00  0.00    -0.388 N 
HETATM   23  H8  UNL     1      24.746  -0.748  55.598  1.00  0.00     0.159 HD
BRANCH  22  24
HETATM   24  C14 UNL     1      25.845  -0.873  53.692  1.00  0.00     0.145 C 
BRANCH  24  25
HETATM   25  C15 UNL     1      26.940   0.009  54.265  1.00  0.00     0.102 C 
HETATM   26  C16 UNL     1      28.316  -0.467  53.848  1.00  0.00     0.036 C 
HETATM   27  C17 UNL     1      29.105   0.828  53.834  1.00  0.00     0.105 C 
HETATM   28  C18 UNL     1      28.145   1.717  53.092  1.00  0.00     0.218 C 
HETATM   29  O1  UNL     1      27.985   2.615  52.198  1.00  0.00    -0.274 OA
HETATM   30  N5  UNL     1      26.894   1.341  53.700  1.00  0.00    -0.355 N 
HETATM   31  H16 UNL     1      25.936   1.760  53.855  1.00  0.00     0.162 HD
ENDBRANCH  24  25
ENDBRANCH  22  24
ENDBRANCH   9  22
TORSDOF 5
ENDMDL
MODEL 2
REMARK VINA RESULT:      -8.9      2.890      6.597
REMARK  5 active torsions:
REMARK  status: ('A' for Active; 'I' for Inactive)
REMARK    1  A    between atoms: C4_6  and  N3_7 
REMARK    2  A    between atoms: N3_7  and  C5_8 
REMARK    3  A    between atoms: C13_17  and  N4_18 
REMARK    4  A    between atoms: N4_18  and  C14_19 
REMARK    5  A    between atoms: C14_19  and  C15_20 
ROOT
HETATM    1  N1  UNL     1      26.768  -0.236  55.382  1.00  0.00    -0.191 NA
HETATM    2  C1  UNL     1      26.581   0.380  54.421  1.00  0.00     0.102 C 
HETATM    3  C2  UNL     1      26.350   1.154  53.238  1.00  0.00     0.073 A 
HETATM    4  C3  UNL     1      27.383   1.808  52.607  1.00  0.00     0.142 A 
HETATM    5  N2  UNL     1      27.147   2.523  51.506  1.00  0.00    -0.241 NA
HETATM    6  C4  UNL     1      25.985   2.705  50.894  1.00  0.00     0.139 A 
HETATM    7  C11 UNL     1      24.950   2.052  51.523  1.00  0.00     0.024 A 
HETATM    8  C12 UNL     1      23.646   2.087  51.082  1.00  0.00     0.045 A 
HETATM    9  C13 UNL     1      22.570   1.456  51.667  1.00  0.00     0.029 A 
HETATM   10  C19 UNL     1      22.795   0.716  52.799  1.00  0.00     0.030 A 
HETATM   11  C20 UNL     1      24.077   0.636  53.301  1.00  0.00     0.016 A 
HETATM   12  C21 UNL     1      25.117   1.300  52.655  1.00  0.00     0.000 A 
ENDROOT
BRANCH   6  13
HETATM   13  N3  UNL     1      25.756   3.458  49.742  1.00  0.00    -0.340 N 
HETATM   14  H2  UNL     1      25.096   3.147  49.004  1.00  0.00     0.167 HD
BRANCH  13  15
HETATM   15  C5  UNL     1      26.327   4.686  49.380  1.00  0.00     0.035 A 
HETATM   16  C6  UNL     1      27.504   4.795  48.676  1.00  0.00     0.029 A 
HETATM   17  C7  UNL     1      28.090   5.983  48.298  1.00  0.00     0.004 A 
HETATM   18  C8  UNL     1      27.502   7.175  48.623  1.00  0.00     0.019 A 
HETATM   19  C9  UNL     1      26.325   7.140  49.327  1.00  0.00     0.013 A 
HETATM   20 BR1  UNL     1      25.465   8.752  49.804  1.00  0.00    -0.051 Br
HETATM   21  C10 UNL     1      25.794   5.921  49.671  1.00  0.00     0.048 A 
ENDBRANCH  13  15
ENDBRANCH   6  13
BRANCH   9  22
HETATM   22  N4  UNL     1      21.250   1.545  51.142  1.00  0.00    -0.388 N 
HETATM   23  H8  UNL     1      20.875   2.512  50.904  1.00  0.00     0.159 HD
BRANCH  22  24
HETATM   24  C14 UNL     1      20.455   0.348  50.946  1.00  0.00     0.145 C 
BRANCH  24  25
HETATM   25  C15 UNL     1      19.203   0.482  51.793  1.00  0.00     0.102 C 
HETATM   26  C16 UNL     1      17.988  -0.084  51.088  1.00  0.00     0.036 C 
HETATM   27  C17 UNL     1      17.133  -0.542  52.253  1.00  0.00     0.105 C 
HETATM   28  C18 UNL     1      18.167  -1.256  53.078  1.00  0.00     0.218 C 
HETATM   29  O1  UNL     1      18.456  -2.278  53.789  1.00  0.00    -0.274 OA
HETATM   30  N5  UNL     1      19.278  -0.344  52.979  1.00  0.00    -0.355 N 
HETATM   31  H16 UNL     1      20.147  -0.099  53.529  1.00  0.00     0.162 HD
ENDBRANCH  24  25
ENDBRANCH  22  24
ENDBRANCH   9  22
TORSDOF 5
ENDMDL
MODEL 3
REMARK VINA RESULT:      -8.9      2.938      5.604
REMARK  5 active torsions:
REMARK  status: ('A' for Active; 'I' for Inactive)
REMARK    1  A    between atoms: C4_6  and  N3_7 
REMARK    2  A    between atoms: N3_7  and  C5_8 
REMARK    3  A    between atoms: C13_17  and  N4_18 
REMARK    4  A    between atoms: N4_18  and  C14_19 
REMARK    5  A    between atoms: C14_19  and  C15_20 
ROOT
HETATM    1  N1  UNL     1      25.870   6.020  49.038  1.00  0.00    -0.191 NA
HETATM    2  C1  UNL     1      25.139   5.342  49.623  1.00  0.00     0.102 C 
HETATM    3  C2  UNL     1      24.234   4.510  50.358  1.00  0.00     0.073 A 
HETATM    4  C3  UNL     1      22.920   4.877  50.536  1.00  0.00     0.142 A 
HETATM    5  N2  UNL     1      22.092   4.088  51.224  1.00  0.00    -0.241 NA
HETATM    6  C4  UNL     1      22.374   2.927  51.797  1.00  0.00     0.139 A 
HETATM    7  C11 UNL     1      23.688   2.556  51.621  1.00  0.00     0.024 A 
HETATM    8  C12 UNL     1      24.227   1.392  52.122  1.00  0.00     0.045 A 
HETATM    9  C13 UNL     1      25.530   0.969  51.979  1.00  0.00     0.029 A 
HETATM   10  C19 UNL     1      26.393   1.768  51.275  1.00  0.00     0.030 A 
HETATM   11  C20 UNL     1      25.925   2.951  50.744  1.00  0.00     0.016 A 
HETATM   12  C21 UNL     1      24.593   3.314  50.928  1.00  0.00     0.000 A 
ENDROOT
BRANCH   6  13
HETATM   13  N3  UNL     1      21.496   2.114  52.514  1.00  0.00    -0.340 N 
HETATM   14  H2  UNL     1      21.584   1.979  53.539  1.00  0.00     0.167 HD
BRANCH  13  15
HETATM   15  C5  UNL     1      20.407   1.375  52.031  1.00  0.00     0.035 A 
HETATM   16  C6  UNL     1      19.856   1.567  50.785  1.00  0.00     0.029 A 
HETATM   17  C7  UNL     1      18.791   0.857  50.275  1.00  0.00     0.004 A 
HETATM   18  C8  UNL     1      18.196  -0.123  51.023  1.00  0.00     0.019 A 
HETATM   19  C9  UNL     1      18.695  -0.366  52.277  1.00  0.00     0.013 A 
HETATM   20 BR1  UNL     1      17.917  -1.706  53.355  1.00  0.00    -0.051 Br
HETATM   21  C10 UNL     1      19.760   0.377  52.724  1.00  0.00     0.048 A 
ENDBRANCH  13  15
ENDBRANCH   6  13
BRANCH   9  22
HETATM   22  N4  UNL     1      26.004  -0.254  52.531  1.00  0.00    -0.388 N 
HETATM   23  H8  UNL     1      26.363  -0.996  51.859  1.00  0.00     0.159 HD
BRANCH  22  24
HETATM   24  C14 UNL     1      25.989  -0.467  53.966  1.00  0.00     0.145 C 
BRANCH  24  25
HETATM   25  C15 UNL     1      27.419  -0.357  54.463  1.00  0.00     0.102 C 
HETATM   26  C16 UNL     1      28.416  -0.680  53.370  1.00  0.00     0.036 C 
HETATM   27  C17 UNL     1      29.608   0.166  53.772  1.00  0.00     0.105 C 
HETATM   28  C18 UNL     1      28.920   1.470  54.071  1.00  0.00     0.218 C 
HETATM   29  O1  UNL     1      28.935   2.742  53.958  1.00  0.00    -0.274 OA
HETATM   30  N5  UNL     1      27.760   1.011  54.790  1.00  0.00    -0.355 N 
HETATM   31  H16 UNL     1      27.072   1.388  55.499  1.00  0.00     0.162 HD
ENDBRANCH  24  25
ENDBRANCH  22  24
ENDBRANCH   9  22
TORSDOF 5
ENDMDL
MODEL 4
REMARK VINA RESULT:      -8.8      2.723      6.216
REMARK  5 active torsions:
REMARK  status: ('A' for Active; 'I' for Inactive)
REMARK    1  A    between atoms: C4_6  and  N3_7 
REMARK    2  A    between atoms: N3_7  and  C5_8 
REMARK    3  A    between atoms: C13_17  and  N4_18 
REMARK    4  A    between atoms: N4_18  and  C14_19 
REMARK    5  A    between atoms: C14_19  and  C15_20 
ROOT
HETATM    1  N1  UNL     1      26.650  -0.169  55.320  1.00  0.00    -0.191 NA
HETATM    2  C1  UNL     1      26.497   0.447  54.353  1.00  0.00     0.102 C 
HETATM    3  C2  UNL     1      26.309   1.221  53.163  1.00  0.00     0.073 A 
HETATM    4  C3  UNL     1      27.346   1.940  52.614  1.00  0.00     0.142 A 
HETATM    5  N2  UNL     1      27.150   2.654  51.504  1.00  0.00    -0.241 NA
HETATM    6  C4  UNL     1      26.027   2.778  50.811  1.00  0.00     0.139 A 
HETATM    7  C11 UNL     1      24.987   2.061  51.358  1.00  0.00     0.024 A 
HETATM    8  C12 UNL     1      23.718   2.028  50.825  1.00  0.00     0.045 A 
HETATM    9  C13 UNL     1      22.641   1.332  51.325  1.00  0.00     0.029 A 
HETATM   10  C19 UNL     1      22.825   0.592  52.465  1.00  0.00     0.030 A 
HETATM   11  C20 UNL     1      24.070   0.577  53.057  1.00  0.00     0.016 A 
HETATM   12  C21 UNL     1      25.115   1.306  52.493  1.00  0.00     0.000 A 
ENDROOT
BRANCH   6  13
HETATM   13  N3  UNL     1      25.839   3.531  49.652  1.00  0.00    -0.340 N 
HETATM   14  H2  UNL     1      25.190   3.230  48.900  1.00  0.00     0.167 HD
BRANCH  13  15
HETATM   15  C5  UNL     1      26.441   4.746  49.299  1.00  0.00     0.035 A 
HETATM   16  C6  UNL     1      27.635   4.830  48.619  1.00  0.00     0.029 A 
HETATM   17  C7  UNL     1      28.252   6.005  48.251  1.00  0.00     0.004 A 
HETATM   18  C8  UNL     1      27.681   7.210  48.562  1.00  0.00     0.019 A 
HETATM   19  C9  UNL     1      26.490   7.200  49.241  1.00  0.00     0.013 A 
HETATM   20 BR1  UNL     1      25.653   8.829  49.697  1.00  0.00    -0.051 Br
HETATM   21  C10 UNL     1      25.927   5.993  49.577  1.00  0.00     0.048 A 
ENDBRANCH  13  15
ENDBRANCH   6  13
BRANCH   9  22
HETATM   22  N4  UNL     1      21.359   1.354  50.707  1.00  0.00    -0.388 N 
HETATM   23  H8  UNL     1      20.539   1.719  51.278  1.00  0.00     0.159 HD
BRANCH  22  24
HETATM   24  C14 UNL     1      21.193   0.889  49.344  1.00  0.00     0.145 C 
BRANCH  24  25
HETATM   25  C15 UNL     1      20.754   2.074  48.503  1.00  0.00     0.102 C 
HETATM   26  C16 UNL     1      20.190   3.188  49.360  1.00  0.00     0.036 C 
HETATM   27  C17 UNL     1      20.530   4.418  48.541  1.00  0.00     0.105 C 
HETATM   28  C18 UNL     1      21.963   4.121  48.198  1.00  0.00     0.218 C 
HETATM   29  O1  UNL     1      23.154   4.568  48.082  1.00  0.00    -0.274 OA
HETATM   30  N5  UNL     1      21.885   2.720  47.872  1.00  0.00    -0.355 N 
HETATM   31  H16 UNL     1      22.423   2.014  47.297  1.00  0.00     0.162 HD
ENDBRANCH  24  25
ENDBRANCH  22  24
ENDBRANCH   9  22
TORSDOF 5
ENDMDL
MODEL 5
REMARK VINA RESULT:      -8.7      3.224      6.859
REMARK  5 active torsions:
REMARK  status: ('A' for Active; 'I' for Inactive)
REMARK    1  A    between atoms: C4_6  and  N3_7 
REMARK    2  A    between atoms: N3_7  and  C5_8 
REMARK    3  A    between atoms: C13_17  and  N4_18 
REMARK    4  A    between atoms: N4_18  and  C14_19 
REMARK    5  A    between atoms: C14_19  and  C15_20 
ROOT
HETATM    1  N1  UNL     1      27.974  -1.325  53.401  1.00  0.00    -0.191 NA
HETATM    2  C1  UNL     1      26.945  -0.810  53.281  1.00  0.00     0.102 C 
HETATM    3  C2  UNL     1      25.666  -0.183  53.125  1.00  0.00     0.073 A 
HETATM    4  C3  UNL     1      24.557  -0.663  53.782  1.00  0.00     0.142 A 
HETATM    5  N2  UNL     1      23.375  -0.064  53.624  1.00  0.00    -0.241 NA
HETATM    6  C4  UNL     1      23.100   0.995  52.875  1.00  0.00     0.139 A 
HETATM    7  C11 UNL     1      24.208   1.477  52.215  1.00  0.00     0.024 A 
HETATM    8  C12 UNL     1      24.182   2.568  51.376  1.00  0.00     0.045 A 
HETATM    9  C13 UNL     1      25.254   3.095  50.690  1.00  0.00     0.029 A 
HETATM   10  C19 UNL     1      26.475   2.492  50.842  1.00  0.00     0.030 A 
HETATM   11  C20 UNL     1      26.579   1.393  51.667  1.00  0.00     0.016 A 
HETATM   12  C21 UNL     1      25.451   0.915  52.330  1.00  0.00     0.000 A 
ENDROOT
BRANCH   6  13
HETATM   13  N3  UNL     1      21.857   1.608  52.720  1.00  0.00    -0.340 N 
HETATM   14  H2  UNL     1      21.691   2.593  53.002  1.00  0.00     0.167 HD
BRANCH  13  15
HETATM   15  C5  UNL     1      20.679   1.061  52.196  1.00  0.00     0.035 A 
HETATM   16  C6  UNL     1      20.166   1.406  50.966  1.00  0.00     0.029 A 
HETATM   17  C7  UNL     1      19.015   0.885  50.416  1.00  0.00     0.004 A 
HETATM   18  C8  UNL     1      18.286  -0.048  51.102  1.00  0.00     0.019 A 
HETATM   19  C9  UNL     1      18.739  -0.437  52.337  1.00  0.00     0.013 A 
HETATM   20 BR1  UNL     1      17.776  -1.721  53.331  1.00  0.00    -0.051 Br
HETATM   21  C10 UNL     1      19.895   0.121  52.826  1.00  0.00     0.048 A 
ENDBRANCH  13  15
ENDBRANCH   6  13
BRANCH   9  22
HETATM   22  N4  UNL     1      25.136   4.231  49.840  1.00  0.00    -0.388 N 
HETATM   23  H8  UNL     1      25.085   4.062  48.791  1.00  0.00     0.159 HD
BRANCH  22  24
HETATM   24  C14 UNL     1      25.091   5.567  50.401  1.00  0.00     0.145 C 
BRANCH  24  25
HETATM   25  C15 UNL     1      23.676   6.090  50.233  1.00  0.00     0.102 C 
HETATM   26  C16 UNL     1      22.900   5.281  49.214  1.00  0.00     0.036 C 
HETATM   27  C17 UNL     1      21.477   5.417  49.723  1.00  0.00     0.105 C 
HETATM   28  C18 UNL     1      21.691   5.143  51.186  1.00  0.00     0.218 C 
HETATM   29  O1  UNL     1      21.274   4.554  52.240  1.00  0.00    -0.274 OA
HETATM   30  N5  UNL     1      22.895   5.894  51.435  1.00  0.00    -0.355 N 
HETATM   31  H16 UNL     1      23.383   6.351  52.254  1.00  0.00     0.162 HD
ENDBRANCH  24  25
ENDBRANCH  22  24
ENDBRANCH   9  22
TORSDOF 5
ENDMDL
MODEL 6
REMARK VINA RESULT:      -8.6      2.801      6.093
REMARK  5 active torsions:
REMARK  status: ('A' for Active; 'I' for Inactive)
REMARK    1  A    between atoms: C4_6  and  N3_7 
REMARK    2  A    between atoms: N3_7  and  C5_8 
REMARK    3  A    between atoms: C13_17  and  N4_18 
REMARK    4  A    between atoms: N4_18  and  C14_19 
REMARK    5  A    between atoms: C14_19  and  C15_20 
ROOT
HETATM    1  N1  UNL     1      27.550  -2.424  53.084  1.00  0.00    -0.191 NA
HETATM    2  C1  UNL     1      27.053  -1.399  52.882  1.00  0.00     0.102 C 
HETATM    3  C2  UNL     1      26.444  -0.125  52.642  1.00  0.00     0.073 A 
HETATM    4  C3  UNL     1      27.167   0.916  52.108  1.00  0.00     0.142 A 
HETATM    5  N2  UNL     1      26.582   2.095  51.891  1.00  0.00    -0.241 NA
HETATM    6  C4  UNL     1      25.322   2.428  52.133  1.00  0.00     0.139 A 
HETATM    7  C11 UNL     1      24.595   1.388  52.667  1.00  0.00     0.024 A 
HETATM    8  C12 UNL     1      23.264   1.482  53.006  1.00  0.00     0.045 A 
HETATM    9  C13 UNL     1      22.486   0.480  53.543  1.00  0.00     0.029 A 
HETATM   10  C19 UNL     1      23.072  -0.738  53.771  1.00  0.00     0.030 A 
HETATM   11  C20 UNL     1      24.404  -0.907  53.457  1.00  0.00     0.016 A 
HETATM   12  C21 UNL     1      25.129   0.152  52.916  1.00  0.00     0.000 A 
ENDROOT
BRANCH   6  13
HETATM   13  N3  UNL     1      24.725   3.667  51.900  1.00  0.00    -0.340 N 
HETATM   14  H2  UNL     1      24.554   4.347  52.666  1.00  0.00     0.167 HD
BRANCH  13  15
HETATM   15  C5  UNL     1      24.274   4.199  50.685  1.00  0.00     0.035 A 
HETATM   16  C6  UNL     1      24.594   5.464  50.248  1.00  0.00     0.029 A 
HETATM   17  C7  UNL     1      24.175   6.017  49.058  1.00  0.00     0.004 A 
HETATM   18  C8  UNL     1      23.376   5.300  48.209  1.00  0.00     0.019 A 
HETATM   19  C9  UNL     1      23.018   4.030  48.583  1.00  0.00     0.013 A 
HETATM   20 BR1  UNL     1      21.919   2.991  47.453  1.00  0.00    -0.051 Br
HETATM   21  C10 UNL     1      23.472   3.538  49.782  1.00  0.00     0.048 A 
ENDBRANCH  13  15
ENDBRANCH   6  13
BRANCH   9  22
HETATM   22  N4  UNL     1      21.112   0.665  53.864  1.00  0.00    -0.388 N 
HETATM   23  H8  UNL     1      20.874   1.321  54.667  1.00  0.00     0.159 HD
BRANCH  22  24
HETATM   24  C14 UNL     1      20.082  -0.026  53.113  1.00  0.00     0.145 C 
BRANCH  24  25
HETATM   25  C15 UNL     1      19.903   0.706  51.795  1.00  0.00     0.102 C 
HETATM   26  C16 UNL     1      18.640   0.270  51.082  1.00  0.00     0.036 C 
HETATM   27  C17 UNL     1      18.266   1.522  50.312  1.00  0.00     0.105 C 
HETATM   28  C18 UNL     1      18.437   2.558  51.389  1.00  0.00     0.218 C 
HETATM   29  O1  UNL     1      17.974   3.605  51.954  1.00  0.00    -0.274 OA
HETATM   30  N5  UNL     1      19.663   2.117  52.004  1.00  0.00    -0.355 N 
HETATM   31  H16 UNL     1      20.451   2.531  52.575  1.00  0.00     0.162 HD
ENDBRANCH  24  25
ENDBRANCH  22  24
ENDBRANCH   9  22
TORSDOF 5
ENDMDL
MODEL 7
REMARK VINA RESULT:      -8.5      3.634      7.006
REMARK  5 active torsions:
REMARK  status: ('A' for Active; 'I' for Inactive)
REMARK    1  A    between atoms: C4_6  and  N3_7 
REMARK    2  A    between atoms: N3_7  and  C5_8 
REMARK    3  A    between atoms: C13_17  and  N4_18 
REMARK    4  A    between atoms: N4_18  and  C14_19 
REMARK    5  A    between atoms: C14_19  and  C15_20 
ROOT
HETATM    1  N1  UNL     1      20.717   1.678  48.611  1.00  0.00    -0.191 NA
HETATM    2  C1  UNL     1      21.603   1.815  49.341  1.00  0.00     0.102 C 
HETATM    3  C2  UNL     1      22.692   1.990  50.256  1.00  0.00     0.073 A 
HETATM    4  C3  UNL     1      22.829   1.178  51.358  1.00  0.00     0.142 A 
HETATM    5  N2  UNL     1      23.851   1.357  52.197  1.00  0.00    -0.241 NA
HETATM    6  C4  UNL     1      24.814   2.264  52.115  1.00  0.00     0.139 A 
HETATM    7  C11 UNL     1      24.679   3.079  51.013  1.00  0.00     0.024 A 
HETATM    8  C12 UNL     1      25.552   4.099  50.707  1.00  0.00     0.045 A 
HETATM    9  C13 UNL     1      25.470   4.945  49.623  1.00  0.00     0.029 A 
HETATM   10  C19 UNL     1      24.426   4.774  48.750  1.00  0.00     0.030 A 
HETATM   11  C20 UNL     1      23.511   3.772  48.993  1.00  0.00     0.016 A 
HETATM   12  C21 UNL     1      23.658   2.953  50.110  1.00  0.00     0.000 A 
ENDROOT
BRANCH   6  13
HETATM   13  N3  UNL     1      25.876   2.438  53.003  1.00  0.00    -0.340 N 
HETATM   14  H2  UNL     1      25.944   3.268  53.622  1.00  0.00     0.167 HD
BRANCH  13  15
HETATM   15  C5  UNL     1      26.974   1.594  53.218  1.00  0.00     0.035 A 
HETATM   16  C6  UNL     1      28.181   2.035  53.709  1.00  0.00     0.029 A 
HETATM   17  C7  UNL     1      29.279   1.235  53.939  1.00  0.00     0.004 A 
HETATM   18  C8  UNL     1      29.220  -0.107  53.675  1.00  0.00     0.019 A 
HETATM   19  C9  UNL     1      28.045  -0.614  53.182  1.00  0.00     0.013 A 
HETATM   20 BR1  UNL     1      27.903  -2.457  52.799  1.00  0.00    -0.051 Br
HETATM   21  C10 UNL     1      26.988   0.239  52.977  1.00  0.00     0.048 A 
ENDBRANCH  13  15
ENDBRANCH   6  13
BRANCH   9  22
HETATM   22  N4  UNL     1      26.420   5.976  49.382  1.00  0.00    -0.388 N 
HETATM   23  H8  UNL     1      26.258   6.919  49.849  1.00  0.00     0.159 HD
BRANCH  22  24
HETATM   24  C14 UNL     1      27.564   5.736  48.524  1.00  0.00     0.145 C 
BRANCH  24  25
HETATM   25  C15 UNL     1      28.174   7.083  48.180  1.00  0.00     0.102 C 
HETATM   26  C16 UNL     1      27.222   7.934  47.366  1.00  0.00     0.036 C 
HETATM   27  C17 UNL     1      27.630   9.337  47.773  1.00  0.00     0.105 C 
HETATM   28  C18 UNL     1      27.709   9.169  49.265  1.00  0.00     0.218 C 
HETATM   29  O1  UNL     1      27.450   9.658  50.416  1.00  0.00    -0.274 OA
HETATM   30  N5  UNL     1      28.368   7.891  49.364  1.00  0.00    -0.355 N 
HETATM   31  H16 UNL     1      28.962   7.363  50.062  1.00  0.00     0.162 HD
ENDBRANCH  24  25
ENDBRANCH  22  24
ENDBRANCH   9  22
TORSDOF 5
ENDMDL
MODEL 8
REMARK VINA RESULT:      -8.3      3.342      6.456
REMARK  5 active torsions:
REMARK  status: ('A' for Active; 'I' for Inactive)
REMARK    1  A    between atoms: C4_6  and  N3_7 
REMARK    2  A    between atoms: N3_7  and  C5_8 
REMARK    3  A    between atoms: C13_17  and  N4_18 
REMARK    4  A    between atoms: N4_18  and  C14_19 
REMARK    5  A    between atoms: C14_19  and  C15_20 
ROOT
HETATM    1  N1  UNL     1      27.516  -1.881  53.149  1.00  0.00    -0.191 NA
HETATM    2  C1  UNL     1      26.601  -1.177  53.073  1.00  0.00     0.102 C 
HETATM    3  C2  UNL     1      25.462  -0.314  52.969  1.00  0.00     0.073 A 
HETATM    4  C3  UNL     1      24.251  -0.672  53.514  1.00  0.00     0.142 A 
HETATM    5  N2  UNL     1      23.202   0.146  53.408  1.00  0.00    -0.241 NA
HETATM    6  C4  UNL     1      23.159   1.330  52.812  1.00  0.00     0.139 A 
HETATM    7  C11 UNL     1      24.369   1.690  52.265  1.00  0.00     0.024 A 
HETATM    8  C12 UNL     1      24.581   2.874  51.593  1.00  0.00     0.045 A 
HETATM    9  C13 UNL     1      25.766   3.288  51.026  1.00  0.00     0.029 A 
HETATM   10  C19 UNL     1      26.853   2.460  51.127  1.00  0.00     0.030 A 
HETATM   11  C20 UNL     1      26.716   1.256  51.786  1.00  0.00     0.016 A 
HETATM   12  C21 UNL     1      25.487   0.903  52.337  1.00  0.00     0.000 A 
ENDROOT
BRANCH   6  13
HETATM   13  N3  UNL     1      22.052   2.173  52.709  1.00  0.00    -0.340 N 
HETATM   14  H2  UNL     1      21.920   2.986  53.341  1.00  0.00     0.167 HD
BRANCH  13  15
HETATM   15  C5  UNL     1      20.984   2.097  51.805  1.00  0.00     0.035 A 
HETATM   16  C6  UNL     1      20.979   1.264  50.709  1.00  0.00     0.029 A 
HETATM   17  C7  UNL     1      19.946   1.159  49.804  1.00  0.00     0.004 A 
HETATM   18  C8  UNL     1      18.817   1.917  49.955  1.00  0.00     0.019 A 
HETATM   19  C9  UNL     1      18.756   2.771  51.027  1.00  0.00     0.013 A 
HETATM   20 BR1  UNL     1      17.224   3.843  51.290  1.00  0.00    -0.051 Br
HETATM   21  C10 UNL     1      19.820   2.827  51.893  1.00  0.00     0.048 A 
ENDBRANCH  13  15
ENDBRANCH   6  13
BRANCH   9  22
HETATM   22  N4  UNL     1      25.897   4.532  50.347  1.00  0.00    -0.388 N 
HETATM   23  H8  UNL     1      25.177   5.288  50.553  1.00  0.00     0.159 HD
BRANCH  22  24
HETATM   24  C14 UNL     1      26.981   4.746  49.409  1.00  0.00     0.145 C 
BRANCH  24  25
HETATM   25  C15 UNL     1      26.693   6.033  48.657  1.00  0.00     0.102 C 
HETATM   26  C16 UNL     1      25.257   6.478  48.842  1.00  0.00     0.036 C 
HETATM   27  C17 UNL     1      25.377   7.985  48.718  1.00  0.00     0.105 C 
HETATM   28  C18 UNL     1      26.566   8.231  49.604  1.00  0.00     0.218 C 
HETATM   29  O1  UNL     1      27.100   8.960  50.508  1.00  0.00    -0.274 OA
HETATM   30  N5  UNL     1      27.431   7.146  49.215  1.00  0.00    -0.355 N 
HETATM   31  H16 UNL     1      28.464   6.922  49.218  1.00  0.00     0.162 HD
ENDBRANCH  24  25
ENDBRANCH  22  24
ENDBRANCH   9  22
TORSDOF 5
ENDMDL
MODEL 9
REMARK VINA RESULT:      -8.3      5.424      8.550
REMARK  5 active torsions:
REMARK  status: ('A' for Active; 'I' for Inactive)
REMARK    1  A    between atoms: C4_6  and  N3_7 
REMARK    2  A    between atoms: N3_7  and  C5_8 
REMARK    3  A    between atoms: C13_17  and  N4_18 
REMARK    4  A    between atoms: N4_18  and  C14_19 
REMARK    5  A    between atoms: C14_19  and  C15_20 
ROOT
HETATM    1  N1  UNL     1      24.539   9.712  48.197  1.00  0.00    -0.191 NA
HETATM    2  C1  UNL     1      24.765   8.609  48.461  1.00  0.00     0.102 C 
HETATM    3  C2  UNL     1      25.044   7.245  48.801  1.00  0.00     0.073 A 
HETATM    4  C3  UNL     1      24.076   6.440  49.353  1.00  0.00     0.142 A 
HETATM    5  N2  UNL     1      24.356   5.173  49.662  1.00  0.00    -0.241 NA
HETATM    6  C4  UNL     1      25.509   4.539  49.503  1.00  0.00     0.139 A 
HETATM    7  C11 UNL     1      26.481   5.342  48.950  1.00  0.00     0.024 A 
HETATM    8  C12 UNL     1      27.764   4.916  48.687  1.00  0.00     0.045 A 
HETATM    9  C13 UNL     1      28.776   5.671  48.137  1.00  0.00     0.029 A 
HETATM   10  C19 UNL     1      28.505   6.975  47.813  1.00  0.00     0.030 A 
HETATM   11  C20 UNL     1      27.241   7.472  48.050  1.00  0.00     0.016 A 
HETATM   12  C21 UNL     1      26.265   6.650  48.608  1.00  0.00     0.000 A 
ENDROOT
BRANCH   6  13
HETATM   13  N3  UNL     1      25.785   3.212  49.832  1.00  0.00    -0.340 N 
HETATM   14  H2  UNL     1      25.964   2.491  49.107  1.00  0.00     0.167 HD
BRANCH  13  15
HETATM   15  C5  UNL     1      25.869   2.633  51.106  1.00  0.00     0.035 A 
HETATM   16  C6  UNL     1      24.770   2.367  51.890  1.00  0.00     0.029 A 
HETATM   17  C7  UNL     1      24.814   1.795  53.142  1.00  0.00     0.004 A 
HETATM   18  C8  UNL     1      26.015   1.446  53.698  1.00  0.00     0.019 A 
HETATM   19  C9  UNL     1      27.153   1.685  52.971  1.00  0.00     0.013 A 
HETATM   20 BR1  UNL     1      28.839   1.225  53.684  1.00  0.00    -0.051 Br
HETATM   21  C10 UNL     1      27.039   2.257  51.728  1.00  0.00     0.048 A 
ENDBRANCH  13  15
ENDBRANCH   6  13
BRANCH   9  22
HETATM   22  N4  UNL     1      30.078   5.149  47.897  1.00  0.00    -0.388 N 
HETATM   23  H8  UNL     1      30.164   4.304  47.257  1.00  0.00     0.159 HD
BRANCH  22  24
HETATM   24  C14 UNL     1      31.240   5.759  48.514  1.00  0.00     0.145 C 
BRANCH  24  25
HETATM   25  C15 UNL     1      32.436   4.868  48.229  1.00  0.00     0.102 C 
HETATM   26  C16 UNL     1      32.940   5.048  46.813  1.00  0.00     0.036 C 
HETATM   27  C17 UNL     1      34.417   4.738  46.964  1.00  0.00     0.105 C 
HETATM   28  C18 UNL     1      34.734   5.547  48.192  1.00  0.00     0.218 C 
HETATM   29  O1  UNL     1      35.550   6.337  48.777  1.00  0.00    -0.274 OA
HETATM   30  N5  UNL     1      33.586   5.262  49.014  1.00  0.00    -0.355 N 
HETATM   31  H16 UNL     1      33.334   5.257  50.041  1.00  0.00     0.162 HD
ENDBRANCH  24  25
ENDBRANCH  22  24
ENDBRANCH   9  22
TORSDOF 5
ENDMDL
