MODEL 1
REMARK VINA RESULT:      -8.8      0.000      0.000
REMARK  1 active torsions:
REMARK  status: ('A' for Active; 'I' for Inactive)
REMARK    1  A    between atoms: N1_4  and  C4_5 
ROOT
HETATM    1  C4  UNL     1      21.188   0.853  53.116  1.00  0.00     0.145 A 
HETATM    2  N2  UNL     1      20.676   0.167  54.189  1.00  0.00    -0.223 NA
HETATM    3  C5  UNL     1      21.512  -0.755  54.740  1.00  0.00     0.236 A 
HETATM    4  N3  UNL     1      22.734  -1.003  54.304  1.00  0.00    -0.234 NA
HETATM    5  C6  UNL     1      23.300  -0.373  53.263  1.00  0.00     0.110 A 
HETATM    6  C7  UNL     1      22.457   0.547  52.721  1.00  0.00     0.057 A 
HETATM    7  C8  UNL     1      22.859   1.382  51.603  1.00  0.00    -0.009 A 
HETATM    8  C9  UNL     1      22.113   1.029  50.515  1.00  0.00     0.013 A 
HETATM    9  C10 UNL     1      22.361   1.708  49.306  1.00  0.00     0.001 A 
HETATM   10  C11 UNL     1      23.297   2.688  49.177  1.00  0.00     0.001 A 
HETATM   11  C12 UNL     1      24.001   2.979  50.337  1.00  0.00     0.012 A 
HETATM   12  C13 UNL     1      23.820   2.354  51.577  1.00  0.00    -0.025 A 
HETATM   13  C14 UNL     1      24.628   2.784  52.695  1.00  0.00     0.016 C 
HETATM   14  C15 UNL     1      25.463   2.284  53.581  1.00  0.00     0.052 C 
HETATM   15  C16 UNL     1      26.188   1.120  54.141  1.00  0.00     0.159 C 
HETATM   16  O1  UNL     1      27.004   1.144  55.109  1.00  0.00    -0.292 OA
HETATM   17  C17 UNL     1      26.214  -0.326  53.804  1.00  0.00     0.164 C 
HETATM   18  S1  UNL     1      24.920  -0.600  52.529  1.00  0.00    -0.102 SA
ENDROOT
BRANCH   1  19
HETATM   19  N1  UNL     1      20.224   1.749  52.590  1.00  0.00    -0.337 N 
HETATM   20  C3  UNL     1      19.185   0.823  52.133  1.00  0.00     0.101 A 
HETATM   21  C2  UNL     1      18.019   1.041  51.515  1.00  0.00    -0.025 A 
HETATM   22  C1  UNL     1      16.932   0.104  51.034  1.00  0.00     0.051 C 
HETATM   23  C20 UNL     1      17.663   2.452  51.234  1.00  0.00     0.039 A 
HETATM   24  C19 UNL     1      18.574   3.289  51.651  1.00  0.00     0.018 A 
HETATM   25 CL1  UNL     1      16.229   3.061  50.449  1.00  0.00    -0.084 Cl
HETATM   26  C18 UNL     1      19.880   3.130  52.342  1.00  0.00     0.159 A 
ENDBRANCH   1  19
TORSDOF 1
ENDMDL
MODEL 2
REMARK VINA RESULT:      -8.3      3.995      6.888
REMARK  1 active torsions:
REMARK  status: ('A' for Active; 'I' for Inactive)
REMARK    1  A    between atoms: N1_4  and  C4_5 
ROOT
HETATM    1  C4  UNL     1      23.855   2.149  51.156  1.00  0.00     0.145 A 
HETATM    2  N2  UNL     1      24.500   2.792  50.128  1.00  0.00    -0.223 NA
HETATM    3  C5  UNL     1      23.780   2.913  48.979  1.00  0.00     0.236 A 
HETATM    4  N3  UNL     1      22.549   2.462  48.823  1.00  0.00    -0.234 NA
HETATM    5  C6  UNL     1      21.858   1.825  49.781  1.00  0.00     0.110 A 
HETATM    6  C7  UNL     1      22.585   1.709  50.925  1.00  0.00     0.057 A 
HETATM    7  C8  UNL     1      22.036   1.089  52.117  1.00  0.00    -0.009 A 
HETATM    8  C9  UNL     1      22.717  -0.072  52.347  1.00  0.00     0.013 A 
HETATM    9  C10 UNL     1      22.325  -0.850  53.455  1.00  0.00     0.001 A 
HETATM   10  C11 UNL     1      21.312  -0.499  54.294  1.00  0.00     0.001 A 
HETATM   11  C12 UNL     1      20.682   0.697  53.980  1.00  0.00     0.012 A 
HETATM   12  C13 UNL     1      21.006   1.529  52.901  1.00  0.00    -0.025 A 
HETATM   13  C14 UNL     1      20.260   2.753  52.721  1.00  0.00     0.016 C 
HETATM   14  C15 UNL     1      19.536   3.361  51.805  1.00  0.00     0.052 C 
HETATM   15  C16 UNL     1      18.946   3.381  50.446  1.00  0.00     0.159 C 
HETATM   16  O1  UNL     1      18.210   4.292  49.966  1.00  0.00    -0.292 OA
HETATM   17  C17 UNL     1      19.001   2.444  49.295  1.00  0.00     0.164 C 
HETATM   18  S1  UNL     1      20.206   1.130  49.732  1.00  0.00    -0.102 SA
ENDROOT
BRANCH   1  19
HETATM   19  N1  UNL     1      24.706   2.033  52.284  1.00  0.00    -0.337 N 
HETATM   20  C3  UNL     1      25.468   0.827  51.950  1.00  0.00     0.101 A 
HETATM   21  C2  UNL     1      26.418   0.169  52.624  1.00  0.00    -0.025 A 
HETATM   22  C1  UNL     1      27.217  -1.076  52.302  1.00  0.00     0.051 C 
HETATM   23  C20 UNL     1      26.812   0.725  53.940  1.00  0.00     0.039 A 
HETATM   24  C19 UNL     1      26.151   1.809  54.242  1.00  0.00     0.018 A 
HETATM   25 CL1  UNL     1      28.005   0.106  55.053  1.00  0.00    -0.084 Cl
HETATM   26  C18 UNL     1      25.096   2.598  53.554  1.00  0.00     0.159 A 
ENDBRANCH   1  19
TORSDOF 1
ENDMDL
MODEL 3
REMARK VINA RESULT:      -8.2      3.778      6.591
REMARK  1 active torsions:
REMARK  status: ('A' for Active; 'I' for Inactive)
REMARK    1  A    between atoms: N1_4  and  C4_5 
ROOT
HETATM    1  C4  UNL     1      23.683   0.050  53.262  1.00  0.00     0.145 A 
HETATM    2  N2  UNL     1      23.328  -0.832  54.252  1.00  0.00    -0.223 NA
HETATM    3  C5  UNL     1      22.052  -0.706  54.711  1.00  0.00     0.236 A 
HETATM    4  N3  UNL     1      21.188   0.186  54.263  1.00  0.00    -0.234 NA
HETATM    5  C6  UNL     1      21.464   1.079  53.299  1.00  0.00     0.110 A 
HETATM    6  C7  UNL     1      22.740   0.943  52.847  1.00  0.00     0.057 A 
HETATM    7  C8  UNL     1      23.260   1.774  51.776  1.00  0.00    -0.009 A 
HETATM    8  C9  UNL     1      24.230   2.583  52.296  1.00  0.00     0.013 A 
HETATM    9  C10 UNL     1      24.858   3.493  51.422  1.00  0.00     0.001 A 
HETATM   10  C11 UNL     1      24.544   3.599  50.102  1.00  0.00     0.001 A 
HETATM   11  C12 UNL     1      23.549   2.735  49.667  1.00  0.00     0.012 A 
HETATM   12  C13 UNL     1      22.875   1.802  50.465  1.00  0.00    -0.025 A 
HETATM   13  C14 UNL     1      21.872   0.962  49.853  1.00  0.00     0.016 C 
HETATM   14  C15 UNL     1      20.600   0.652  49.995  1.00  0.00     0.052 C 
HETATM   15  C16 UNL     1      19.317   0.814  50.717  1.00  0.00     0.159 C 
HETATM   16  O1  UNL     1      18.222   0.247  50.430  1.00  0.00    -0.292 OA
HETATM   17  C17 UNL     1      18.905   1.610  51.902  1.00  0.00     0.164 C 
HETATM   18  S1  UNL     1      20.429   2.363  52.596  1.00  0.00    -0.102 SA
ENDROOT
BRANCH   1  19
HETATM   19  N1  UNL     1      25.039  -0.134  52.892  1.00  0.00    -0.337 N 
HETATM   20  C3  UNL     1      25.718   0.046  54.178  1.00  0.00     0.101 A 
HETATM   21  C2  UNL     1      27.015   0.024  54.502  1.00  0.00    -0.025 A 
HETATM   22  C1  UNL     1      27.739   0.208  55.818  1.00  0.00     0.051 C 
HETATM   23  C20 UNL     1      27.975  -0.239  53.403  1.00  0.00     0.039 A 
HETATM   24  C19 UNL     1      27.381  -0.417  52.254  1.00  0.00     0.018 A 
HETATM   25 CL1  UNL     1      29.715  -0.329  53.496  1.00  0.00    -0.084 Cl
HETATM   26  C18 UNL     1      25.961  -0.413  51.817  1.00  0.00     0.159 A 
ENDBRANCH   1  19
TORSDOF 1
ENDMDL
MODEL 4
REMARK VINA RESULT:      -8.0      2.667      4.331
REMARK  1 active torsions:
REMARK  status: ('A' for Active; 'I' for Inactive)
REMARK    1  A    between atoms: N1_4  and  C4_5 
ROOT
HETATM    1  C4  UNL     1      23.974   2.291  50.577  1.00  0.00     0.145 A 
HETATM    2  N2  UNL     1      24.731   3.032  49.703  1.00  0.00    -0.223 NA
HETATM    3  C5  UNL     1      25.956   3.403  50.168  1.00  0.00     0.236 A 
HETATM    4  N3  UNL     1      26.420   3.094  51.365  1.00  0.00    -0.234 NA
HETATM    5  C6  UNL     1      25.738   2.374  52.270  1.00  0.00     0.110 A 
HETATM    6  C7  UNL     1      24.517   2.007  51.795  1.00  0.00     0.057 A 
HETATM    7  C8  UNL     1      23.609   1.190  52.581  1.00  0.00    -0.009 A 
HETATM    8  C9  UNL     1      22.523   1.951  52.907  1.00  0.00     0.013 A 
HETATM    9  C10 UNL     1      21.519   1.351  53.693  1.00  0.00     0.001 A 
HETATM   10  C11 UNL     1      21.584   0.065  54.135  1.00  0.00     0.001 A 
HETATM   11  C12 UNL     1      22.724  -0.627  53.751  1.00  0.00     0.012 A 
HETATM   12  C13 UNL     1      23.767  -0.110  52.973  1.00  0.00    -0.025 A 
HETATM   13  C14 UNL     1      24.882  -0.969  52.647  1.00  0.00     0.016 C 
HETATM   14  C15 UNL     1      26.193  -1.001  52.764  1.00  0.00     0.052 C 
HETATM   15  C16 UNL     1      27.452  -0.366  53.216  1.00  0.00     0.159 C 
HETATM   16  O1  UNL     1      28.614  -0.858  53.114  1.00  0.00    -0.292 OA
HETATM   17  C17 UNL     1      27.764   0.927  53.877  1.00  0.00     0.164 C 
HETATM   18  S1  UNL     1      26.202   1.889  53.933  1.00  0.00    -0.102 SA
ENDROOT
BRANCH   1  19
HETATM   19  N1  UNL     1      22.706   2.000  50.016  1.00  0.00    -0.337 N 
HETATM   20  C3  UNL     1      22.264   3.331  49.591  1.00  0.00     0.101 A 
HETATM   21  C2  UNL     1      21.129   3.741  49.014  1.00  0.00    -0.025 A 
HETATM   22  C1  UNL     1      20.650   5.105  48.568  1.00  0.00     0.051 C 
HETATM   23  C20 UNL     1      20.114   2.702  48.719  1.00  0.00     0.039 A 
HETATM   24  C19 UNL     1      20.503   1.508  49.078  1.00  0.00     0.018 A 
HETATM   25 CL1  UNL     1      18.548   2.910  47.980  1.00  0.00    -0.084 Cl
HETATM   26  C18 UNL     1      21.735   0.974  49.714  1.00  0.00     0.159 A 
ENDBRANCH   1  19
TORSDOF 1
ENDMDL
MODEL 5
REMARK VINA RESULT:      -7.8      4.039      5.930
REMARK  1 active torsions:
REMARK  status: ('A' for Active; 'I' for Inactive)
REMARK    1  A    between atoms: N1_4  and  C4_5 
ROOT
HETATM    1  C4  UNL     1      22.714   4.359  48.574  1.00  0.00     0.145 A 
HETATM    2  N2  UNL     1      22.182   4.979  47.470  1.00  0.00    -0.223 NA
HETATM    3  C5  UNL     1      22.740   6.179  47.154  1.00  0.00     0.236 A 
HETATM    4  N3  UNL     1      23.724   6.742  47.832  1.00  0.00    -0.234 NA
HETATM    5  C6  UNL     1      24.292   6.196  48.919  1.00  0.00     0.110 A 
HETATM    6  C7  UNL     1      23.728   4.997  49.225  1.00  0.00     0.057 A 
HETATM    7  C8  UNL     1      24.201   4.197  50.341  1.00  0.00    -0.009 A 
HETATM    8  C9  UNL     1      23.216   4.158  51.286  1.00  0.00     0.013 A 
HETATM    9  C10 UNL     1      23.478   3.444  52.473  1.00  0.00     0.001 A 
HETATM   10  C11 UNL     1      24.653   2.800  52.714  1.00  0.00     0.001 A 
HETATM   11  C12 UNL     1      25.590   2.895  51.694  1.00  0.00     0.012 A 
HETATM   12  C13 UNL     1      25.413   3.582  50.487  1.00  0.00    -0.025 A 
HETATM   13  C14 UNL     1      26.485   3.572  49.519  1.00  0.00     0.016 C 
HETATM   14  C15 UNL     1      27.238   4.417  48.846  1.00  0.00     0.052 C 
HETATM   15  C16 UNL     1      27.614   5.811  48.515  1.00  0.00     0.159 C 
HETATM   16  O1  UNL     1      28.535   6.168  47.723  1.00  0.00    -0.292 OA
HETATM   17  C17 UNL     1      27.102   7.138  48.946  1.00  0.00     0.164 C 
HETATM   18  S1  UNL     1      25.605   6.827  49.964  1.00  0.00    -0.102 SA
ENDROOT
BRANCH   1  19
HETATM   19  N1  UNL     1      22.032   3.146  48.843  1.00  0.00    -0.337 N 
HETATM   20  C3  UNL     1      20.688   3.634  49.166  1.00  0.00     0.101 A 
HETATM   21  C2  UNL     1      19.579   2.985  49.537  1.00  0.00    -0.025 A 
HETATM   22  C1  UNL     1      18.184   3.464  49.876  1.00  0.00     0.051 C 
HETATM   23  C20 UNL     1      19.672   1.509  49.643  1.00  0.00     0.039 A 
HETATM   24  C19 UNL     1      20.860   1.060  49.342  1.00  0.00     0.018 A 
HETATM   25 CL1  UNL     1      18.417   0.385  50.100  1.00  0.00    -0.084 Cl
HETATM   26  C18 UNL     1      22.129   1.708  48.920  1.00  0.00     0.159 A 
ENDBRANCH   1  19
TORSDOF 1
ENDMDL
MODEL 6
REMARK VINA RESULT:      -7.8      3.001      4.959
REMARK  1 active torsions:
REMARK  status: ('A' for Active; 'I' for Inactive)
REMARK    1  A    between atoms: N1_4  and  C4_5 
ROOT
HETATM    1  C4  UNL     1      24.331   2.902  49.957  1.00  0.00     0.145 A 
HETATM    2  N2  UNL     1      25.516   3.118  49.298  1.00  0.00    -0.223 NA
HETATM    3  C5  UNL     1      26.628   3.096  50.082  1.00  0.00     0.236 A 
HETATM    4  N3  UNL     1      26.613   2.885  51.386  1.00  0.00    -0.234 NA
HETATM    5  C6  UNL     1      25.495   2.666  52.096  1.00  0.00     0.110 A 
HETATM    6  C7  UNL     1      24.390   2.689  51.303  1.00  0.00     0.057 A 
HETATM    7  C8  UNL     1      23.063   2.442  51.838  1.00  0.00    -0.009 A 
HETATM    8  C9  UNL     1      22.343   3.599  51.749  1.00  0.00     0.013 A 
HETATM    9  C10 UNL     1      21.022   3.584  52.237  1.00  0.00     0.001 A 
HETATM   10  C11 UNL     1      20.440   2.483  52.786  1.00  0.00     0.001 A 
HETATM   11  C12 UNL     1      21.249   1.356  52.831  1.00  0.00     0.012 A 
HETATM   12  C13 UNL     1      22.569   1.283  52.370  1.00  0.00    -0.025 A 
HETATM   13  C14 UNL     1      23.273   0.026  52.476  1.00  0.00     0.016 C 
HETATM   14  C15 UNL     1      24.380  -0.464  52.992  1.00  0.00     0.052 C 
HETATM   15  C16 UNL     1      25.635  -0.262  53.753  1.00  0.00     0.159 C 
HETATM   16  O1  UNL     1      26.477  -1.158  54.055  1.00  0.00    -0.292 OA
HETATM   17  C17 UNL     1      26.279   0.929  54.365  1.00  0.00     0.164 C 
HETATM   18  S1  UNL     1      25.291   2.391  53.856  1.00  0.00    -0.102 SA
ENDROOT
BRANCH   1  19
HETATM   19  N1  UNL     1      23.237   2.993  49.060  1.00  0.00    -0.337 N 
HETATM   20  C3  UNL     1      23.371   4.371  48.579  1.00  0.00     0.101 A 
HETATM   21  C2  UNL     1      22.624   5.084  47.729  1.00  0.00    -0.025 A 
HETATM   22  C1  UNL     1      22.740   6.504  47.218  1.00  0.00     0.051 C 
HETATM   23  C20 UNL     1      21.453   4.401  47.131  1.00  0.00     0.039 A 
HETATM   24  C19 UNL     1      21.332   3.167  47.540  1.00  0.00     0.018 A 
HETATM   25 CL1  UNL     1      20.294   5.051  46.000  1.00  0.00    -0.084 Cl
HETATM   26  C18 UNL     1      22.112   2.309  48.468  1.00  0.00     0.159 A 
ENDBRANCH   1  19
TORSDOF 1
ENDMDL
MODEL 7
REMARK VINA RESULT:      -7.6      9.594     12.364
REMARK  1 active torsions:
REMARK  status: ('A' for Active; 'I' for Inactive)
REMARK    1  A    between atoms: N1_4  and  C4_5 
ROOT
HETATM    1  C4  UNL     1      29.255   6.194  48.466  1.00  0.00     0.145 A 
HETATM    2  N2  UNL     1      28.570   5.033  48.728  1.00  0.00    -0.223 NA
HETATM    3  C5  UNL     1      27.216   5.124  48.629  1.00  0.00     0.236 A 
HETATM    4  N3  UNL     1      26.568   6.229  48.306  1.00  0.00    -0.234 NA
HETATM    5  C6  UNL     1      27.169   7.398  48.037  1.00  0.00     0.110 A 
HETATM    6  C7  UNL     1      28.522   7.296  48.137  1.00  0.00     0.057 A 
HETATM    7  C8  UNL     1      29.394   8.423  47.856  1.00  0.00    -0.009 A 
HETATM    8  C9  UNL     1      29.995   8.800  49.022  1.00  0.00     0.013 A 
HETATM    9  C10 UNL     1      30.874   9.900  48.977  1.00  0.00     0.001 A 
HETATM   10  C11 UNL     1      31.146  10.593  47.837  1.00  0.00     0.001 A 
HETATM   11  C12 UNL     1      30.490  10.134  46.704  1.00  0.00     0.012 A 
HETATM   12  C13 UNL     1      29.602   9.052  46.660  1.00  0.00    -0.025 A 
HETATM   13  C14 UNL     1      29.011   8.690  45.393  1.00  0.00     0.016 C 
HETATM   14  C15 UNL     1      27.823   8.522  44.850  1.00  0.00     0.052 C 
HETATM   15  C16 UNL     1      26.348   8.535  44.975  1.00  0.00     0.159 C 
HETATM   16  O1  UNL     1      25.518   8.294  44.049  1.00  0.00    -0.292 OA
HETATM   17  C17 UNL     1      25.419   8.806  46.103  1.00  0.00     0.164 C 
HETATM   18  S1  UNL     1      26.451   8.985  47.612  1.00  0.00    -0.102 SA
ENDROOT
BRANCH   1  19
HETATM   19  N1  UNL     1      30.648   6.003  48.643  1.00  0.00    -0.337 N 
HETATM   20  C3  UNL     1      30.942   5.018  47.599  1.00  0.00     0.101 A 
HETATM   21  C2  UNL     1      32.081   4.402  47.261  1.00  0.00    -0.025 A 
HETATM   22  C1  UNL     1      32.409   3.384  46.191  1.00  0.00     0.051 C 
HETATM   23  C20 UNL     1      33.289   4.755  48.044  1.00  0.00     0.039 A 
HETATM   24  C19 UNL     1      33.044   5.644  48.968  1.00  0.00     0.018 A 
HETATM   25 CL1  UNL     1      34.909   4.133  47.856  1.00  0.00    -0.084 Cl
HETATM   26  C18 UNL     1      31.822   6.372  49.399  1.00  0.00     0.159 A 
ENDBRANCH   1  19
TORSDOF 1
ENDMDL
MODEL 8
REMARK VINA RESULT:      -7.5      4.743      7.223
REMARK  1 active torsions:
REMARK  status: ('A' for Active; 'I' for Inactive)
REMARK    1  A    between atoms: N1_4  and  C4_5 
ROOT
HETATM    1  C4  UNL     1      23.074   5.420  49.334  1.00  0.00     0.145 A 
HETATM    2  N2  UNL     1      22.043   6.115  48.751  1.00  0.00    -0.223 NA
HETATM    3  C5  UNL     1      20.979   5.359  48.366  1.00  0.00     0.236 A 
HETATM    4  N3  UNL     1      20.902   4.050  48.524  1.00  0.00    -0.234 NA
HETATM    5  C6  UNL     1      21.869   3.306  49.084  1.00  0.00     0.110 A 
HETATM    6  C7  UNL     1      22.927   4.071  49.466  1.00  0.00     0.057 A 
HETATM    7  C8  UNL     1      24.082   3.495  50.131  1.00  0.00    -0.009 A 
HETATM    8  C9  UNL     1      25.154   3.598  49.291  1.00  0.00     0.013 A 
HETATM    9  C10 UNL     1      26.385   3.075  49.736  1.00  0.00     0.001 A 
HETATM   10  C11 UNL     1      26.549   2.481  50.950  1.00  0.00     0.001 A 
HETATM   11  C12 UNL     1      25.404   2.425  51.732  1.00  0.00     0.012 A 
HETATM   12  C13 UNL     1      24.145   2.918  51.369  1.00  0.00    -0.025 A 
HETATM   13  C14 UNL     1      23.054   2.795  52.307  1.00  0.00     0.016 C 
HETATM   14  C15 UNL     1      21.838   2.293  52.373  1.00  0.00     0.052 C 
HETATM   15  C16 UNL     1      20.716   1.571  51.731  1.00  0.00     0.159 C 
HETATM   16  O1  UNL     1      19.615   1.265  52.276  1.00  0.00    -0.292 OA
HETATM   17  C17 UNL     1      20.507   1.009  50.371  1.00  0.00     0.164 C 
HETATM   18  S1  UNL     1      21.941   1.534  49.351  1.00  0.00    -0.102 SA
ENDROOT
BRANCH   1  19
HETATM   19  N1  UNL     1      24.147   6.290  49.651  1.00  0.00    -0.337 N 
HETATM   20  C3  UNL     1      24.515   6.793  48.325  1.00  0.00     0.101 A 
HETATM   21  C2  UNL     1      25.479   7.635  47.936  1.00  0.00    -0.025 A 
HETATM   22  C1  UNL     1      25.879   8.167  46.577  1.00  0.00     0.051 C 
HETATM   23  C20 UNL     1      26.347   8.194  49.000  1.00  0.00     0.039 A 
HETATM   24  C19 UNL     1      26.019   7.766  50.189  1.00  0.00     0.018 A 
HETATM   25 CL1  UNL     1      27.681   9.305  48.822  1.00  0.00    -0.084 Cl
HETATM   26  C18 UNL     1      24.970   6.845  50.699  1.00  0.00     0.159 A 
ENDBRANCH   1  19
TORSDOF 1
ENDMDL
MODEL 9
REMARK VINA RESULT:      -7.4      4.583      7.064
REMARK  1 active torsions:
REMARK  status: ('A' for Active; 'I' for Inactive)
REMARK    1  A    between atoms: N1_4  and  C4_5 
ROOT
HETATM    1  C4  UNL     1      24.020   3.668  50.519  1.00  0.00     0.145 A 
HETATM    2  N2  UNL     1      25.215   4.335  50.625  1.00  0.00    -0.223 NA
HETATM    3  C5  UNL     1      25.457   5.249  49.646  1.00  0.00     0.236 A 
HETATM    4  N3  UNL     1      24.629   5.507  48.650  1.00  0.00    -0.234 NA
HETATM    5  C6  UNL     1      23.446   4.895  48.482  1.00  0.00     0.110 A 
HETATM    6  C7  UNL     1      23.214   3.985  49.466  1.00  0.00     0.057 A 
HETATM    7  C8  UNL     1      21.980   3.221  49.520  1.00  0.00    -0.009 A 
HETATM    8  C9  UNL     1      22.279   1.909  49.284  1.00  0.00     0.013 A 
HETATM    9  C10 UNL     1      21.212   0.989  49.271  1.00  0.00     0.001 A 
HETATM   10  C11 UNL     1      19.914   1.346  49.480  1.00  0.00     0.001 A 
HETATM   11  C12 UNL     1      19.711   2.699  49.713  1.00  0.00     0.012 A 
HETATM   12  C13 UNL     1      20.712   3.679  49.743  1.00  0.00    -0.025 A 
HETATM   13  C14 UNL     1      20.335   5.047  50.015  1.00  0.00     0.016 C 
HETATM   14  C15 UNL     1      20.440   6.243  49.475  1.00  0.00     0.052 C 
HETATM   15  C16 UNL     1      20.913   7.111  48.372  1.00  0.00     0.159 C 
HETATM   16  O1  UNL     1      20.730   8.360  48.275  1.00  0.00    -0.292 OA
HETATM   17  C17 UNL     1      21.683   6.855  47.128  1.00  0.00     0.164 C 
HETATM   18  S1  UNL     1      22.224   5.101  47.187  1.00  0.00    -0.102 SA
ENDROOT
BRANCH   1  19
HETATM   19  N1  UNL     1      23.890   2.710  51.556  1.00  0.00    -0.337 N 
HETATM   20  C3  UNL     1      25.165   1.995  51.453  1.00  0.00     0.101 A 
HETATM   21  C2  UNL     1      25.650   0.953  52.137  1.00  0.00    -0.025 A 
HETATM   22  C1  UNL     1      26.960   0.199  52.049  1.00  0.00     0.051 C 
HETATM   23  C20 UNL     1      24.789   0.395  53.206  1.00  0.00     0.039 A 
HETATM   24  C19 UNL     1      23.656   1.033  53.318  1.00  0.00     0.018 A 
HETATM   25 CL1  UNL     1      25.129  -0.950  54.265  1.00  0.00    -0.084 Cl
HETATM   26  C18 UNL     1      23.050   2.190  52.609  1.00  0.00     0.159 A 
ENDBRANCH   1  19
TORSDOF 1
ENDMDL
