MODEL 1
REMARK VINA RESULT:      -6.6      0.000      0.000
REMARK  7 active torsions:
REMARK  status: ('A' for Active; 'I' for Inactive)
REMARK    1  A    between atoms: C2_2  and  C3_3 
REMARK    2  A    between atoms: C3_3  and  C4_4 
REMARK    3  A    between atoms: C4_4  and  C5_6 
REMARK    4  A    between atoms: C5_6  and  C7_8 
REMARK    5  A    between atoms: C7_8  and  C8_9 
REMARK    6  A    between atoms: C8_9  and  N1_10 
REMARK    7  A    between atoms: N1_10  and  C10_12 
ROOT
HETATM    1  N1  UNL     1      26.153   2.371  52.125  1.00  0.00    -0.369 N 
HETATM    2  C9  UNL     1      26.514   2.720  50.740  1.00  0.00     0.151 C 
ENDROOT
BRANCH   1   3
HETATM    3  C8  UNL     1      24.793   2.771  52.397  1.00  0.00     0.125 C 
BRANCH   3   4
HETATM    4  C7  UNL     1      23.954   1.727  53.054  1.00  0.00     0.032 C 
BRANCH   4   5
HETATM    5  C5  UNL     1      23.230   0.970  51.938  1.00  0.00     0.053 C 
HETATM    6  C6  UNL     1      22.865   1.917  50.810  1.00  0.00     0.018 C 
BRANCH   5   7
HETATM    7  C4  UNL     1      22.042   0.277  52.494  1.00  0.00     0.130 C 
HETATM    8  O1  UNL     1      20.864   0.153  52.705  1.00  0.00    -0.298 OA
BRANCH   7   9
HETATM    9  C3  UNL     1      22.496  -0.946  53.186  1.00  0.00     0.078 C 
BRANCH   9  10
HETATM   10  C2  UNL     1      22.062  -0.988  54.625  1.00  0.00     0.003 C 
HETATM   11  C1  UNL     1      23.216  -1.374  55.510  1.00  0.00     0.005 C 
ENDBRANCH   9  10
ENDBRANCH   7   9
ENDBRANCH   5   7
ENDBRANCH   4   5
ENDBRANCH   3   4
ENDBRANCH   1   3
BRANCH   1  12
HETATM   12  C10 UNL     1      27.183   1.722  52.863  1.00  0.00     0.146 A 
HETATM   13  N2  UNL     1      28.012   2.399  53.534  1.00  0.00    -0.222 NA
HETATM   14  C11 UNL     1      29.104   2.011  54.336  1.00  0.00     0.245 A 
HETATM   15  N3  UNL     1      29.426   0.724  54.494  1.00  0.00    -0.196 NA
HETATM   16  S1  UNL     1      28.390  -0.377  53.637  1.00  0.00     0.035 SA
HETATM   17  C12 UNL     1      27.107   0.233  52.706  1.00  0.00     0.079 A 
HETATM   18  N4  UNL     1      28.100  -2.203  53.293  1.00  0.00    -0.328 N 
HETATM   19  C13 UNL     1      26.475  -0.914  52.150  1.00  0.00     0.042 A 
HETATM   20  C14 UNL     1      26.966  -2.093  52.443  1.00  0.00     0.098 A 
HETATM   21  H22 UNL     1      28.734  -2.877  53.729  1.00  0.00     0.174 HD
ENDBRANCH   1  12
TORSDOF 7
ENDMDL
MODEL 2
REMARK VINA RESULT:      -6.6      3.562      5.989
REMARK  7 active torsions:
REMARK  status: ('A' for Active; 'I' for Inactive)
REMARK    1  A    between atoms: C2_2  and  C3_3 
REMARK    2  A    between atoms: C3_3  and  C4_4 
REMARK    3  A    between atoms: C4_4  and  C5_6 
REMARK    4  A    between atoms: C5_6  and  C7_8 
REMARK    5  A    between atoms: C7_8  and  C8_9 
REMARK    6  A    between atoms: C8_9  and  N1_10 
REMARK    7  A    between atoms: N1_10  and  C10_12 
ROOT
HETATM    1  N1  UNL     1      24.140   1.867  52.570  1.00  0.00    -0.369 N 
HETATM    2  C9  UNL     1      24.662   2.976  53.387  1.00  0.00     0.151 C 
ENDROOT
BRANCH   1   3
HETATM    3  C8  UNL     1      25.218   1.229  51.854  1.00  0.00     0.125 C 
BRANCH   3   4
HETATM    4  C7  UNL     1      26.583   1.545  52.368  1.00  0.00     0.032 C 
BRANCH   4   5
HETATM    5  C5  UNL     1      27.253   0.211  52.704  1.00  0.00     0.053 C 
HETATM    6  C6  UNL     1      26.469  -0.939  52.099  1.00  0.00     0.018 C 
BRANCH   5   7
HETATM    7  C4  UNL     1      27.393   0.080  54.175  1.00  0.00     0.130 C 
HETATM    8  O1  UNL     1      27.004  -0.210  55.277  1.00  0.00    -0.298 OA
BRANCH   7   9
HETATM    9  C3  UNL     1      28.736   0.556  54.560  1.00  0.00     0.078 C 
BRANCH   9  10
HETATM   10  C2  UNL     1      29.811   0.063  53.632  1.00  0.00     0.003 C 
HETATM   11  C1  UNL     1      30.014  -1.418  53.804  1.00  0.00     0.005 C 
ENDBRANCH   9  10
ENDBRANCH   7   9
ENDBRANCH   5   7
ENDBRANCH   4   5
ENDBRANCH   3   4
ENDBRANCH   1   3
BRANCH   1  12
HETATM   12  C10 UNL     1      22.735   1.662  52.674  1.00  0.00     0.146 A 
HETATM   13  N2  UNL     1      21.928   2.490  52.162  1.00  0.00    -0.222 NA
HETATM   14  C11 UNL     1      20.520   2.521  52.124  1.00  0.00     0.245 A 
HETATM   15  N3  UNL     1      19.789   1.559  52.696  1.00  0.00    -0.196 NA
HETATM   16  S1  UNL     1      20.729   0.315  53.462  1.00  0.00     0.035 SA
HETATM   17  C12 UNL     1      22.424   0.406  53.430  1.00  0.00     0.079 A 
HETATM   18  N4  UNL     1      20.584  -1.288  54.434  1.00  0.00    -0.328 N 
HETATM   19  C13 UNL     1      22.869  -0.747  54.137  1.00  0.00     0.042 A 
HETATM   20  C14 UNL     1      21.966  -1.563  54.620  1.00  0.00     0.098 A 
HETATM   21  H22 UNL     1      19.645  -1.641  54.635  1.00  0.00     0.174 HD
ENDBRANCH   1  12
TORSDOF 7
ENDMDL
MODEL 3
REMARK VINA RESULT:      -6.3      3.653      5.898
REMARK  7 active torsions:
REMARK  status: ('A' for Active; 'I' for Inactive)
REMARK    1  A    between atoms: C2_2  and  C3_3 
REMARK    2  A    between atoms: C3_3  and  C4_4 
REMARK    3  A    between atoms: C4_4  and  C5_6 
REMARK    4  A    between atoms: C5_6  and  C7_8 
REMARK    5  A    between atoms: C7_8  and  C8_9 
REMARK    6  A    between atoms: C8_9  and  N1_10 
REMARK    7  A    between atoms: N1_10  and  C10_12 
ROOT
HETATM    1  N1  UNL     1      23.865   2.187  51.797  1.00  0.00    -0.369 N 
HETATM    2  C9  UNL     1      22.823   1.424  51.089  1.00  0.00     0.151 C 
ENDROOT
BRANCH   1   3
HETATM    3  C8  UNL     1      24.565   1.329  52.722  1.00  0.00     0.125 C 
BRANCH   3   4
HETATM    4  C7  UNL     1      25.764   1.944  53.362  1.00  0.00     0.032 C 
BRANCH   4   5
HETATM    5  C5  UNL     1      26.933   0.983  53.136  1.00  0.00     0.053 C 
HETATM    6  C6  UNL     1      26.649   0.080  51.951  1.00  0.00     0.018 C 
BRANCH   5   7
HETATM    7  C4  UNL     1      27.193   0.213  54.377  1.00  0.00     0.130 C 
HETATM    8  O1  UNL     1      26.890  -0.539  55.267  1.00  0.00    -0.298 OA
BRANCH   7   9
HETATM    9  C3  UNL     1      28.580   0.478  54.808  1.00  0.00     0.078 C 
BRANCH   9  10
HETATM   10  C2  UNL     1      29.581   0.239  53.710  1.00  0.00     0.003 C 
HETATM   11  C1  UNL     1      29.955  -1.217  53.649  1.00  0.00     0.005 C 
ENDBRANCH   9  10
ENDBRANCH   7   9
ENDBRANCH   5   7
ENDBRANCH   4   5
ENDBRANCH   3   4
ENDBRANCH   1   3
BRANCH   1  12
HETATM   12  C10 UNL     1      23.963   3.556  51.415  1.00  0.00     0.146 A 
HETATM   13  N2  UNL     1      23.102   4.393  51.809  1.00  0.00    -0.222 NA
HETATM   14  C11 UNL     1      22.970   5.776  51.579  1.00  0.00     0.245 A 
HETATM   15  N3  UNL     1      23.851   6.441  50.825  1.00  0.00    -0.196 NA
HETATM   16  S1  UNL     1      25.126   5.450  50.183  1.00  0.00     0.035 SA
HETATM   17  C12 UNL     1      25.160   3.791  50.544  1.00  0.00     0.079 A 
HETATM   18  N4  UNL     1      26.672   5.504  49.113  1.00  0.00    -0.328 N 
HETATM   19  C13 UNL     1      26.310   3.290  49.872  1.00  0.00     0.042 A 
HETATM   20  C14 UNL     1      27.037   4.132  49.180  1.00  0.00     0.098 A 
HETATM   21  H22 UNL     1      26.947   6.405  48.717  1.00  0.00     0.174 HD
ENDBRANCH   1  12
TORSDOF 7
ENDMDL
MODEL 4
REMARK VINA RESULT:      -6.3      1.308      2.041
REMARK  7 active torsions:
REMARK  status: ('A' for Active; 'I' for Inactive)
REMARK    1  A    between atoms: C2_2  and  C3_3 
REMARK    2  A    between atoms: C3_3  and  C4_4 
REMARK    3  A    between atoms: C4_4  and  C5_6 
REMARK    4  A    between atoms: C5_6  and  C7_8 
REMARK    5  A    between atoms: C7_8  and  C8_9 
REMARK    6  A    between atoms: C8_9  and  N1_10 
REMARK    7  A    between atoms: N1_10  and  C10_12 
ROOT
HETATM    1  N1  UNL     1      25.944   2.173  52.403  1.00  0.00    -0.369 N 
HETATM    2  C9  UNL     1      26.187   2.752  51.070  1.00  0.00     0.151 C 
ENDROOT
BRANCH   1   3
HETATM    3  C8  UNL     1      24.555   2.326  52.763  1.00  0.00     0.125 C 
BRANCH   3   4
HETATM    4  C7  UNL     1      23.623   1.385  52.075  1.00  0.00     0.032 C 
BRANCH   4   5
HETATM    5  C5  UNL     1      22.673   0.838  53.143  1.00  0.00     0.053 C 
HETATM    6  C6  UNL     1      22.771  -0.674  53.209  1.00  0.00     0.018 C 
BRANCH   5   7
HETATM    7  C4  UNL     1      21.291   1.298  52.864  1.00  0.00     0.130 C 
HETATM    8  O1  UNL     1      20.377   2.079  52.932  1.00  0.00    -0.298 OA
BRANCH   7   9
HETATM    9  C3  UNL     1      20.608   0.265  52.061  1.00  0.00     0.078 C 
BRANCH   9  10
HETATM   10  C2  UNL     1      19.248  -0.081  52.603  1.00  0.00     0.003 C 
HETATM   11  C1  UNL     1      18.271  -0.286  51.477  1.00  0.00     0.005 C 
ENDBRANCH   9  10
ENDBRANCH   7   9
ENDBRANCH   5   7
ENDBRANCH   4   5
ENDBRANCH   3   4
ENDBRANCH   1   3
BRANCH   1  12
HETATM   12  C10 UNL     1      27.089   1.593  53.018  1.00  0.00     0.146 A 
HETATM   13  N2  UNL     1      27.927   2.321  53.623  1.00  0.00    -0.222 NA
HETATM   14  C11 UNL     1      29.121   2.005  54.302  1.00  0.00     0.245 A 
HETATM   15  N3  UNL     1      29.554   0.743  54.393  1.00  0.00    -0.196 NA
HETATM   16  S1  UNL     1      28.525  -0.418  53.612  1.00  0.00     0.035 SA
HETATM   17  C12 UNL     1      27.112   0.106  52.829  1.00  0.00     0.079 A 
HETATM   18  N4  UNL     1      28.342  -2.254  53.250  1.00  0.00    -0.328 N 
HETATM   19  C13 UNL     1      26.518  -1.077  52.307  1.00  0.00     0.042 A 
HETATM   20  C14 UNL     1      27.125  -2.218  52.518  1.00  0.00     0.098 A 
HETATM   21  H22 UNL     1      29.067  -2.885  53.602  1.00  0.00     0.174 HD
ENDBRANCH   1  12
TORSDOF 7
ENDMDL
MODEL 5
REMARK VINA RESULT:      -6.1      2.603      4.199
REMARK  7 active torsions:
REMARK  status: ('A' for Active; 'I' for Inactive)
REMARK    1  A    between atoms: C2_2  and  C3_3 
REMARK    2  A    between atoms: C3_3  and  C4_4 
REMARK    3  A    between atoms: C4_4  and  C5_6 
REMARK    4  A    between atoms: C5_6  and  C7_8 
REMARK    5  A    between atoms: C7_8  and  C8_9 
REMARK    6  A    between atoms: C8_9  and  N1_10 
REMARK    7  A    between atoms: N1_10  and  C10_12 
ROOT
HETATM    1  N1  UNL     1      25.990   2.184  52.374  1.00  0.00    -0.369 N 
HETATM    2  C9  UNL     1      24.851   2.457  53.269  1.00  0.00     0.151 C 
ENDROOT
BRANCH   1   3
HETATM    3  C8  UNL     1      25.681   2.616  51.033  1.00  0.00     0.125 C 
BRANCH   3   4
HETATM    4  C7  UNL     1      26.775   3.363  50.348  1.00  0.00     0.032 C 
BRANCH   4   5
HETATM    5  C5  UNL     1      26.114   4.263  49.301  1.00  0.00     0.053 C 
HETATM    6  C6  UNL     1      27.141   5.192  48.682  1.00  0.00     0.018 C 
BRANCH   5   7
HETATM    7  C4  UNL     1      24.989   5.004  49.920  1.00  0.00     0.130 C 
HETATM    8  O1  UNL     1      24.452   5.606  50.814  1.00  0.00    -0.298 OA
BRANCH   7   9
HETATM    9  C3  UNL     1      23.883   5.075  48.944  1.00  0.00     0.078 C 
BRANCH   9  10
HETATM   10  C2  UNL     1      22.759   4.132  49.278  1.00  0.00     0.003 C 
HETATM   11  C1  UNL     1      22.888   2.861  48.483  1.00  0.00     0.005 C 
ENDBRANCH   9  10
ENDBRANCH   7   9
ENDBRANCH   5   7
ENDBRANCH   4   5
ENDBRANCH   3   4
ENDBRANCH   1   3
BRANCH   1  12
HETATM   12  C10 UNL     1      27.117   1.590  53.011  1.00  0.00     0.146 A 
HETATM   13  N2  UNL     1      27.954   2.307  53.629  1.00  0.00    -0.222 NA
HETATM   14  C11 UNL     1      29.131   1.977  54.330  1.00  0.00     0.245 A 
HETATM   15  N3  UNL     1      29.544   0.710  54.432  1.00  0.00    -0.196 NA
HETATM   16  S1  UNL     1      28.513  -0.440  53.637  1.00  0.00     0.035 SA
HETATM   17  C12 UNL     1      27.122   0.102  52.827  1.00  0.00     0.079 A 
HETATM   18  N4  UNL     1      28.312  -2.274  53.276  1.00  0.00    -0.328 N 
HETATM   19  C13 UNL     1      26.521  -1.074  52.298  1.00  0.00     0.042 A 
HETATM   20  C14 UNL     1      27.108  -2.223  52.522  1.00  0.00     0.098 A 
HETATM   21  H22 UNL     1      29.020  -2.913  53.643  1.00  0.00     0.174 HD
ENDBRANCH   1  12
TORSDOF 7
ENDMDL
MODEL 6
REMARK VINA RESULT:      -6.0      4.240      6.542
REMARK  7 active torsions:
REMARK  status: ('A' for Active; 'I' for Inactive)
REMARK    1  A    between atoms: C2_2  and  C3_3 
REMARK    2  A    between atoms: C3_3  and  C4_4 
REMARK    3  A    between atoms: C4_4  and  C5_6 
REMARK    4  A    between atoms: C5_6  and  C7_8 
REMARK    5  A    between atoms: C7_8  and  C8_9 
REMARK    6  A    between atoms: C8_9  and  N1_10 
REMARK    7  A    between atoms: N1_10  and  C10_12 
ROOT
HETATM    1  N1  UNL     1      24.413   3.241  50.463  1.00  0.00    -0.369 N 
HETATM    2  C9  UNL     1      23.062   3.243  49.874  1.00  0.00     0.151 C 
ENDROOT
BRANCH   1   3
HETATM    3  C8  UNL     1      24.546   2.143  51.390  1.00  0.00     0.125 C 
BRANCH   3   4
HETATM    4  C7  UNL     1      25.439   2.413  52.555  1.00  0.00     0.032 C 
BRANCH   4   5
HETATM    5  C5  UNL     1      26.676   1.529  52.383  1.00  0.00     0.053 C 
HETATM    6  C6  UNL     1      26.290   0.064  52.452  1.00  0.00     0.018 C 
BRANCH   5   7
HETATM    7  C4  UNL     1      27.691   1.889  53.404  1.00  0.00     0.130 C 
HETATM    8  O1  UNL     1      28.372   2.663  54.026  1.00  0.00    -0.298 OA
BRANCH   7   9
HETATM    9  C3  UNL     1      28.170   0.648  54.043  1.00  0.00     0.078 C 
BRANCH   9  10
HETATM   10  C2  UNL     1      29.588   0.316  53.667  1.00  0.00     0.003 C 
HETATM   11  C1  UNL     1      29.741  -1.167  53.457  1.00  0.00     0.005 C 
ENDBRANCH   9  10
ENDBRANCH   7   9
ENDBRANCH   5   7
ENDBRANCH   4   5
ENDBRANCH   3   4
ENDBRANCH   1   3
BRANCH   1  12
HETATM   12  C10 UNL     1      25.269   4.276  49.992  1.00  0.00     0.146 A 
HETATM   13  N2  UNL     1      26.318   3.993  49.345  1.00  0.00    -0.222 NA
HETATM   14  C11 UNL     1      27.316   4.812  48.779  1.00  0.00     0.245 A 
HETATM   15  N3  UNL     1      27.257   6.144  48.874  1.00  0.00    -0.196 NA
HETATM   16  S1  UNL     1      25.870   6.733  49.739  1.00  0.00     0.035 SA
HETATM   17  C12 UNL     1      24.745   5.628  50.370  1.00  0.00     0.079 A 
HETATM   18  N4  UNL     1      25.026   8.308  50.323  1.00  0.00    -0.328 N 
HETATM   19  C13 UNL     1      23.756   6.430  51.006  1.00  0.00     0.042 A 
HETATM   20  C14 UNL     1      23.903   7.731  50.976  1.00  0.00     0.098 A 
HETATM   21  H22 UNL     1      25.471   9.200  50.095  1.00  0.00     0.174 HD
ENDBRANCH   1  12
TORSDOF 7
ENDMDL
MODEL 7
REMARK VINA RESULT:      -6.0      3.785      6.760
REMARK  7 active torsions:
REMARK  status: ('A' for Active; 'I' for Inactive)
REMARK    1  A    between atoms: C2_2  and  C3_3 
REMARK    2  A    between atoms: C3_3  and  C4_4 
REMARK    3  A    between atoms: C4_4  and  C5_6 
REMARK    4  A    between atoms: C5_6  and  C7_8 
REMARK    5  A    between atoms: C7_8  and  C8_9 
REMARK    6  A    between atoms: C8_9  and  N1_10 
REMARK    7  A    between atoms: N1_10  and  C10_12 
ROOT
HETATM    1  N1  UNL     1      22.803   0.788  53.017  1.00  0.00    -0.369 N 
HETATM    2  C9  UNL     1      22.219  -0.438  53.589  1.00  0.00     0.151 C 
ENDROOT
BRANCH   1   3
HETATM    3  C8  UNL     1      24.241   0.674  52.966  1.00  0.00     0.125 C 
BRANCH   3   4
HETATM    4  C7  UNL     1      24.763  -0.716  53.109  1.00  0.00     0.032 C 
BRANCH   4   5
HETATM    5  C5  UNL     1      26.263  -0.663  52.809  1.00  0.00     0.053 C 
HETATM    6  C6  UNL     1      26.763  -2.030  52.384  1.00  0.00     0.018 C 
BRANCH   5   7
HETATM    7  C4  UNL     1      26.990  -0.143  53.992  1.00  0.00     0.130 C 
HETATM    8  O1  UNL     1      27.199  -0.038  55.173  1.00  0.00    -0.298 OA
BRANCH   7   9
HETATM    9  C3  UNL     1      28.068   0.750  53.522  1.00  0.00     0.078 C 
BRANCH   9  10
HETATM   10  C2  UNL     1      29.395   0.435  54.156  1.00  0.00     0.003 C 
HETATM   11  C1  UNL     1      30.043  -0.732  53.462  1.00  0.00     0.005 C 
ENDBRANCH   9  10
ENDBRANCH   7   9
ENDBRANCH   5   7
ENDBRANCH   4   5
ENDBRANCH   3   4
ENDBRANCH   1   3
BRANCH   1  12
HETATM   12  C10 UNL     1      21.853   1.778  52.636  1.00  0.00     0.146 A 
HETATM   13  N2  UNL     1      20.631   1.478  52.515  1.00  0.00    -0.222 NA
HETATM   14  C11 UNL     1      19.510   2.252  52.157  1.00  0.00     0.245 A 
HETATM   15  N3  UNL     1      19.628   3.552  51.871  1.00  0.00    -0.196 NA
HETATM   16  S1  UNL     1      21.252   4.159  51.982  1.00  0.00     0.035 SA
HETATM   17  C12 UNL     1      22.510   3.109  52.426  1.00  0.00     0.079 A 
HETATM   18  N4  UNL     1      22.288   5.715  51.776  1.00  0.00    -0.328 N 
HETATM   19  C13 UNL     1      23.684   3.914  52.419  1.00  0.00     0.042 A 
HETATM   20  C14 UNL     1      23.563   5.178  52.102  1.00  0.00     0.098 A 
HETATM   21  H22 UNL     1      21.808   6.574  51.499  1.00  0.00     0.174 HD
ENDBRANCH   1  12
TORSDOF 7
ENDMDL
MODEL 8
REMARK VINA RESULT:      -5.9      3.473      6.105
REMARK  7 active torsions:
REMARK  status: ('A' for Active; 'I' for Inactive)
REMARK    1  A    between atoms: C2_2  and  C3_3 
REMARK    2  A    between atoms: C3_3  and  C4_4 
REMARK    3  A    between atoms: C4_4  and  C5_6 
REMARK    4  A    between atoms: C5_6  and  C7_8 
REMARK    5  A    between atoms: C7_8  and  C8_9 
REMARK    6  A    between atoms: C8_9  and  N1_10 
REMARK    7  A    between atoms: N1_10  and  C10_12 
ROOT
HETATM    1  N1  UNL     1      25.252   2.624  51.974  1.00  0.00    -0.369 N 
HETATM    2  C9  UNL     1      24.076   3.445  52.312  1.00  0.00     0.151 C 
ENDROOT
BRANCH   1   3
HETATM    3  C8  UNL     1      25.877   3.125  50.774  1.00  0.00     0.125 C 
BRANCH   3   4
HETATM    4  C7  UNL     1      24.961   3.853  49.848  1.00  0.00     0.032 C 
BRANCH   4   5
HETATM    5  C5  UNL     1      25.813   4.872  49.088  1.00  0.00     0.053 C 
HETATM    6  C6  UNL     1      27.245   4.382  48.976  1.00  0.00     0.018 C 
BRANCH   5   7
HETATM    7  C4  UNL     1      25.724   6.193  49.755  1.00  0.00     0.130 C 
HETATM    8  O1  UNL     1      25.320   6.956  50.595  1.00  0.00    -0.298 OA
BRANCH   7   9
HETATM    9  C3  UNL     1      26.592   7.142  49.030  1.00  0.00     0.078 C 
BRANCH   9  10
HETATM   10  C2  UNL     1      25.960   7.648  47.762  1.00  0.00     0.003 C 
HETATM   11  C1  UNL     1      26.010   9.151  47.714  1.00  0.00     0.005 C 
ENDBRANCH   9  10
ENDBRANCH   7   9
ENDBRANCH   5   7
ENDBRANCH   4   5
ENDBRANCH   3   4
ENDBRANCH   1   3
BRANCH   1  12
HETATM   12  C10 UNL     1      25.517   1.561  52.884  1.00  0.00     0.146 A 
HETATM   13  N2  UNL     1      24.627   0.700  53.138  1.00  0.00    -0.222 NA
HETATM   14  C11 UNL     1      24.630  -0.427  53.983  1.00  0.00     0.245 A 
HETATM   15  N3  UNL     1      25.711  -0.752  54.700  1.00  0.00    -0.196 NA
HETATM   16  S1  UNL     1      27.056   0.325  54.485  1.00  0.00     0.035 SA
HETATM   17  C12 UNL     1      26.910   1.649  53.430  1.00  0.00     0.079 A 
HETATM   18  N4  UNL     1      28.828   0.638  55.032  1.00  0.00    -0.328 N 
HETATM   19  C13 UNL     1      28.168   2.310  53.491  1.00  0.00     0.042 A 
HETATM   20  C14 UNL     1      29.092   1.810  54.272  1.00  0.00     0.098 A 
HETATM   21  H22 UNL     1      29.243  -0.013  55.702  1.00  0.00     0.174 HD
ENDBRANCH   1  12
TORSDOF 7
ENDMDL
MODEL 9
REMARK VINA RESULT:      -5.7      4.101      6.105
REMARK  7 active torsions:
REMARK  status: ('A' for Active; 'I' for Inactive)
REMARK    1  A    between atoms: C2_2  and  C3_3 
REMARK    2  A    between atoms: C3_3  and  C4_4 
REMARK    3  A    between atoms: C4_4  and  C5_6 
REMARK    4  A    between atoms: C5_6  and  C7_8 
REMARK    5  A    between atoms: C7_8  and  C8_9 
REMARK    6  A    between atoms: C8_9  and  N1_10 
REMARK    7  A    between atoms: N1_10  and  C10_12 
ROOT
HETATM    1  N1  UNL     1      23.389   4.432  51.237  1.00  0.00    -0.369 N 
HETATM    2  C9  UNL     1      21.962   4.625  51.553  1.00  0.00     0.151 C 
ENDROOT
BRANCH   1   3
HETATM    3  C8  UNL     1      23.758   3.052  51.439  1.00  0.00     0.125 C 
BRANCH   3   4
HETATM    4  C7  UNL     1      24.213   2.721  52.820  1.00  0.00     0.032 C 
BRANCH   4   5
HETATM    5  C5  UNL     1      24.885   1.348  52.752  1.00  0.00     0.053 C 
HETATM    6  C6  UNL     1      23.878   0.254  53.054  1.00  0.00     0.018 C 
BRANCH   5   7
HETATM    7  C4  UNL     1      26.044   1.314  53.678  1.00  0.00     0.130 C 
HETATM    8  O1  UNL     1      26.585   1.484  54.739  1.00  0.00    -0.298 OA
BRANCH   7   9
HETATM    9  C3  UNL     1      27.212   0.789  52.944  1.00  0.00     0.078 C 
BRANCH   9  10
HETATM   10  C2  UNL     1      27.820  -0.414  53.612  1.00  0.00     0.003 C 
HETATM   11  C1  UNL     1      29.320  -0.373  53.500  1.00  0.00     0.005 C 
ENDBRANCH   9  10
ENDBRANCH   7   9
ENDBRANCH   5   7
ENDBRANCH   4   5
ENDBRANCH   3   4
ENDBRANCH   1   3
BRANCH   1  12
HETATM   12  C10 UNL     1      24.065   5.606  50.799  1.00  0.00     0.146 A 
HETATM   13  N2  UNL     1      23.578   6.749  51.034  1.00  0.00    -0.222 NA
HETATM   14  C11 UNL     1      24.036   8.043  50.717  1.00  0.00     0.245 A 
HETATM   15  N3  UNL     1      25.179   8.230  50.049  1.00  0.00    -0.196 NA
HETATM   16  S1  UNL     1      26.005   6.760  49.632  1.00  0.00     0.035 SA
HETATM   17  C12 UNL     1      25.334   5.265  50.080  1.00  0.00     0.079 A 
HETATM   18  N4  UNL     1      27.539   6.096  48.770  1.00  0.00    -0.328 N 
HETATM   19  C13 UNL     1      26.247   4.289  49.590  1.00  0.00     0.042 A 
HETATM   20  C14 UNL     1      27.314   4.705  48.956  1.00  0.00     0.098 A 
HETATM   21  H22 UNL     1      28.190   6.773  48.366  1.00  0.00     0.174 HD
ENDBRANCH   1  12
TORSDOF 7
ENDMDL
