MODEL 1
REMARK VINA RESULT:      -8.4      0.000      0.000
REMARK  6 active torsions:
REMARK  status: ('A' for Active; 'I' for Inactive)
REMARK    1  A    between atoms: O1_2  and  C2_3 
REMARK    2  A    between atoms: C5_6  and  N1_7 
REMARK       I    between atoms: N1_7  and  C6_8 
REMARK       I    between atoms: C6_8  and  N2_10 
REMARK    3  A    between atoms: N2_10  and  C7_11 
REMARK    4  A    between atoms: C10_14  and  C11_15 
REMARK    5  A    between atoms: C11_15  and  C12_16 
REMARK    6  A    between atoms: C20_28  and  O4_29 
ROOT
HETATM    1  C2  UNL     1      19.487   1.094  52.211  1.00  0.00     0.098 C 
HETATM    2  C3  UNL     1      20.430   2.054  52.190  1.00  0.00     0.017 C 
HETATM    3  C4  UNL     1      21.709   2.190  52.834  1.00  0.00     0.084 C 
HETATM    4  C5  UNL     1      22.945   1.743  52.135  1.00  0.00     0.236 C 
HETATM    5  O3  UNL     1      22.995   0.290  52.137  1.00  0.00    -0.308 OA
HETATM    6  C15 UNL     1      23.348  -0.309  53.358  1.00  0.00     0.169 A 
HETATM    7  C16 UNL     1      24.065  -0.767  54.427  1.00  0.00     0.077 A 
HETATM    8  C17 UNL     1      23.340  -1.399  55.403  1.00  0.00     0.123 A 
HETATM    9  N3  UNL     1      21.990  -1.573  55.330  1.00  0.00    -0.241 NA
HETATM   10  C18 UNL     1      21.370  -1.102  54.260  1.00  0.00     0.154 A 
HETATM   11  N4  UNL     1      21.993  -0.478  53.272  1.00  0.00    -0.205 NA
HETATM   12  C19 UNL     1      20.100  -0.989  53.603  1.00  0.00     0.092 C 
HETATM   13  C20 UNL     1      19.380  -0.208  52.848  1.00  0.00     0.104 C 
ENDROOT
BRANCH   4  14
HETATM   14  N1  UNL     1      23.255   2.238  50.872  1.00  0.00    -0.315 N 
HETATM   15  C6  UNL     1      24.380   3.111  50.697  1.00  0.00     0.322 C 
HETATM   16  O2  UNL     1      25.093   3.433  51.693  1.00  0.00    -0.247 OA
HETATM   17  N2  UNL     1      24.705   3.619  49.426  1.00  0.00    -0.309 N 
HETATM   18  H9  UNL     1      24.140   3.380  48.560  1.00  0.00     0.170 HD
HETATM   19  H8  UNL     1      22.689   1.992  50.032  1.00  0.00     0.166 HD
BRANCH  17  20
HETATM   20  C7  UNL     1      25.765   4.481  49.070  1.00  0.00     0.036 A 
HETATM   21  C8  UNL     1      27.100   4.233  48.995  1.00  0.00     0.030 A 
HETATM   22  C9  UNL     1      27.986   5.223  48.623  1.00  0.00     0.009 A 
HETATM   23  C10 UNL     1      27.554   6.499  48.315  1.00  0.00    -0.056 A 
HETATM   24  C13 UNL     1      26.190   6.768  48.387  1.00  0.00     0.009 A 
HETATM   25  C14 UNL     1      25.294   5.763  48.765  1.00  0.00     0.030 A 
BRANCH  23  26
HETATM   26  C11 UNL     1      28.483   7.586  47.910  1.00  0.00     0.070 C 
BRANCH  26  27
HETATM   27  C12 UNL     1      28.441   8.635  49.010  1.00  0.00     0.226 C 
HETATM   28  F1  UNL     1      29.685   8.801  49.554  1.00  0.00    -0.255 F 
ENDBRANCH  26  27
ENDBRANCH  23  26
ENDBRANCH  17  20
ENDBRANCH   4  14
BRANCH   1  29
HETATM   29  O1  UNL     1      18.374   1.448  51.408  1.00  0.00    -0.353 OA
HETATM   30  C1  UNL     1      17.813   2.735  51.428  1.00  0.00     0.210 C 
ENDBRANCH   1  29
BRANCH  13  31
HETATM   31  O4  UNL     1      18.151  -0.870  52.617  1.00  0.00    -0.353 OA
HETATM   32  C21 UNL     1      17.649  -1.880  53.440  1.00  0.00     0.210 C 
ENDBRANCH  13  31
TORSDOF 6
ENDMDL
MODEL 2
REMARK VINA RESULT:      -8.2      2.780      5.094
REMARK  6 active torsions:
REMARK  status: ('A' for Active; 'I' for Inactive)
REMARK    1  A    between atoms: O1_2  and  C2_3 
REMARK    2  A    between atoms: C5_6  and  N1_7 
REMARK       I    between atoms: N1_7  and  C6_8 
REMARK       I    between atoms: C6_8  and  N2_10 
REMARK    3  A    between atoms: N2_10  and  C7_11 
REMARK    4  A    between atoms: C10_14  and  C11_15 
REMARK    5  A    between atoms: C11_15  and  C12_16 
REMARK    6  A    between atoms: C20_28  and  O4_29 
ROOT
HETATM    1  C2  UNL     1      26.722   0.384  53.659  1.00  0.00     0.098 C 
HETATM    2  C3  UNL     1      26.825   0.948  52.442  1.00  0.00     0.017 C 
HETATM    3  C4  UNL     1      25.897   1.122  51.357  1.00  0.00     0.084 C 
HETATM    4  C5  UNL     1      25.101   2.375  51.253  1.00  0.00     0.236 C 
HETATM    5  O3  UNL     1      24.057   2.363  52.266  1.00  0.00    -0.308 OA
HETATM    6  C15 UNL     1      22.960   1.525  52.004  1.00  0.00     0.169 A 
HETATM    7  C16 UNL     1      21.799   1.019  51.495  1.00  0.00     0.077 A 
HETATM    8  C17 UNL     1      21.427  -0.212  51.969  1.00  0.00     0.123 A 
HETATM    9  N3  UNL     1      22.154  -0.903  52.892  1.00  0.00    -0.241 NA
HETATM   10  C18 UNL     1      23.267  -0.341  53.338  1.00  0.00     0.154 A 
HETATM   11  N4  UNL     1      23.699   0.843  52.932  1.00  0.00    -0.205 NA
HETATM   12  C19 UNL     1      24.368  -0.493  54.245  1.00  0.00     0.092 C 
HETATM   13  C20 UNL     1      25.637  -0.241  54.398  1.00  0.00     0.104 C 
ENDROOT
BRANCH   4  14
HETATM   14  N1  UNL     1      25.739   3.613  51.229  1.00  0.00    -0.315 N 
HETATM   15  C6  UNL     1      25.833   4.349  50.001  1.00  0.00     0.322 C 
HETATM   16  O2  UNL     1      25.337   3.874  48.938  1.00  0.00    -0.247 OA
HETATM   17  N2  UNL     1      26.475   5.601  49.962  1.00  0.00    -0.309 N 
HETATM   18  H9  UNL     1      26.907   6.042  50.825  1.00  0.00     0.170 HD
HETATM   19  H8  UNL     1      26.157   4.031  52.087  1.00  0.00     0.166 HD
BRANCH  17  20
HETATM   20  C7  UNL     1      26.661   6.457  48.855  1.00  0.00     0.036 A 
HETATM   21  C8  UNL     1      25.760   7.235  48.197  1.00  0.00     0.030 A 
HETATM   22  C9  UNL     1      26.143   8.011  47.123  1.00  0.00     0.009 A 
HETATM   23  C10 UNL     1      27.450   8.028  46.676  1.00  0.00    -0.056 A 
HETATM   24  C13 UNL     1      28.384   7.237  47.339  1.00  0.00     0.009 A 
HETATM   25  C14 UNL     1      27.993   6.451  48.428  1.00  0.00     0.030 A 
BRANCH  23  26
HETATM   26  C11 UNL     1      27.895   8.854  45.522  1.00  0.00     0.070 C 
BRANCH  26  27
HETATM   27  C12 UNL     1      26.693   9.013  44.604  1.00  0.00     0.226 C 
HETATM   28  F1  UNL     1      26.650   7.988  43.699  1.00  0.00    -0.255 F 
ENDBRANCH  26  27
ENDBRANCH  23  26
ENDBRANCH  17  20
ENDBRANCH   4  14
BRANCH   1  29
HETATM   29  O1  UNL     1      27.951   0.447  54.362  1.00  0.00    -0.353 OA
HETATM   30  C1  UNL     1      29.096  -0.245  53.935  1.00  0.00     0.210 C 
ENDBRANCH   1  29
BRANCH  13  31
HETATM   31  O4  UNL     1      26.011  -0.745  55.666  1.00  0.00    -0.353 OA
HETATM   32  C21 UNL     1      25.124  -0.887  56.735  1.00  0.00     0.210 C 
ENDBRANCH  13  31
TORSDOF 6
ENDMDL
MODEL 3
REMARK VINA RESULT:      -7.9      4.720      6.379
REMARK  6 active torsions:
REMARK  status: ('A' for Active; 'I' for Inactive)
REMARK    1  A    between atoms: O1_2  and  C2_3 
REMARK    2  A    between atoms: C5_6  and  N1_7 
REMARK       I    between atoms: N1_7  and  C6_8 
REMARK       I    between atoms: C6_8  and  N2_10 
REMARK    3  A    between atoms: N2_10  and  C7_11 
REMARK    4  A    between atoms: C10_14  and  C11_15 
REMARK    5  A    between atoms: C11_15  and  C12_16 
REMARK    6  A    between atoms: C20_28  and  O4_29 
ROOT
HETATM    1  C2  UNL     1      17.495   0.044  52.036  1.00  0.00     0.098 C 
HETATM    2  C3  UNL     1      18.770  -0.158  51.658  1.00  0.00     0.017 C 
HETATM    3  C4  UNL     1      19.728   0.655  50.957  1.00  0.00     0.084 C 
HETATM    4  C5  UNL     1      20.677   1.510  51.719  1.00  0.00     0.236 C 
HETATM    5  O3  UNL     1      19.961   2.656  52.256  1.00  0.00    -0.308 OA
HETATM    6  C15 UNL     1      19.637   3.664  51.332  1.00  0.00     0.169 A 
HETATM    7  C16 UNL     1      19.722   4.729  50.481  1.00  0.00     0.077 A 
HETATM    8  C17 UNL     1      18.560   5.073  49.841  1.00  0.00     0.123 A 
HETATM    9  N3  UNL     1      17.383   4.410  50.030  1.00  0.00    -0.241 NA
HETATM   10  C18 UNL     1      17.386   3.391  50.874  1.00  0.00     0.154 A 
HETATM   11  N4  UNL     1      18.463   2.991  51.531  1.00  0.00    -0.205 NA
HETATM   12  C19 UNL     1      16.568   2.389  51.494  1.00  0.00     0.092 C 
HETATM   13  C20 UNL     1      16.572   1.162  51.934  1.00  0.00     0.104 C 
ENDROOT
BRANCH   4  14
HETATM   14  N1  UNL     1      21.500   0.952  52.694  1.00  0.00    -0.315 N 
HETATM   15  C6  UNL     1      22.913   0.851  52.471  1.00  0.00     0.322 C 
HETATM   16  O2  UNL     1      23.416   1.269  51.387  1.00  0.00    -0.247 OA
HETATM   17  N2  UNL     1      23.756   0.288  53.447  1.00  0.00    -0.309 N 
HETATM   18  H9  UNL     1      23.385  -0.077  54.372  1.00  0.00     0.170 HD
HETATM   19  H8  UNL     1      21.118   0.599  53.597  1.00  0.00     0.166 HD
BRANCH  17  20
HETATM   20  C7  UNL     1      25.156   0.110  53.400  1.00  0.00     0.036 A 
HETATM   21  C8  UNL     1      25.885  -0.916  52.884  1.00  0.00     0.030 A 
HETATM   22  C9  UNL     1      27.263  -0.904  52.937  1.00  0.00     0.009 A 
HETATM   23  C10 UNL     1      27.954   0.144  53.515  1.00  0.00    -0.056 A 
HETATM   24  C13 UNL     1      27.221   1.201  54.048  1.00  0.00     0.009 A 
HETATM   25  C14 UNL     1      25.824   1.187  53.993  1.00  0.00     0.030 A 
BRANCH  23  26
HETATM   26  C11 UNL     1      29.438   0.187  53.587  1.00  0.00     0.070 C 
BRANCH  26  27
HETATM   27  C12 UNL     1      29.932  -1.235  53.368  1.00  0.00     0.226 C 
HETATM   28  F1  UNL     1      30.848  -1.570  54.327  1.00  0.00    -0.255 F 
ENDBRANCH  26  27
ENDBRANCH  23  26
ENDBRANCH  17  20
ENDBRANCH   4  14
BRANCH   1  29
HETATM   29  O1  UNL     1      16.967  -1.095  52.696  1.00  0.00    -0.353 OA
HETATM   30  C1  UNL     1      17.781  -2.004  53.391  1.00  0.00     0.210 C 
ENDBRANCH   1  29
BRANCH  13  31
HETATM   31  O4  UNL     1      15.280   0.899  52.446  1.00  0.00    -0.353 OA
HETATM   32  C21 UNL     1      14.298   1.879  52.609  1.00  0.00     0.210 C 
ENDBRANCH  13  31
TORSDOF 6
ENDMDL
MODEL 4
REMARK VINA RESULT:      -7.7      2.495      4.337
REMARK  6 active torsions:
REMARK  status: ('A' for Active; 'I' for Inactive)
REMARK    1  A    between atoms: O1_2  and  C2_3 
REMARK    2  A    between atoms: C5_6  and  N1_7 
REMARK       I    between atoms: N1_7  and  C6_8 
REMARK       I    between atoms: C6_8  and  N2_10 
REMARK    3  A    between atoms: N2_10  and  C7_11 
REMARK    4  A    between atoms: C10_14  and  C11_15 
REMARK    5  A    between atoms: C11_15  and  C12_16 
REMARK    6  A    between atoms: C20_28  and  O4_29 
ROOT
HETATM    1  C2  UNL     1      24.545   0.843  52.530  1.00  0.00     0.098 C 
HETATM    2  C3  UNL     1      24.725   1.698  51.508  1.00  0.00     0.017 C 
HETATM    3  C4  UNL     1      23.819   2.484  50.713  1.00  0.00     0.084 C 
HETATM    4  C5  UNL     1      23.516   3.888  51.100  1.00  0.00     0.236 C 
HETATM    5  O3  UNL     1      22.640   3.884  52.261  1.00  0.00    -0.308 OA
HETATM    6  C15 UNL     1      21.296   3.557  52.012  1.00  0.00     0.169 A 
HETATM    7  C16 UNL     1      19.987   3.624  51.630  1.00  0.00     0.077 A 
HETATM    8  C17 UNL     1      19.249   2.487  51.830  1.00  0.00     0.123 A 
HETATM    9  N3  UNL     1      19.768   1.351  52.377  1.00  0.00    -0.241 NA
HETATM   10  C18 UNL     1      21.045   1.369  52.724  1.00  0.00     0.154 A 
HETATM   11  N4  UNL     1      21.829   2.424  52.564  1.00  0.00    -0.205 NA
HETATM   12  C19 UNL     1      22.102   0.606  53.322  1.00  0.00     0.092 C 
HETATM   13  C20 UNL     1      23.386   0.388  53.281  1.00  0.00     0.104 C 
ENDROOT
BRANCH   4  14
HETATM   14  N1  UNL     1      24.547   4.807  51.274  1.00  0.00    -0.315 N 
HETATM   15  C6  UNL     1      25.068   5.525  50.146  1.00  0.00     0.322 C 
HETATM   16  O2  UNL     1      24.591   5.324  48.991  1.00  0.00    -0.247 OA
HETATM   17  N2  UNL     1      26.111   6.457  50.307  1.00  0.00    -0.309 N 
HETATM   18  H9  UNL     1      26.545   6.662  51.254  1.00  0.00     0.170 HD
HETATM   19  H8  UNL     1      24.961   4.996  52.211  1.00  0.00     0.166 HD
BRANCH  17  20
HETATM   20  C7  UNL     1      26.741   7.247  49.321  1.00  0.00     0.036 A 
HETATM   21  C8  UNL     1      27.246   6.888  48.111  1.00  0.00     0.030 A 
HETATM   22  C9  UNL     1      27.832   7.821  47.281  1.00  0.00     0.009 A 
HETATM   23  C10 UNL     1      27.927   9.150  47.645  1.00  0.00    -0.056 A 
HETATM   24  C13 UNL     1      27.415   9.533  48.881  1.00  0.00     0.009 A 
HETATM   25  C14 UNL     1      26.822   8.585  49.721  1.00  0.00     0.030 A 
BRANCH  23  26
HETATM   26  C11 UNL     1      28.551  10.180  46.773  1.00  0.00     0.070 C 
BRANCH  26  27
HETATM   27  C12 UNL     1      29.767  10.710  47.516  1.00  0.00     0.226 C 
HETATM   28  F1  UNL     1      30.590   9.677  47.875  1.00  0.00    -0.255 F 
ENDBRANCH  26  27
ENDBRANCH  23  26
ENDBRANCH  17  20
ENDBRANCH   4  14
BRANCH   1  29
HETATM   29  O1  UNL     1      25.778   0.296  52.967  1.00  0.00    -0.353 OA
HETATM   30  C1  UNL     1      26.567  -0.526  52.146  1.00  0.00     0.210 C 
ENDBRANCH   1  29
BRANCH  13  31
HETATM   31  O4  UNL     1      23.677  -0.579  54.273  1.00  0.00    -0.353 OA
HETATM   32  C21 UNL     1      22.699  -1.240  55.019  1.00  0.00     0.210 C 
ENDBRANCH  13  31
TORSDOF 6
ENDMDL
MODEL 5
REMARK VINA RESULT:      -7.5      3.232      5.811
REMARK  6 active torsions:
REMARK  status: ('A' for Active; 'I' for Inactive)
REMARK    1  A    between atoms: O1_2  and  C2_3 
REMARK    2  A    between atoms: C5_6  and  N1_7 
REMARK       I    between atoms: N1_7  and  C6_8 
REMARK       I    between atoms: C6_8  and  N2_10 
REMARK    3  A    between atoms: N2_10  and  C7_11 
REMARK    4  A    between atoms: C10_14  and  C11_15 
REMARK    5  A    between atoms: C11_15  and  C12_16 
REMARK    6  A    between atoms: C20_28  and  O4_29 
ROOT
HETATM    1  C2  UNL     1      25.432   1.886  52.049  1.00  0.00     0.098 C 
HETATM    2  C3  UNL     1      26.187   2.600  51.195  1.00  0.00     0.017 C 
HETATM    3  C4  UNL     1      25.967   3.086  49.859  1.00  0.00     0.084 C 
HETATM    4  C5  UNL     1      25.424   4.454  49.645  1.00  0.00     0.236 C 
HETATM    5  O3  UNL     1      24.008   4.463  49.980  1.00  0.00    -0.308 OA
HETATM    6  C15 UNL     1      23.153   3.867  49.037  1.00  0.00     0.169 A 
HETATM    7  C16 UNL     1      22.392   3.641  47.926  1.00  0.00     0.077 A 
HETATM    8  C17 UNL     1      21.750   2.432  47.880  1.00  0.00     0.123 A 
HETATM    9  N3  UNL     1      21.847   1.500  48.871  1.00  0.00    -0.241 NA
HETATM   10  C18 UNL     1      22.603   1.798  49.916  1.00  0.00     0.154 A 
HETATM   11  N4  UNL     1      23.259   2.941  50.040  1.00  0.00    -0.205 NA
HETATM   12  C19 UNL     1      23.063   1.333  51.192  1.00  0.00     0.092 C 
HETATM   13  C20 UNL     1      24.084   1.345  52.003  1.00  0.00     0.104 C 
ENDROOT
BRANCH   4  14
HETATM   14  N1  UNL     1      26.061   5.559  50.203  1.00  0.00    -0.315 N 
HETATM   15  C6  UNL     1      26.326   6.718  49.400  1.00  0.00     0.322 C 
HETATM   16  O2  UNL     1      25.979   6.739  48.182  1.00  0.00    -0.247 OA
HETATM   17  N2  UNL     1      26.970   7.842  49.951  1.00  0.00    -0.309 N 
HETATM   18  H9  UNL     1      27.279   7.875  50.966  1.00  0.00     0.170 HD
HETATM   19  H8  UNL     1      26.358   5.574  51.202  1.00  0.00     0.166 HD
BRANCH  17  20
HETATM   20  C7  UNL     1      27.308   9.058  49.318  1.00  0.00     0.036 A 
HETATM   21  C8  UNL     1      26.508   9.968  48.700  1.00  0.00     0.030 A 
HETATM   22  C9  UNL     1      27.037  11.109  48.134  1.00  0.00     0.009 A 
HETATM   23  C10 UNL     1      28.393  11.370  48.171  1.00  0.00    -0.056 A 
HETATM   24  C13 UNL     1      29.225  10.447  48.800  1.00  0.00     0.009 A 
HETATM   25  C14 UNL     1      28.686   9.291  49.373  1.00  0.00     0.030 A 
BRANCH  23  26
HETATM   26  C11 UNL     1      28.994  12.590  47.572  1.00  0.00     0.070 C 
BRANCH  26  27
HETATM   27  C12 UNL     1      28.149  13.770  48.029  1.00  0.00     0.226 C 
HETATM   28  F1  UNL     1      27.985  13.734  49.387  1.00  0.00    -0.255 F 
ENDBRANCH  26  27
ENDBRANCH  23  26
ENDBRANCH  17  20
ENDBRANCH   4  14
BRANCH   1  29
HETATM   29  O1  UNL     1      26.122   1.640  53.264  1.00  0.00    -0.353 OA
HETATM   30  C1  UNL     1      27.154   0.693  53.361  1.00  0.00     0.210 C 
ENDBRANCH   1  29
BRANCH  13  31
HETATM   31  O4  UNL     1      23.714   0.603  53.149  1.00  0.00    -0.353 OA
HETATM   32  C21 UNL     1      22.393   0.288  53.475  1.00  0.00     0.210 C 
ENDBRANCH  13  31
TORSDOF 6
ENDMDL
MODEL 6
REMARK VINA RESULT:      -7.3      4.800     11.303
REMARK  6 active torsions:
REMARK  status: ('A' for Active; 'I' for Inactive)
REMARK    1  A    between atoms: O1_2  and  C2_3 
REMARK    2  A    between atoms: C5_6  and  N1_7 
REMARK       I    between atoms: N1_7  and  C6_8 
REMARK       I    between atoms: C6_8  and  N2_10 
REMARK    3  A    between atoms: N2_10  and  C7_11 
REMARK    4  A    between atoms: C10_14  and  C11_15 
REMARK    5  A    between atoms: C11_15  and  C12_16 
REMARK    6  A    between atoms: C20_28  and  O4_29 
ROOT
HETATM    1  C2  UNL     1      28.607   9.638  47.752  1.00  0.00     0.098 C 
HETATM    2  C3  UNL     1      27.735   8.626  47.590  1.00  0.00     0.017 C 
HETATM    3  C4  UNL     1      27.893   7.240  47.239  1.00  0.00     0.084 C 
HETATM    4  C5  UNL     1      28.026   6.213  48.307  1.00  0.00     0.236 C 
HETATM    5  O3  UNL     1      29.351   6.308  48.899  1.00  0.00    -0.308 OA
HETATM    6  C15 UNL     1      30.405   5.788  48.127  1.00  0.00     0.169 A 
HETATM    7  C16 UNL     1      31.271   4.929  47.514  1.00  0.00     0.077 A 
HETATM    8  C17 UNL     1      32.240   5.512  46.741  1.00  0.00     0.123 A 
HETATM    9  N3  UNL     1      32.353   6.862  46.583  1.00  0.00    -0.241 NA
HETATM   10  C18 UNL     1      31.475   7.625  47.214  1.00  0.00     0.154 A 
HETATM   11  N4  UNL     1      30.507   7.145  47.978  1.00  0.00    -0.205 NA
HETATM   12  C19 UNL     1      31.086   8.980  47.479  1.00  0.00     0.092 C 
HETATM   13  C20 UNL     1      30.055   9.750  47.683  1.00  0.00     0.104 C 
ENDROOT
BRANCH   4  14
HETATM   14  N1  UNL     1      27.057   6.103  49.301  1.00  0.00    -0.315 N 
HETATM   15  C6  UNL     1      26.487   4.824  49.612  1.00  0.00     0.322 C 
HETATM   16  O2  UNL     1      26.863   3.792  48.982  1.00  0.00    -0.247 OA
HETATM   17  N2  UNL     1      25.507   4.699  50.614  1.00  0.00    -0.309 N 
HETATM   18  H9  UNL     1      25.158   5.532  51.171  1.00  0.00     0.170 HD
HETATM   19  H8  UNL     1      26.727   6.933  49.838  1.00  0.00     0.166 HD
BRANCH  17  20
HETATM   20  C7  UNL     1      24.841   3.532  51.049  1.00  0.00     0.036 A 
HETATM   21  C8  UNL     1      23.832   2.836  50.462  1.00  0.00     0.030 A 
HETATM   22  C9  UNL     1      23.310   1.705  51.054  1.00  0.00     0.009 A 
HETATM   23  C10 UNL     1      23.789   1.239  52.263  1.00  0.00    -0.056 A 
HETATM   24  C13 UNL     1      24.823   1.941  52.877  1.00  0.00     0.009 A 
HETATM   25  C14 UNL     1      25.350   3.087  52.274  1.00  0.00     0.030 A 
BRANCH  23  26
HETATM   26  C11 UNL     1      23.249   0.024  52.928  1.00  0.00     0.070 C 
BRANCH  26  27
HETATM   27  C12 UNL     1      24.294  -0.431  53.935  1.00  0.00     0.226 C 
HETATM   28  F1  UNL     1      23.708  -1.182  54.917  1.00  0.00    -0.255 F 
ENDBRANCH  26  27
ENDBRANCH  23  26
ENDBRANCH  17  20
ENDBRANCH   4  14
BRANCH   1  29
HETATM   29  O1  UNL     1      27.940  10.844  48.085  1.00  0.00    -0.353 OA
HETATM   30  C1  UNL     1      26.583  10.876  48.446  1.00  0.00     0.210 C 
ENDBRANCH   1  29
BRANCH  13  31
HETATM   31  O4  UNL     1      30.548  11.061  47.888  1.00  0.00    -0.353 OA
HETATM   32  C21 UNL     1      31.880  11.427  47.684  1.00  0.00     0.210 C 
ENDBRANCH  13  31
TORSDOF 6
ENDMDL
MODEL 7
REMARK VINA RESULT:      -7.3      3.712      6.721
REMARK  6 active torsions:
REMARK  status: ('A' for Active; 'I' for Inactive)
REMARK    1  A    between atoms: O1_2  and  C2_3 
REMARK    2  A    between atoms: C5_6  and  N1_7 
REMARK       I    between atoms: N1_7  and  C6_8 
REMARK       I    between atoms: C6_8  and  N2_10 
REMARK    3  A    between atoms: N2_10  and  C7_11 
REMARK    4  A    between atoms: C10_14  and  C11_15 
REMARK    5  A    between atoms: C11_15  and  C12_16 
REMARK    6  A    between atoms: C20_28  and  O4_29 
ROOT
HETATM    1  C2  UNL     1      24.670   3.030  50.912  1.00  0.00     0.098 C 
HETATM    2  C3  UNL     1      25.253   3.599  49.841  1.00  0.00     0.017 C 
HETATM    3  C4  UNL     1      24.950   4.771  49.064  1.00  0.00     0.084 C 
HETATM    4  C5  UNL     1      25.588   6.072  49.401  1.00  0.00     0.236 C 
HETATM    5  O3  UNL     1      24.978   6.603  50.610  1.00  0.00    -0.308 OA
HETATM    6  C15 UNL     1      23.695   7.157  50.455  1.00  0.00     0.169 A 
HETATM    7  C16 UNL     1      22.669   8.004  50.147  1.00  0.00     0.077 A 
HETATM    8  C17 UNL     1      21.412   7.548  50.444  1.00  0.00     0.123 A 
HETATM    9  N3  UNL     1      21.178   6.331  51.014  1.00  0.00    -0.241 NA
HETATM   10  C18 UNL     1      22.228   5.572  51.284  1.00  0.00     0.154 A 
HETATM   11  N4  UNL     1      23.475   5.934  51.029  1.00  0.00    -0.205 NA
HETATM   12  C19 UNL     1      22.649   4.325  51.855  1.00  0.00     0.092 C 
HETATM   13  C20 UNL     1      23.532   3.373  51.749  1.00  0.00     0.104 C 
ENDROOT
BRANCH   4  14
HETATM   14  N1  UNL     1      26.974   6.178  49.470  1.00  0.00    -0.315 N 
HETATM   15  C6  UNL     1      27.626   7.379  49.034  1.00  0.00     0.322 C 
HETATM   16  O2  UNL     1      26.942   8.345  48.585  1.00  0.00    -0.247 OA
HETATM   17  N2  UNL     1      29.027   7.500  49.098  1.00  0.00    -0.309 N 
HETATM   18  H9  UNL     1      29.646   6.720  49.466  1.00  0.00     0.170 HD
HETATM   19  H8  UNL     1      27.566   5.401  49.835  1.00  0.00     0.166 HD
BRANCH  17  20
HETATM   20  C7  UNL     1      29.831   8.596  48.717  1.00  0.00     0.036 A 
HETATM   21  C8  UNL     1      30.025   9.790  49.338  1.00  0.00     0.030 A 
HETATM   22  C9  UNL     1      30.862  10.744  48.798  1.00  0.00     0.009 A 
HETATM   23  C10 UNL     1      31.533  10.525  47.610  1.00  0.00    -0.056 A 
HETATM   24  C13 UNL     1      31.344   9.307  46.962  1.00  0.00     0.009 A 
HETATM   25  C14 UNL     1      30.495   8.342  47.512  1.00  0.00     0.030 A 
BRANCH  23  26
HETATM   26  C11 UNL     1      32.442  11.532  47.003  1.00  0.00     0.070 C 
BRANCH  26  27
HETATM   27  C12 UNL     1      33.465  10.764  46.180  1.00  0.00     0.226 C 
HETATM   28  F1  UNL     1      33.355  11.098  44.858  1.00  0.00    -0.255 F 
ENDBRANCH  26  27
ENDBRANCH  23  26
ENDBRANCH  17  20
ENDBRANCH   4  14
BRANCH   1  29
HETATM   29  O1  UNL     1      25.351   1.849  51.301  1.00  0.00    -0.353 OA
HETATM   30  C1  UNL     1      26.707   1.849  51.662  1.00  0.00     0.210 C 
ENDBRANCH   1  29
BRANCH  13  31
HETATM   31  O4  UNL     1      23.254   2.431  52.767  1.00  0.00    -0.353 OA
HETATM   32  C21 UNL     1      22.169   1.552  52.732  1.00  0.00     0.210 C 
ENDBRANCH  13  31
TORSDOF 6
ENDMDL
MODEL 8
REMARK VINA RESULT:      -7.2      2.620      3.666
REMARK  6 active torsions:
REMARK  status: ('A' for Active; 'I' for Inactive)
REMARK    1  A    between atoms: O1_2  and  C2_3 
REMARK    2  A    between atoms: C5_6  and  N1_7 
REMARK       I    between atoms: N1_7  and  C6_8 
REMARK       I    between atoms: C6_8  and  N2_10 
REMARK    3  A    between atoms: N2_10  and  C7_11 
REMARK    4  A    between atoms: C10_14  and  C11_15 
REMARK    5  A    between atoms: C11_15  and  C12_16 
REMARK    6  A    between atoms: C20_28  and  O4_29 
ROOT
HETATM    1  C2  UNL     1      22.565   1.004  52.617  1.00  0.00     0.098 C 
HETATM    2  C3  UNL     1      23.012   2.241  52.338  1.00  0.00     0.017 C 
HETATM    3  C4  UNL     1      24.260   2.914  52.585  1.00  0.00     0.084 C 
HETATM    4  C5  UNL     1      25.329   2.901  51.551  1.00  0.00     0.236 C 
HETATM    5  O3  UNL     1      25.942   1.582  51.516  1.00  0.00    -0.308 OA
HETATM    6  C15 UNL     1      26.820   1.287  52.572  1.00  0.00     0.169 A 
HETATM    7  C16 UNL     1      27.920   1.244  53.380  1.00  0.00     0.077 A 
HETATM    8  C17 UNL     1      27.797   0.486  54.515  1.00  0.00     0.123 A 
HETATM    9  N3  UNL     1      26.658  -0.192  54.835  1.00  0.00    -0.241 NA
HETATM   10  C18 UNL     1      25.637  -0.101  53.997  1.00  0.00     0.154 A 
HETATM   11  N4  UNL     1      25.672   0.610  52.881  1.00  0.00    -0.205 NA
HETATM   12  C19 UNL     1      24.297  -0.543  53.739  1.00  0.00     0.092 C 
HETATM   13  C20 UNL     1      23.153  -0.172  53.238  1.00  0.00     0.104 C 
ENDROOT
BRANCH   4  14
HETATM   14  N1  UNL     1      25.064   3.348  50.259  1.00  0.00    -0.315 N 
HETATM   15  C6  UNL     1      25.021   4.754  49.979  1.00  0.00     0.322 C 
HETATM   16  O2  UNL     1      25.226   5.592  50.906  1.00  0.00    -0.247 OA
HETATM   17  N2  UNL     1      24.754   5.219  48.678  1.00  0.00    -0.309 N 
HETATM   18  H9  UNL     1      24.576   4.559  47.867  1.00  0.00     0.170 HD
HETATM   19  H8  UNL     1      24.892   2.684  49.474  1.00  0.00     0.166 HD
BRANCH  17  20
HETATM   20  C7  UNL     1      24.674   6.553  48.223  1.00  0.00     0.036 A 
HETATM   21  C8  UNL     1      23.589   7.360  48.080  1.00  0.00     0.030 A 
HETATM   22  C9  UNL     1      23.721   8.651  47.612  1.00  0.00     0.009 A 
HETATM   23  C10 UNL     1      24.954   9.172  47.271  1.00  0.00    -0.056 A 
HETATM   24  C13 UNL     1      26.075   8.358  47.411  1.00  0.00     0.009 A 
HETATM   25  C14 UNL     1      25.939   7.049  47.886  1.00  0.00     0.030 A 
BRANCH  23  26
HETATM   26  C11 UNL     1      25.129  10.559  46.765  1.00  0.00     0.070 C 
BRANCH  26  27
HETATM   27  C12 UNL     1      25.112  11.477  47.977  1.00  0.00     0.226 C 
HETATM   28  F1  UNL     1      26.338  11.480  48.586  1.00  0.00    -0.255 F 
ENDBRANCH  26  27
ENDBRANCH  23  26
ENDBRANCH  17  20
ENDBRANCH   4  14
BRANCH   1  29
HETATM   29  O1  UNL     1      21.228   0.828  52.177  1.00  0.00    -0.353 OA
HETATM   30  C1  UNL     1      20.193   1.697  52.556  1.00  0.00     0.210 C 
ENDBRANCH   1  29
BRANCH  13  31
HETATM   31  O4  UNL     1      22.269  -1.269  53.363  1.00  0.00    -0.353 OA
HETATM   32  C21 UNL     1      21.690  -1.663  54.571  1.00  0.00     0.210 C 
ENDBRANCH  13  31
TORSDOF 6
ENDMDL
MODEL 9
REMARK VINA RESULT:      -7.1      2.355      4.249
REMARK  6 active torsions:
REMARK  status: ('A' for Active; 'I' for Inactive)
REMARK    1  A    between atoms: O1_2  and  C2_3 
REMARK    2  A    between atoms: C5_6  and  N1_7 
REMARK       I    between atoms: N1_7  and  C6_8 
REMARK       I    between atoms: C6_8  and  N2_10 
REMARK    3  A    between atoms: N2_10  and  C7_11 
REMARK    4  A    between atoms: C10_14  and  C11_15 
REMARK    5  A    between atoms: C11_15  and  C12_16 
REMARK    6  A    between atoms: C20_28  and  O4_29 
ROOT
HETATM    1  C2  UNL     1      20.429  -0.053  52.037  1.00  0.00     0.098 C 
HETATM    2  C3  UNL     1      21.289   0.495  51.160  1.00  0.00     0.017 C 
HETATM    3  C4  UNL     1      21.111   1.197  49.916  1.00  0.00     0.084 C 
HETATM    4  C5  UNL     1      21.026   2.683  49.906  1.00  0.00     0.236 C 
HETATM    5  O3  UNL     1      19.731   3.090  50.427  1.00  0.00    -0.308 OA
HETATM    6  C15 UNL     1      18.640   2.921  49.557  1.00  0.00     0.169 A 
HETATM    7  C16 UNL     1      17.744   3.094  48.542  1.00  0.00     0.077 A 
HETATM    8  C17 UNL     1      16.740   2.164  48.470  1.00  0.00     0.123 A 
HETATM    9  N3  UNL     1      16.624   1.126  49.347  1.00  0.00    -0.241 NA
HETATM   10  C18 UNL     1      17.533   1.032  50.305  1.00  0.00     0.154 A 
HETATM   11  N4  UNL     1      18.535   1.885  50.445  1.00  0.00    -0.205 NA
HETATM   12  C19 UNL     1      17.938   0.282  51.458  1.00  0.00     0.092 C 
HETATM   13  C20 UNL     1      18.980  -0.133  52.122  1.00  0.00     0.104 C 
ENDROOT
BRANCH   4  14
HETATM   14  N1  UNL     1      22.041   3.448  50.474  1.00  0.00    -0.315 N 
HETATM   15  C6  UNL     1      23.138   3.900  49.668  1.00  0.00     0.322 C 
HETATM   16  O2  UNL     1      23.186   3.603  48.438  1.00  0.00    -0.247 OA
HETATM   17  N2  UNL     1      24.170   4.674  50.229  1.00  0.00    -0.309 N 
HETATM   18  H9  UNL     1      24.177   4.951  51.254  1.00  0.00     0.170 HD
HETATM   19  H8  UNL     1      22.030   3.711  51.483  1.00  0.00     0.166 HD
BRANCH  17  20
HETATM   20  C7  UNL     1      25.316   5.201  49.594  1.00  0.00     0.036 A 
HETATM   21  C8  UNL     1      25.540   6.447  49.098  1.00  0.00     0.030 A 
HETATM   22  C9  UNL     1      26.743   6.770  48.506  1.00  0.00     0.009 A 
HETATM   23  C10 UNL     1      27.763   5.844  48.394  1.00  0.00    -0.056 A 
HETATM   24  C13 UNL     1      27.548   4.564  48.897  1.00  0.00     0.009 A 
HETATM   25  C14 UNL     1      26.328   4.239  49.497  1.00  0.00     0.030 A 
BRANCH  23  26
HETATM   26  C11 UNL     1      29.071   6.161  47.762  1.00  0.00     0.070 C 
BRANCH  26  27
HETATM   27  C12 UNL     1      29.523   7.497  48.330  1.00  0.00     0.226 C 
HETATM   28  F1  UNL     1      29.624   8.426  47.330  1.00  0.00    -0.255 F 
ENDBRANCH  26  27
ENDBRANCH  23  26
ENDBRANCH  17  20
ENDBRANCH   4  14
BRANCH   1  29
HETATM   29  O1  UNL     1      21.115  -0.660  53.119  1.00  0.00    -0.353 OA
HETATM   30  C1  UNL     1      22.513  -0.778  53.150  1.00  0.00     0.210 C 
ENDBRANCH   1  29
BRANCH  13  31
HETATM   31  O4  UNL     1      18.501  -0.866  53.233  1.00  0.00    -0.353 OA
HETATM   32  C21 UNL     1      17.424  -1.753  53.169  1.00  0.00     0.210 C 
ENDBRANCH  13  31
TORSDOF 6
ENDMDL
