MODEL 1
REMARK VINA RESULT:      -8.8      0.000      0.000
REMARK  0 active torsions:
REMARK  status: ('A' for Active; 'I' for Inactive)
ROOT
HETATM    1  N1  UNL     1      21.669   0.466  52.904  1.00  0.00    -0.196 NA
HETATM    2  C1  UNL     1      22.573   1.208  52.766  1.00  0.00     0.072 C 
HETATM    3  C2  UNL     1      23.694   2.145  52.603  1.00  0.00     0.172 C 
HETATM    4  C3  UNL     1      24.927   1.335  52.608  1.00  0.00    -0.030 A 
HETATM    5  C4  UNL     1      24.758   0.137  53.289  1.00  0.00     0.011 A 
HETATM    6  C5  UNL     1      25.750  -0.808  53.447  1.00  0.00     0.024 A 
HETATM    7  C6  UNL     1      26.993  -0.569  52.903  1.00  0.00     0.034 A 
HETATM    8 CL1  UNL     1      28.260  -1.750  53.090  1.00  0.00    -0.084 Cl
HETATM    9  C7  UNL     1      27.220   0.606  52.213  1.00  0.00     0.031 A 
HETATM   10  C8  UNL     1      26.196   1.530  52.079  1.00  0.00    -0.044 A 
HETATM   11  C9  UNL     1      26.670   2.693  51.311  1.00  0.00     0.085 C 
HETATM   12  C10 UNL     1      25.674   2.950  50.248  1.00  0.00     0.090 C 
HETATM   13  N2  UNL     1      24.442   3.082  50.439  1.00  0.00    -0.277 NA
HETATM   14  C11 UNL     1      23.495   3.074  51.479  1.00  0.00     0.152 A 
HETATM   15  S1  UNL     1      23.421   4.781  52.096  1.00  0.00    -0.101 SA
HETATM   16  C12 UNL     1      21.843   5.426  51.666  1.00  0.00     0.049 A 
HETATM   17  C13 UNL     1      20.921   4.756  51.016  1.00  0.00     0.019 A 
HETATM   18  C14 UNL     1      21.095   3.394  50.573  1.00  0.00    -0.026 A 
HETATM   19  C15 UNL     1      20.053   2.789  49.896  1.00  0.00     0.012 A 
HETATM   20  C16 UNL     1      20.089   1.483  49.414  1.00  0.00     0.001 A 
HETATM   21  C17 UNL     1      21.244   0.797  49.648  1.00  0.00     0.001 A 
HETATM   22  C18 UNL     1      22.308   1.397  50.332  1.00  0.00     0.011 A 
HETATM   23  C19 UNL     1      22.221   2.695  50.789  1.00  0.00    -0.006 A 
ENDROOT
TORSDOF 0
ENDMDL
MODEL 2
REMARK VINA RESULT:      -8.4      3.044      5.397
REMARK  0 active torsions:
REMARK  status: ('A' for Active; 'I' for Inactive)
ROOT
HETATM    1  N1  UNL     1      24.904   3.257  53.714  1.00  0.00    -0.196 NA
HETATM    2  C1  UNL     1      23.988   3.230  52.975  1.00  0.00     0.072 C 
HETATM    3  C2  UNL     1      22.836   3.198  52.063  1.00  0.00     0.172 C 
HETATM    4  C3  UNL     1      23.211   3.990  50.877  1.00  0.00    -0.030 A 
HETATM    5  C4  UNL     1      24.186   4.934  51.170  1.00  0.00     0.011 A 
HETATM    6  C5  UNL     1      24.719   5.809  50.246  1.00  0.00     0.024 A 
HETATM    7  C6  UNL     1      24.269   5.760  48.945  1.00  0.00     0.034 A 
HETATM    8 CL1  UNL     1      24.928   6.855  47.761  1.00  0.00    -0.084 Cl
HETATM    9  C7  UNL     1      23.300   4.841  48.594  1.00  0.00     0.031 A 
HETATM   10  C8  UNL     1      22.791   3.981  49.553  1.00  0.00    -0.044 A 
HETATM   11  C9  UNL     1      21.779   3.099  48.948  1.00  0.00     0.085 C 
HETATM   12  C10 UNL     1      22.115   1.714  49.344  1.00  0.00     0.090 C 
HETATM   13  N2  UNL     1      22.311   1.335  50.523  1.00  0.00    -0.277 NA
HETATM   14  C11 UNL     1      22.332   1.834  51.838  1.00  0.00     0.152 A 
HETATM   15  S1  UNL     1      20.626   1.698  52.447  1.00  0.00    -0.101 SA
HETATM   16  C12 UNL     1      20.614   0.471  53.706  1.00  0.00     0.049 A 
HETATM   17  C13 UNL     1      21.672  -0.198  54.097  1.00  0.00     0.019 A 
HETATM   18  C14 UNL     1      22.987  -0.004  53.535  1.00  0.00    -0.026 A 
HETATM   19  C15 UNL     1      24.028  -0.768  54.027  1.00  0.00     0.012 A 
HETATM   20  C16 UNL     1      25.342  -0.680  53.574  1.00  0.00     0.001 A 
HETATM   21  C17 UNL     1      25.568   0.229  52.583  1.00  0.00     0.001 A 
HETATM   22  C18 UNL     1      24.523   1.009  52.074  1.00  0.00     0.011 A 
HETATM   23  C19 UNL     1      23.238   0.883  52.558  1.00  0.00    -0.006 A 
ENDROOT
TORSDOF 0
ENDMDL
MODEL 3
REMARK VINA RESULT:      -8.3      2.771      4.474
REMARK  0 active torsions:
REMARK  status: ('A' for Active; 'I' for Inactive)
ROOT
HETATM    1  N1  UNL     1      27.159   4.311  49.068  1.00  0.00    -0.196 NA
HETATM    2  C1  UNL     1      26.192   3.753  49.441  1.00  0.00     0.072 C 
HETATM    3  C2  UNL     1      24.981   3.053  49.893  1.00  0.00     0.172 C 
HETATM    4  C3  UNL     1      25.316   2.415  51.180  1.00  0.00    -0.030 A 
HETATM    5  C4  UNL     1      26.677   2.170  51.299  1.00  0.00     0.011 A 
HETATM    6  C5  UNL     1      27.263   1.582  52.401  1.00  0.00     0.024 A 
HETATM    7  C6  UNL     1      26.466   1.207  53.460  1.00  0.00     0.034 A 
HETATM    8 CL1  UNL     1      27.185   0.463  54.862  1.00  0.00    -0.084 Cl
HETATM    9  C7  UNL     1      25.104   1.426  53.398  1.00  0.00     0.031 A 
HETATM   10  C8  UNL     1      24.556   2.019  52.272  1.00  0.00    -0.044 A 
HETATM   11  C9  UNL     1      23.099   2.149  52.435  1.00  0.00     0.085 C 
HETATM   12  C10 UNL     1      22.745   3.546  52.099  1.00  0.00     0.090 C 
HETATM   13  N2  UNL     1      23.075   4.132  51.042  1.00  0.00    -0.277 NA
HETATM   14  C11 UNL     1      23.784   3.907  49.848  1.00  0.00     0.152 A 
HETATM   15  S1  UNL     1      22.578   3.217  48.678  1.00  0.00    -0.101 SA
HETATM   16  C12 UNL     1      22.316   4.420  47.422  1.00  0.00     0.049 A 
HETATM   17  C13 UNL     1      22.909   5.589  47.383  1.00  0.00     0.019 A 
HETATM   18  C14 UNL     1      23.857   6.032  48.377  1.00  0.00    -0.026 A 
HETATM   19  C15 UNL     1      24.418   7.287  48.232  1.00  0.00     0.012 A 
HETATM   20  C16 UNL     1      25.343   7.834  49.117  1.00  0.00     0.001 A 
HETATM   21  C17 UNL     1      25.687   7.049  50.177  1.00  0.00     0.001 A 
HETATM   22  C18 UNL     1      25.127   5.776  50.337  1.00  0.00     0.011 A 
HETATM   23  C19 UNL     1      24.214   5.280  49.431  1.00  0.00    -0.006 A 
ENDROOT
TORSDOF 0
ENDMDL
MODEL 4
REMARK VINA RESULT:      -8.3      3.152      5.728
REMARK  0 active torsions:
REMARK  status: ('A' for Active; 'I' for Inactive)
ROOT
HETATM    1  N1  UNL     1      21.183   0.233  50.801  1.00  0.00    -0.196 NA
HETATM    2  C1  UNL     1      21.996   1.081  50.879  1.00  0.00     0.072 C 
HETATM    3  C2  UNL     1      23.020   2.131  50.970  1.00  0.00     0.172 C 
HETATM    4  C3  UNL     1      22.342   3.410  50.686  1.00  0.00    -0.030 A 
HETATM    5  C4  UNL     1      21.204   3.234  49.912  1.00  0.00     0.011 A 
HETATM    6  C5  UNL     1      20.382   4.262  49.500  1.00  0.00     0.024 A 
HETATM    7  C6  UNL     1      20.692   5.552  49.869  1.00  0.00     0.034 A 
HETATM    8 CL1  UNL     1      19.667   6.866  49.360  1.00  0.00    -0.084 Cl
HETATM    9  C7  UNL     1      21.813   5.790  50.641  1.00  0.00     0.031 A 
HETATM   10  C8  UNL     1      22.612   4.728  51.032  1.00  0.00    -0.044 A 
HETATM   11  C9  UNL     1      23.738   5.222  51.841  1.00  0.00     0.085 C 
HETATM   12  C10 UNL     1      23.791   4.395  53.066  1.00  0.00     0.090 C 
HETATM   13  N2  UNL     1      23.817   3.142  53.082  1.00  0.00    -0.277 NA
HETATM   14  C11 UNL     1      23.813   2.042  52.206  1.00  0.00     0.152 A 
HETATM   15  S1  UNL     1      25.555   1.725  51.800  1.00  0.00    -0.101 SA
HETATM   16  C12 UNL     1      25.996   0.190  52.536  1.00  0.00     0.049 A 
HETATM   17  C13 UNL     1      25.178  -0.554  53.242  1.00  0.00     0.019 A 
HETATM   18  C14 UNL     1      23.804  -0.196  53.501  1.00  0.00    -0.026 A 
HETATM   19  C15 UNL     1      23.036  -1.060  54.260  1.00  0.00     0.012 A 
HETATM   20  C16 UNL     1      21.700  -0.836  54.583  1.00  0.00     0.001 A 
HETATM   21  C17 UNL     1      21.159   0.319  54.100  1.00  0.00     0.001 A 
HETATM   22  C18 UNL     1      21.924   1.203  53.331  1.00  0.00     0.011 A 
HETATM   23  C19 UNL     1      23.245   0.933  53.039  1.00  0.00    -0.006 A 
ENDROOT
TORSDOF 0
ENDMDL
MODEL 5
REMARK VINA RESULT:      -8.2      2.500      2.852
REMARK  0 active torsions:
REMARK  status: ('A' for Active; 'I' for Inactive)
ROOT
HETATM    1  N1  UNL     1      21.119   3.293  50.553  1.00  0.00    -0.196 NA
HETATM    2  C1  UNL     1      22.248   3.539  50.780  1.00  0.00     0.072 C 
HETATM    3  C2  UNL     1      23.654   3.860  51.065  1.00  0.00     0.172 C 
HETATM    4  C3  UNL     1      24.213   2.704  51.791  1.00  0.00    -0.030 A 
HETATM    5  C4  UNL     1      23.231   1.984  52.457  1.00  0.00     0.011 A 
HETATM    6  C5  UNL     1      23.477   0.857  53.213  1.00  0.00     0.024 A 
HETATM    7  C6  UNL     1      24.771   0.400  53.328  1.00  0.00     0.034 A 
HETATM    8 CL1  UNL     1      25.105  -1.022  54.278  1.00  0.00    -0.084 Cl
HETATM    9  C7  UNL     1      25.792   1.076  52.687  1.00  0.00     0.031 A 
HETATM   10  C8  UNL     1      25.501   2.204  51.938  1.00  0.00    -0.044 A 
HETATM   11  C9  UNL     1      26.738   2.749  51.354  1.00  0.00     0.085 C 
HETATM   12  C10 UNL     1      26.480   2.967  49.913  1.00  0.00     0.090 C 
HETATM   13  N2  UNL     1      25.511   3.613  49.450  1.00  0.00    -0.277 NA
HETATM   14  C11 UNL     1      24.379   4.331  49.875  1.00  0.00     0.152 A 
HETATM   15  S1  UNL     1      24.943   6.038  50.133  1.00  0.00    -0.101 SA
HETATM   16  C12 UNL     1      24.190   7.034  48.895  1.00  0.00     0.049 A 
HETATM   17  C13 UNL     1      23.375   6.578  47.974  1.00  0.00     0.019 A 
HETATM   18  C14 UNL     1      22.996   5.189  47.866  1.00  0.00    -0.026 A 
HETATM   19  C15 UNL     1      22.129   4.825  46.853  1.00  0.00     0.012 A 
HETATM   20  C16 UNL     1      21.685   3.523  46.637  1.00  0.00     0.001 A 
HETATM   21  C17 UNL     1      22.160   2.583  47.503  1.00  0.00     0.001 A 
HETATM   22  C18 UNL     1      23.039   2.937  48.534  1.00  0.00     0.011 A 
HETATM   23  C19 UNL     1      23.448   4.243  48.705  1.00  0.00    -0.006 A 
ENDROOT
TORSDOF 0
ENDMDL
MODEL 6
REMARK VINA RESULT:      -8.0      2.514      3.324
REMARK  0 active torsions:
REMARK  status: ('A' for Active; 'I' for Inactive)
ROOT
HETATM    1  N1  UNL     1      19.951   2.881  50.166  1.00  0.00    -0.196 NA
HETATM    2  C1  UNL     1      20.925   2.995  50.819  1.00  0.00     0.072 C 
HETATM    3  C2  UNL     1      22.136   3.150  51.636  1.00  0.00     0.172 C 
HETATM    4  C3  UNL     1      22.284   1.907  52.416  1.00  0.00    -0.030 A 
HETATM    5  C4  UNL     1      21.069   1.263  52.601  1.00  0.00     0.011 A 
HETATM    6  C5  UNL     1      20.918   0.080  53.294  1.00  0.00     0.024 A 
HETATM    7  C6  UNL     1      22.031  -0.516  53.846  1.00  0.00     0.034 A 
HETATM    8 CL1  UNL     1      21.865  -2.011  54.725  1.00  0.00    -0.084 Cl
HETATM    9  C7  UNL     1      23.269   0.079  53.694  1.00  0.00     0.031 A 
HETATM   10  C8  UNL     1      23.375   1.268  52.990  1.00  0.00    -0.044 A 
HETATM   11  C9  UNL     1      24.780   1.706  52.961  1.00  0.00     0.085 C 
HETATM   12  C10 UNL     1      25.109   2.022  51.553  1.00  0.00     0.090 C 
HETATM   13  N2  UNL     1      24.443   2.789  50.819  1.00  0.00    -0.277 NA
HETATM   14  C11 UNL     1      23.295   3.601  50.849  1.00  0.00     0.152 A 
HETATM   15  S1  UNL     1      23.852   5.224  51.445  1.00  0.00    -0.101 SA
HETATM   16  C12 UNL     1      23.707   6.354  50.106  1.00  0.00     0.049 A 
HETATM   17  C13 UNL     1      23.271   6.033  48.911  1.00  0.00     0.019 A 
HETATM   18  C14 UNL     1      22.854   4.700  48.551  1.00  0.00    -0.026 A 
HETATM   19  C15 UNL     1      22.412   4.479  47.259  1.00  0.00     0.012 A 
HETATM   20  C16 UNL     1      21.982   3.244  46.782  1.00  0.00     0.001 A 
HETATM   21  C17 UNL     1      22.016   2.218  47.678  1.00  0.00     0.001 A 
HETATM   22  C18 UNL     1      22.460   2.425  48.989  1.00  0.00     0.011 A 
HETATM   23  C19 UNL     1      22.876   3.670  49.412  1.00  0.00    -0.006 A 
ENDROOT
TORSDOF 0
ENDMDL
MODEL 7
REMARK VINA RESULT:      -8.0      3.288      4.841
REMARK  0 active torsions:
REMARK  status: ('A' for Active; 'I' for Inactive)
ROOT
HETATM    1  N1  UNL     1      19.381   2.620  49.817  1.00  0.00    -0.196 NA
HETATM    2  C1  UNL     1      20.018   2.372  50.776  1.00  0.00     0.072 C 
HETATM    3  C2  UNL     1      20.814   2.077  51.976  1.00  0.00     0.172 C 
HETATM    4  C3  UNL     1      20.272   0.830  52.548  1.00  0.00    -0.030 A 
HETATM    5  C4  UNL     1      18.945   0.629  52.194  1.00  0.00     0.011 A 
HETATM    6  C5  UNL     1      18.194  -0.457  52.591  1.00  0.00     0.024 A 
HETATM    7  C6  UNL     1      18.779  -1.415  53.390  1.00  0.00     0.034 A 
HETATM    8 CL1  UNL     1      17.849  -2.796  53.904  1.00  0.00    -0.084 Cl
HETATM    9  C7  UNL     1      20.098  -1.270  53.775  1.00  0.00     0.031 A 
HETATM   10  C8  UNL     1      20.816  -0.163  53.353  1.00  0.00    -0.044 A 
HETATM   11  C9  UNL     1      22.187  -0.226  53.884  1.00  0.00     0.085 C 
HETATM   12  C10 UNL     1      23.106   0.012  52.747  1.00  0.00     0.090 C 
HETATM   13  N2  UNL     1      23.033   0.985  51.961  1.00  0.00    -0.277 NA
HETATM   14  C11 UNL     1      22.262   2.137  51.723  1.00  0.00     0.152 A 
HETATM   15  S1  UNL     1      23.010   3.451  52.728  1.00  0.00    -0.101 SA
HETATM   16  C12 UNL     1      23.733   4.612  51.623  1.00  0.00     0.049 A 
HETATM   17  C13 UNL     1      23.710   4.502  50.316  1.00  0.00     0.019 A 
HETATM   18  C14 UNL     1      23.081   3.404  49.623  1.00  0.00    -0.026 A 
HETATM   19  C15 UNL     1      23.120   3.394  48.241  1.00  0.00     0.012 A 
HETATM   20  C16 UNL     1      22.553   2.397  47.452  1.00  0.00     0.001 A 
HETATM   21  C17 UNL     1      21.933   1.387  48.127  1.00  0.00     0.001 A 
HETATM   22  C18 UNL     1      21.886   1.383  49.526  1.00  0.00     0.011 A 
HETATM   23  C19 UNL     1      22.463   2.397  50.261  1.00  0.00    -0.006 A 
ENDROOT
TORSDOF 0
ENDMDL
MODEL 8
REMARK VINA RESULT:      -7.4      6.662      9.471
REMARK  0 active torsions:
REMARK  status: ('A' for Active; 'I' for Inactive)
ROOT
HETATM    1  N1  UNL     1      30.583   5.201  47.625  1.00  0.00    -0.196 NA
HETATM    2  C1  UNL     1      29.650   5.921  47.604  1.00  0.00     0.072 C 
HETATM    3  C2  UNL     1      28.489   6.821  47.564  1.00  0.00     0.172 C 
HETATM    4  C3  UNL     1      27.470   6.238  48.458  1.00  0.00    -0.030 A 
HETATM    5  C4  UNL     1      27.626   4.866  48.598  1.00  0.00     0.011 A 
HETATM    6  C5  UNL     1      26.811   4.070  49.375  1.00  0.00     0.024 A 
HETATM    7  C6  UNL     1      25.770   4.654  50.064  1.00  0.00     0.034 A 
HETATM    8 CL1  UNL     1      24.727   3.668  51.052  1.00  0.00    -0.084 Cl
HETATM    9  C7  UNL     1      25.565   6.017  49.963  1.00  0.00     0.031 A 
HETATM   10  C8  UNL     1      26.408   6.779  49.170  1.00  0.00    -0.044 A 
HETATM   11  C9  UNL     1      25.998   8.191  49.219  1.00  0.00     0.085 C 
HETATM   12  C10 UNL     1      27.211   8.988  49.508  1.00  0.00     0.090 C 
HETATM   13  N2  UNL     1      28.284   8.914  48.866  1.00  0.00    -0.277 NA
HETATM   14  C11 UNL     1      28.858   8.229  47.780  1.00  0.00     0.152 A 
HETATM   15  S1  UNL     1      28.448   9.206  46.305  1.00  0.00    -0.101 SA
HETATM   16  C12 UNL     1      29.948   9.898  45.700  1.00  0.00     0.049 A 
HETATM   17  C13 UNL     1      31.123   9.712  46.251  1.00  0.00     0.019 A 
HETATM   18  C14 UNL     1      31.328   8.909  47.432  1.00  0.00    -0.026 A 
HETATM   19  C15 UNL     1      32.614   8.785  47.924  1.00  0.00     0.012 A 
HETATM   20  C16 UNL     1      32.949   8.042  49.053  1.00  0.00     0.001 A 
HETATM   21  C17 UNL     1      31.913   7.415  49.679  1.00  0.00     0.001 A 
HETATM   22  C18 UNL     1      30.606   7.531  49.193  1.00  0.00     0.011 A 
HETATM   23  C19 UNL     1      30.327   8.281  48.069  1.00  0.00    -0.006 A 
ENDROOT
TORSDOF 0
ENDMDL
MODEL 9
REMARK VINA RESULT:      -7.3      8.528     11.006
REMARK  0 active torsions:
REMARK  status: ('A' for Active; 'I' for Inactive)
ROOT
HETATM    1  N1  UNL     1      27.094   8.164  45.903  1.00  0.00    -0.196 NA
HETATM    2  C1  UNL     1      28.117   8.573  46.320  1.00  0.00     0.072 C 
HETATM    3  C2  UNL     1      29.400   9.074  46.831  1.00  0.00     0.172 C 
HETATM    4  C3  UNL     1      29.215  10.512  47.104  1.00  0.00    -0.030 A 
HETATM    5  C4  UNL     1      28.200  11.061  46.332  1.00  0.00     0.011 A 
HETATM    6  C5  UNL     1      27.817  12.385  46.387  1.00  0.00     0.024 A 
HETATM    7  C6  UNL     1      28.469  13.233  47.254  1.00  0.00     0.034 A 
HETATM    8 CL1  UNL     1      28.002  14.909  47.340  1.00  0.00    -0.084 Cl
HETATM    9  C7  UNL     1      29.488  12.743  48.049  1.00  0.00     0.031 A 
HETATM   10  C8  UNL     1      29.842  11.406  47.962  1.00  0.00    -0.044 A 
HETATM   11  C9  UNL     1      30.942  11.119  48.896  1.00  0.00     0.085 C 
HETATM   12  C10 UNL     1      30.556   9.919  49.670  1.00  0.00     0.090 C 
HETATM   13  N2  UNL     1      30.176   8.836  49.167  1.00  0.00    -0.277 NA
HETATM   14  C11 UNL     1      29.941   8.240  47.915  1.00  0.00     0.152 A 
HETATM   15  S1  UNL     1      31.528   7.519  47.404  1.00  0.00    -0.101 SA
HETATM   16  C12 UNL     1      31.346   5.770  47.438  1.00  0.00     0.049 A 
HETATM   17  C13 UNL     1      30.243   5.148  47.778  1.00  0.00     0.019 A 
HETATM   18  C14 UNL     1      29.034   5.832  48.169  1.00  0.00    -0.026 A 
HETATM   19  C15 UNL     1      27.931   5.070  48.508  1.00  0.00     0.012 A 
HETATM   20  C16 UNL     1      26.707   5.602  48.902  1.00  0.00     0.001 A 
HETATM   21  C17 UNL     1      26.637   6.964  48.943  1.00  0.00     0.001 A 
HETATM   22  C18 UNL     1      27.745   7.748  48.603  1.00  0.00     0.011 A 
HETATM   23  C19 UNL     1      28.937   7.171  48.218  1.00  0.00    -0.006 A 
ENDROOT
TORSDOF 0
ENDMDL
