MODEL 1
REMARK VINA RESULT:      -9.9      0.000      0.000
REMARK  0 active torsions:
REMARK  status: ('A' for Active; 'I' for Inactive)
ROOT
HETATM    1  O1  UNL     1      21.408  -2.206  55.071  1.00  0.00    -0.271 OA
HETATM    2  C1  UNL     1      21.013  -1.321  54.234  1.00  0.00     0.291 A 
HETATM    3  N1  UNL     1      19.789  -0.976  53.637  1.00  0.00     0.018 N 
HETATM    4  C2  UNL     1      19.803   0.102  52.746  1.00  0.00     0.190 A 
HETATM    5  C3  UNL     1      19.262   0.990  51.876  1.00  0.00     0.040 A 
HETATM    6  C4  UNL     1      19.597   2.218  50.957  1.00  0.00    -0.031 A 
HETATM    7  C5  UNL     1      20.174   1.486  51.706  1.00  0.00     0.044 A 
HETATM    8  C6  UNL     1      20.768   0.721  52.487  1.00  0.00     0.076 A 
HETATM    9  C7  UNL     1      21.066  -0.158  53.283  1.00  0.00     0.237 A 
HETATM   10  C8  UNL     1      22.204  -0.580  53.924  1.00  0.00     0.128 A 
HETATM   11  C9  UNL     1      23.149   0.186  53.562  1.00  0.00     0.026 C 
HETATM   12  C10 UNL     1      24.536   0.481  53.562  1.00  0.00     0.033 A 
HETATM   13  C11 UNL     1      25.362  -0.169  54.449  1.00  0.00     0.038 A 
HETATM   14  C12 UNL     1      26.701   0.201  54.244  1.00  0.00    -0.033 A 
HETATM   15  C13 UNL     1      26.533   1.082  53.196  1.00  0.00     0.018 A 
HETATM   16  N2  UNL     1      25.293   1.285  52.762  1.00  0.00    -0.347 N 
HETATM   17  C14 UNL     1      24.701   2.146  51.697  1.00  0.00     0.156 C 
HETATM   18  C15 UNL     1      24.065   3.321  52.324  1.00  0.00    -0.007 C 
HETATM   19  C16 UNL     1      23.018   4.133  52.658  1.00  0.00    -0.006 C 
HETATM   20  C17 UNL     1      21.935   3.402  52.027  1.00  0.00    -0.021 C 
HETATM   21  C18 UNL     1      21.063   2.649  51.408  1.00  0.00     0.019 A 
HETATM   22  C19 UNL     1      27.722   1.719  52.567  1.00  0.00     0.058 C 
HETATM   23  C20 UNL     1      28.989   1.215  53.169  1.00  0.00     0.006 C 
HETATM   24  C21 UNL     1      28.876   1.085  54.672  1.00  0.00     0.005 C 
HETATM   25  C22 UNL     1      27.990  -0.151  54.882  1.00  0.00     0.040 C 
HETATM   26  H1  UNL     1      18.862  -1.458  53.802  1.00  0.00     0.292 HD
ENDROOT
TORSDOF 0
ENDMDL
MODEL 2
REMARK VINA RESULT:      -9.8      2.245      7.004
REMARK  0 active torsions:
REMARK  status: ('A' for Active; 'I' for Inactive)
ROOT
HETATM    1  O1  UNL     1      21.913  -2.023  55.249  1.00  0.00    -0.271 OA
HETATM    2  C1  UNL     1      22.483  -1.165  54.488  1.00  0.00     0.291 A 
HETATM    3  N1  UNL     1      23.787  -0.665  54.334  1.00  0.00     0.018 N 
HETATM    4  C2  UNL     1      23.979   0.302  53.341  1.00  0.00     0.190 A 
HETATM    5  C3  UNL     1      24.696   1.179  52.596  1.00  0.00     0.040 A 
HETATM    6  C4  UNL     1      24.591   2.216  51.423  1.00  0.00    -0.031 A 
HETATM    7  C5  UNL     1      23.867   1.473  52.019  1.00  0.00     0.044 A 
HETATM    8  C6  UNL     1      23.121   0.699  52.643  1.00  0.00     0.076 A 
HETATM    9  C7  UNL     1      22.652  -0.128  53.412  1.00  0.00     0.237 A 
HETATM   10  C8  UNL     1      21.420  -0.685  53.649  1.00  0.00     0.128 A 
HETATM   11  C9  UNL     1      20.608  -0.177  52.817  1.00  0.00     0.026 C 
HETATM   12  C10 UNL     1      19.271  -0.019  52.371  1.00  0.00     0.033 A 
HETATM   13  C11 UNL     1      18.299  -0.868  52.846  1.00  0.00     0.038 A 
HETATM   14  C12 UNL     1      17.037  -0.506  52.349  1.00  0.00    -0.033 A 
HETATM   15  C13 UNL     1      17.400   0.583  51.586  1.00  0.00     0.018 A 
HETATM   16  N2  UNL     1      18.688   0.909  51.560  1.00  0.00    -0.347 N 
HETATM   17  C14 UNL     1      19.470   1.972  50.864  1.00  0.00     0.156 C 
HETATM   18  C15 UNL     1      20.182   1.377  49.717  1.00  0.00    -0.007 C 
HETATM   19  C16 UNL     1      21.285   1.004  49.001  1.00  0.00    -0.006 C 
HETATM   20  C17 UNL     1      22.325   1.470  49.899  1.00  0.00    -0.021 C 
HETATM   21  C18 UNL     1      23.152   1.943  50.795  1.00  0.00     0.019 A 
HETATM   22  C19 UNL     1      16.354   1.371  50.877  1.00  0.00     0.058 C 
HETATM   23  C20 UNL     1      14.988   0.859  51.184  1.00  0.00     0.006 C 
HETATM   24  C21 UNL     1      14.952  -0.653  51.195  1.00  0.00     0.005 C 
HETATM   25  C22 UNL     1      15.664  -1.041  52.500  1.00  0.00     0.040 C 
HETATM   26  H1  UNL     1      24.632  -0.955  54.900  1.00  0.00     0.292 HD
ENDROOT
TORSDOF 0
ENDMDL
MODEL 3
REMARK VINA RESULT:      -9.7      4.562      6.814
REMARK  0 active torsions:
REMARK  status: ('A' for Active; 'I' for Inactive)
ROOT
HETATM    1  O1  UNL     1      29.040   5.143  48.713  1.00  0.00    -0.271 OA
HETATM    2  C1  UNL     1      27.863   5.619  48.545  1.00  0.00     0.291 A 
HETATM    3  N1  UNL     1      27.310   6.722  47.872  1.00  0.00     0.018 N 
HETATM    4  C2  UNL     1      25.922   6.877  47.948  1.00  0.00     0.190 A 
HETATM    5  C3  UNL     1      24.732   7.475  47.695  1.00  0.00     0.040 A 
HETATM    6  C4  UNL     1      23.188   7.369  47.954  1.00  0.00    -0.031 A 
HETATM    7  C5  UNL     1      24.180   6.764  48.238  1.00  0.00     0.044 A 
HETATM    8  C6  UNL     1      25.215   6.139  48.529  1.00  0.00     0.076 A 
HETATM    9  C7  UNL     1      26.369   5.753  48.648  1.00  0.00     0.237 A 
HETATM   10  C8  UNL     1      27.014   4.712  49.266  1.00  0.00     0.128 A 
HETATM   11  C9  UNL     1      26.130   4.000  49.831  1.00  0.00     0.026 C 
HETATM   12  C10 UNL     1      25.813   2.923  50.699  1.00  0.00     0.033 A 
HETATM   13  C11 UNL     1      26.799   2.029  51.048  1.00  0.00     0.038 A 
HETATM   14  C12 UNL     1      26.311   1.086  51.966  1.00  0.00    -0.033 A 
HETATM   15  C13 UNL     1      25.013   1.536  52.083  1.00  0.00     0.018 A 
HETATM   16  N2  UNL     1      24.668   2.599  51.364  1.00  0.00    -0.347 N 
HETATM   17  C14 UNL     1      23.398   3.363  51.195  1.00  0.00     0.156 C 
HETATM   18  C15 UNL     1      22.783   3.001  49.904  1.00  0.00    -0.007 C 
HETATM   19  C16 UNL     1      22.335   3.237  48.635  1.00  0.00    -0.006 C 
HETATM   20  C17 UNL     1      22.659   4.646  48.523  1.00  0.00    -0.021 C 
HETATM   21  C18 UNL     1      22.999   5.909  48.564  1.00  0.00     0.019 A 
HETATM   22  C19 UNL     1      24.079   0.863  53.027  1.00  0.00     0.058 C 
HETATM   23  C20 UNL     1      24.766  -0.216  53.793  1.00  0.00     0.006 C 
HETATM   24  C21 UNL     1      25.694  -1.019  52.909  1.00  0.00     0.005 C 
HETATM   25  C22 UNL     1      26.889  -0.085  52.665  1.00  0.00     0.040 C 
HETATM   26  H1  UNL     1      27.850   7.442  47.316  1.00  0.00     0.292 HD
ENDROOT
TORSDOF 0
ENDMDL
MODEL 4
REMARK VINA RESULT:      -9.6      2.618      5.375
REMARK  0 active torsions:
REMARK  status: ('A' for Active; 'I' for Inactive)
ROOT
HETATM    1  O1  UNL     1      27.095   0.981  53.841  1.00  0.00    -0.271 OA
HETATM    2  C1  UNL     1      25.954   0.416  53.973  1.00  0.00     0.291 A 
HETATM    3  N1  UNL     1      25.430  -0.622  54.763  1.00  0.00     0.018 N 
HETATM    4  C2  UNL     1      24.078  -0.930  54.583  1.00  0.00     0.190 A 
HETATM    5  C3  UNL     1      22.924  -1.603  54.817  1.00  0.00     0.040 A 
HETATM    6  C4  UNL     1      21.414  -1.700  54.400  1.00  0.00    -0.031 A 
HETATM    7  C5  UNL     1      22.374  -1.045  54.115  1.00  0.00     0.044 A 
HETATM    8  C6  UNL     1      23.376  -0.369  53.824  1.00  0.00     0.076 A 
HETATM    9  C7  UNL     1      24.498   0.113  53.754  1.00  0.00     0.237 A 
HETATM   10  C8  UNL     1      25.113   1.108  53.037  1.00  0.00     0.128 A 
HETATM   11  C9  UNL     1      24.236   1.629  52.282  1.00  0.00     0.026 C 
HETATM   12  C10 UNL     1      23.923   2.521  51.224  1.00  0.00     0.033 A 
HETATM   13  C11 UNL     1      24.858   3.448  50.828  1.00  0.00     0.038 A 
HETATM   14  C12 UNL     1      24.393   4.183  49.725  1.00  0.00    -0.033 A 
HETATM   15  C13 UNL     1      23.160   3.587  49.562  1.00  0.00     0.018 A 
HETATM   16  N2  UNL     1      22.834   2.617  50.409  1.00  0.00    -0.347 N 
HETATM   17  C14 UNL     1      21.625   1.760  50.581  1.00  0.00     0.156 C 
HETATM   18  C15 UNL     1      20.843   2.250  51.732  1.00  0.00    -0.007 C 
HETATM   19  C16 UNL     1      20.281   2.166  52.974  1.00  0.00    -0.006 C 
HETATM   20  C17 UNL     1      20.714   0.832  53.346  1.00  0.00    -0.021 C 
HETATM   21  C18 UNL     1      21.165  -0.379  53.544  1.00  0.00     0.019 A 
HETATM   22  C19 UNL     1      22.280   4.006  48.437  1.00  0.00     0.058 C 
HETATM   23  C20 UNL     1      22.949   5.019  47.573  1.00  0.00     0.006 C 
HETATM   24  C21 UNL     1      23.701   6.041  48.397  1.00  0.00     0.005 C 
HETATM   25  C22 UNL     1      24.939   5.286  48.902  1.00  0.00     0.040 C 
HETATM   26  H1  UNL     1      25.967  -1.187  55.477  1.00  0.00     0.292 HD
ENDROOT
TORSDOF 0
ENDMDL
MODEL 5
REMARK VINA RESULT:      -9.4      2.459      7.432
REMARK  0 active torsions:
REMARK  status: ('A' for Active; 'I' for Inactive)
ROOT
HETATM    1  O1  UNL     1      23.762   5.320  51.849  1.00  0.00    -0.271 OA
HETATM    2  C1  UNL     1      24.038   4.104  52.141  1.00  0.00     0.291 A 
HETATM    3  N1  UNL     1      25.206   3.379  52.433  1.00  0.00     0.018 N 
HETATM    4  C2  UNL     1      25.050   2.017  52.709  1.00  0.00     0.190 A 
HETATM    5  C3  UNL     1      25.469   0.767  53.030  1.00  0.00     0.040 A 
HETATM    6  C4  UNL     1      24.973  -0.698  53.299  1.00  0.00    -0.031 A 
HETATM    7  C5  UNL     1      24.498   0.362  53.011  1.00  0.00     0.044 A 
HETATM    8  C6  UNL     1      24.011   1.467  52.713  1.00  0.00     0.076 A 
HETATM    9  C7  UNL     1      23.833   2.643  52.433  1.00  0.00     0.237 A 
HETATM   10  C8  UNL     1      22.760   3.447  52.136  1.00  0.00     0.128 A 
HETATM   11  C9  UNL     1      21.718   2.726  52.196  1.00  0.00     0.026 C 
HETATM   12  C10 UNL     1      20.323   2.593  51.979  1.00  0.00     0.033 A 
HETATM   13  C11 UNL     1      19.566   3.720  51.756  1.00  0.00     0.038 A 
HETATM   14  C12 UNL     1      18.232   3.377  51.489  1.00  0.00    -0.033 A 
HETATM   15  C13 UNL     1      18.328   2.005  51.582  1.00  0.00     0.018 A 
HETATM   16  N2  UNL     1      19.521   1.495  51.869  1.00  0.00    -0.347 N 
HETATM   17  C14 UNL     1      20.029   0.107  52.072  1.00  0.00     0.156 C 
HETATM   18  C15 UNL     1      20.210  -0.135  53.516  1.00  0.00    -0.007 C 
HETATM   19  C16 UNL     1      20.929  -0.402  54.648  1.00  0.00    -0.006 C 
HETATM   20  C17 UNL     1      22.258  -0.492  54.074  1.00  0.00    -0.021 C 
HETATM   21  C18 UNL     1      23.391  -0.553  53.423  1.00  0.00     0.019 A 
HETATM   22  C19 UNL     1      17.133   1.159  51.313  1.00  0.00     0.058 C 
HETATM   23  C20 UNL     1      15.967   1.987  50.891  1.00  0.00     0.006 C 
HETATM   24  C21 UNL     1      15.858   3.252  51.714  1.00  0.00     0.005 C 
HETATM   25  C22 UNL     1      16.998   4.142  51.195  1.00  0.00     0.040 C 
HETATM   26  H1  UNL     1      26.187   3.772  52.462  1.00  0.00     0.292 HD
ENDROOT
TORSDOF 0
ENDMDL
MODEL 6
REMARK VINA RESULT:      -9.3      2.999      6.549
REMARK  0 active torsions:
REMARK  status: ('A' for Active; 'I' for Inactive)
ROOT
HETATM    1  O1  UNL     1      27.178   2.499  51.548  1.00  0.00    -0.271 OA
HETATM    2  C1  UNL     1      26.367   1.732  52.175  1.00  0.00     0.291 A 
HETATM    3  N1  UNL     1      26.457   0.846  53.262  1.00  0.00     0.018 N 
HETATM    4  C2  UNL     1      25.283   0.185  53.636  1.00  0.00     0.190 A 
HETATM    5  C3  UNL     1      24.525  -0.659  54.380  1.00  0.00     0.040 A 
HETATM    6  C4  UNL     1      23.071  -1.222  54.558  1.00  0.00    -0.031 A 
HETATM    7  C5  UNL     1      23.645  -0.456  53.841  1.00  0.00     0.044 A 
HETATM    8  C6  UNL     1      24.248   0.340  53.100  1.00  0.00     0.076 A 
HETATM    9  C7  UNL     1      25.086   1.041  52.550  1.00  0.00     0.237 A 
HETATM   10  C8  UNL     1      25.112   1.928  51.504  1.00  0.00     0.128 A 
HETATM   11  C9  UNL     1      23.934   2.004  51.040  1.00  0.00     0.026 C 
HETATM   12  C10 UNL     1      23.056   2.482  50.033  1.00  0.00     0.033 A 
HETATM   13  C11 UNL     1      23.488   3.468  49.177  1.00  0.00     0.038 A 
HETATM   14  C12 UNL     1      22.510   3.750  48.211  1.00  0.00    -0.033 A 
HETATM   15  C13 UNL     1      21.539   2.855  48.605  1.00  0.00     0.018 A 
HETATM   16  N2  UNL     1      21.803   2.094  49.663  1.00  0.00    -0.347 N 
HETATM   17  C14 UNL     1      21.035   1.048  50.399  1.00  0.00     0.156 C 
HETATM   18  C15 UNL     1      20.516   1.623  51.655  1.00  0.00    -0.007 C 
HETATM   19  C16 UNL     1      20.405   1.739  53.013  1.00  0.00    -0.006 C 
HETATM   20  C17 UNL     1      21.327   0.695  53.420  1.00  0.00    -0.021 C 
HETATM   21  C18 UNL     1      22.176  -0.275  53.642  1.00  0.00     0.019 A 
HETATM   22  C19 UNL     1      20.279   2.736  47.821  1.00  0.00     0.058 C 
HETATM   23  C20 UNL     1      20.306   3.615  46.617  1.00  0.00     0.006 C 
HETATM   24  C21 UNL     1      20.905   4.968  46.931  1.00  0.00     0.005 C 
HETATM   25  C22 UNL     1      22.409   4.694  47.074  1.00  0.00     0.040 C 
HETATM   26  H1  UNL     1      27.331   0.636  53.818  1.00  0.00     0.292 HD
ENDROOT
TORSDOF 0
ENDMDL
MODEL 7
REMARK VINA RESULT:      -9.0      2.471      6.327
REMARK  0 active torsions:
REMARK  status: ('A' for Active; 'I' for Inactive)
ROOT
HETATM    1  O1  UNL     1      21.290  -0.490  53.041  1.00  0.00    -0.271 OA
HETATM    2  C1  UNL     1      22.532  -0.181  53.011  1.00  0.00     0.291 A 
HETATM    3  N1  UNL     1      23.729  -0.783  53.434  1.00  0.00     0.018 N 
HETATM    4  C2  UNL     1      24.911  -0.074  53.195  1.00  0.00     0.190 A 
HETATM    5  C3  UNL     1      26.250   0.136  53.219  1.00  0.00     0.040 A 
HETATM    6  C4  UNL     1      27.375   1.150  52.808  1.00  0.00    -0.031 A 
HETATM    7  C5  UNL     1      26.184   1.067  52.735  1.00  0.00     0.044 A 
HETATM    8  C6  UNL     1      24.946   0.974  52.662  1.00  0.00     0.076 A 
HETATM    9  C7  UNL     1      23.781   0.609  52.737  1.00  0.00     0.237 A 
HETATM   10  C8  UNL     1      22.556   1.102  52.365  1.00  0.00     0.128 A 
HETATM   11  C9  UNL     1      22.753   2.218  51.793  1.00  0.00     0.026 C 
HETATM   12  C10 UNL     1      22.214   3.404  51.233  1.00  0.00     0.033 A 
HETATM   13  C11 UNL     1      20.869   3.463  50.951  1.00  0.00     0.038 A 
HETATM   14  C12 UNL     1      20.517   4.737  50.477  1.00  0.00    -0.033 A 
HETATM   15  C13 UNL     1      21.753   5.345  50.527  1.00  0.00     0.018 A 
HETATM   16  N2  UNL     1      22.776   4.614  50.956  1.00  0.00    -0.347 N 
HETATM   17  C14 UNL     1      24.233   4.883  51.135  1.00  0.00     0.156 C 
HETATM   18  C15 UNL     1      24.981   4.250  50.031  1.00  0.00    -0.007 C 
HETATM   19  C16 UNL     1      25.872   3.373  49.481  1.00  0.00    -0.006 C 
HETATM   20  C17 UNL     1      26.319   2.696  50.684  1.00  0.00    -0.021 C 
HETATM   21  C18 UNL     1      26.632   2.180  51.844  1.00  0.00     0.019 A 
HETATM   22  C19 UNL     1      21.886   6.781  50.157  1.00  0.00     0.058 C 
HETATM   23  C20 UNL     1      20.561   7.384  49.838  1.00  0.00     0.006 C 
HETATM   24  C21 UNL     1      19.706   6.443  49.018  1.00  0.00     0.005 C 
HETATM   25  C22 UNL     1      19.258   5.367  50.018  1.00  0.00     0.040 C 
HETATM   26  H1  UNL     1      23.814  -1.720  53.916  1.00  0.00     0.292 HD
ENDROOT
TORSDOF 0
ENDMDL
MODEL 8
REMARK VINA RESULT:      -8.9      8.356     10.746
REMARK  0 active torsions:
REMARK  status: ('A' for Active; 'I' for Inactive)
ROOT
HETATM    1  O1  UNL     1      27.406   3.907  49.142  1.00  0.00    -0.271 OA
HETATM    2  C1  UNL     1      27.438   5.162  48.890  1.00  0.00     0.291 A 
HETATM    3  N1  UNL     1      26.560   6.246  49.059  1.00  0.00     0.018 N 
HETATM    4  C2  UNL     1      27.012   7.498  48.629  1.00  0.00     0.190 A 
HETATM    5  C3  UNL     1      26.925   8.834  48.416  1.00  0.00     0.040 A 
HETATM    6  C4  UNL     1      27.709  10.075  47.859  1.00  0.00    -0.031 A 
HETATM    7  C5  UNL     1      27.889   8.901  48.001  1.00  0.00     0.044 A 
HETATM    8  C6  UNL     1      28.071   7.680  48.151  1.00  0.00     0.076 A 
HETATM    9  C7  UNL     1      27.958   6.492  48.417  1.00  0.00     0.237 A 
HETATM   10  C8  UNL     1      28.733   5.365  48.301  1.00  0.00     0.128 A 
HETATM   11  C9  UNL     1      29.840   5.717  47.791  1.00  0.00     0.026 C 
HETATM   12  C10 UNL     1      31.092   5.346  47.238  1.00  0.00     0.033 A 
HETATM   13  C11 UNL     1      31.545   4.058  47.404  1.00  0.00     0.038 A 
HETATM   14  C12 UNL     1      32.758   3.866  46.725  1.00  0.00    -0.033 A 
HETATM   15  C13 UNL     1      32.917   5.126  46.189  1.00  0.00     0.018 A 
HETATM   16  N2  UNL     1      31.979   6.028  46.459  1.00  0.00    -0.347 N 
HETATM   17  C14 UNL     1      31.794   7.464  46.100  1.00  0.00     0.156 C 
HETATM   18  C15 UNL     1      32.131   8.302  47.267  1.00  0.00    -0.007 C 
HETATM   19  C16 UNL     1      31.870   9.191  48.272  1.00  0.00    -0.006 C 
HETATM   20  C17 UNL     1      30.459   9.424  48.027  1.00  0.00    -0.021 C 
HETATM   21  C18 UNL     1      29.201   9.543  47.688  1.00  0.00     0.019 A 
HETATM   22  C19 UNL     1      34.080   5.412  45.305  1.00  0.00     0.058 C 
HETATM   23  C20 UNL     1      34.899   4.188  45.072  1.00  0.00     0.006 C 
HETATM   24  C21 UNL     1      35.064   3.382  46.342  1.00  0.00     0.005 C 
HETATM   25  C22 UNL     1      33.691   2.728  46.558  1.00  0.00     0.040 C 
HETATM   26  H1  UNL     1      25.591   6.197  49.481  1.00  0.00     0.292 HD
ENDROOT
TORSDOF 0
ENDMDL
MODEL 9
REMARK VINA RESULT:      -8.9      1.739      6.291
REMARK  0 active torsions:
REMARK  status: ('A' for Active; 'I' for Inactive)
ROOT
HETATM    1  O1  UNL     1      24.174  -1.584  55.379  1.00  0.00    -0.271 OA
HETATM    2  C1  UNL     1      25.087  -0.782  54.975  1.00  0.00     0.291 A 
HETATM    3  N1  UNL     1      26.456  -0.603  55.234  1.00  0.00     0.018 N 
HETATM    4  C2  UNL     1      27.099   0.433  54.548  1.00  0.00     0.190 A 
HETATM    5  C3  UNL     1      28.150   1.214  54.197  1.00  0.00     0.040 A 
HETATM    6  C4  UNL     1      28.576   2.420  53.287  1.00  0.00    -0.031 A 
HETATM    7  C5  UNL     1      27.585   1.793  53.526  1.00  0.00     0.044 A 
HETATM    8  C6  UNL     1      26.558   1.138  53.778  1.00  0.00     0.076 A 
HETATM    9  C7  UNL     1      25.744   0.340  54.219  1.00  0.00     0.237 A 
HETATM   10  C8  UNL     1      24.409   0.075  54.042  1.00  0.00     0.128 A 
HETATM   11  C9  UNL     1      23.971   0.896  53.179  1.00  0.00     0.026 C 
HETATM   12  C10 UNL     1      22.865   1.450  52.487  1.00  0.00     0.033 A 
HETATM   13  C11 UNL     1      21.651   0.803  52.530  1.00  0.00     0.038 A 
HETATM   14  C12 UNL     1      20.670   1.542  51.851  1.00  0.00    -0.033 A 
HETATM   15  C13 UNL     1      21.435   2.616  51.449  1.00  0.00     0.018 A 
HETATM   16  N2  UNL     1      22.720   2.612  51.788  1.00  0.00    -0.347 N 
HETATM   17  C14 UNL     1      23.856   3.546  51.539  1.00  0.00     0.156 C 
HETATM   18  C15 UNL     1      24.720   2.986  50.482  1.00  0.00    -0.007 C 
HETATM   19  C16 UNL     1      25.879   2.472  49.972  1.00  0.00    -0.006 C 
HETATM   20  C17 UNL     1      26.707   2.515  51.162  1.00  0.00    -0.021 C 
HETATM   21  C18 UNL     1      27.337   2.617  52.304  1.00  0.00     0.019 A 
HETATM   22  C19 UNL     1      20.799   3.742  50.711  1.00  0.00     0.058 C 
HETATM   23  C20 UNL     1      19.328   3.542  50.579  1.00  0.00     0.006 C 
HETATM   24  C21 UNL     1      18.991   2.104  50.250  1.00  0.00     0.005 C 
HETATM   25  C22 UNL     1      19.230   1.347  51.565  1.00  0.00     0.040 C 
HETATM   26  H1  UNL     1      27.040  -1.181  55.900  1.00  0.00     0.292 HD
ENDROOT
TORSDOF 0
ENDMDL
