MODEL 1
REMARK VINA RESULT:      -7.9      0.000      0.000
REMARK  9 active torsions:
REMARK  status: ('A' for Active; 'I' for Inactive)
REMARK    1  A    between atoms: O1_1  and  C1_2 
REMARK    2  A    between atoms: C1_2  and  C2_3 
REMARK    3  A    between atoms: C2_3  and  C3_4 
REMARK    4  A    between atoms: C3_4  and  C4_5 
REMARK    5  A    between atoms: C4_5  and  N1_6 
REMARK    6  A    between atoms: N1_6  and  C5_7 
REMARK    7  A    between atoms: C8_11  and  C9_12 
REMARK    8  A    between atoms: C12_16  and  N4_17 
REMARK    9  A    between atoms: N4_17  and  C13_18 
ROOT
HETATM    1  C5  UNL     1      24.627  -0.008  53.847  1.00  0.00     0.046 A 
HETATM    2  C6  UNL     1      23.461  -0.738  53.768  1.00  0.00     0.145 A 
HETATM    3  N2  UNL     1      22.318  -0.314  53.200  1.00  0.00    -0.270 NA
HETATM    4  C7  UNL     1      22.243   0.927  52.637  1.00  0.00     0.130 A 
HETATM    5  C8  UNL     1      23.382   1.702  52.686  1.00  0.00     0.014 A 
HETATM    6  C18 UNL     1      24.538   1.242  53.276  1.00  0.00     0.046 A 
ENDROOT
BRANCH   5   7
HETATM    7  C9  UNL     1      23.288   3.023  52.082  1.00  0.00     0.088 A 
HETATM    8  C10 UNL     1      22.136   3.772  51.968  1.00  0.00     0.148 A 
HETATM    9  N3  UNL     1      22.097   4.991  51.401  1.00  0.00    -0.267 NA
HETATM   10  C11 UNL     1      23.211   5.543  50.907  1.00  0.00     0.166 A 
HETATM   11  C12 UNL     1      24.386   4.826  51.001  1.00  0.00     0.142 A 
HETATM   12  N5  UNL     1      24.401   3.592  51.581  1.00  0.00    -0.228 NA
BRANCH  11  13
HETATM   13  N4  UNL     1      25.587   5.386  50.486  1.00  0.00    -0.362 N 
HETATM   14  H15 UNL     1      26.253   5.869  51.156  1.00  0.00     0.162 HD
BRANCH  13  15
HETATM   15  C13 UNL     1      25.876   5.288  49.081  1.00  0.00     0.131 A 
HETATM   16  C14 UNL     1      27.144   4.494  48.919  1.00  0.00     0.004 A 
HETATM   17  C15 UNL     1      28.152   5.239  48.473  1.00  0.00     0.022 A 
HETATM   18  C16 UNL     1      27.636   6.591  48.305  1.00  0.00     0.032 A 
HETATM   19 CL1  UNL     1      28.741   7.819  47.723  1.00  0.00    -0.085 Cl
HETATM   20  C17 UNL     1      26.356   6.637  48.642  1.00  0.00     0.026 A 
ENDBRANCH  13  15
ENDBRANCH  11  13
ENDBRANCH   5   7
BRANCH   1  21
HETATM   21  N1  UNL     1      25.819  -0.465  54.459  1.00  0.00    -0.389 N 
HETATM   22  H10 UNL     1      25.879  -1.521  54.590  1.00  0.00     0.159 HD
BRANCH  21  23
HETATM   23  C4  UNL     1      26.935   0.286  54.917  1.00  0.00     0.120 C 
BRANCH  23  24
HETATM   24  C3  UNL     1      28.269  -0.115  54.383  1.00  0.00     0.022 C 
BRANCH  24  25
HETATM   25  C2  UNL     1      28.171  -1.104  53.241  1.00  0.00     0.028 C 
BRANCH  25  26
HETATM   26  C1  UNL     1      29.280  -2.142  53.303  1.00  0.00     0.164 C 
BRANCH  26  27
HETATM   27  O1  UNL     1      28.763  -3.426  53.456  1.00  0.00    -0.401 OA
HETATM   28  H1  UNL     1      29.248  -3.995  52.807  1.00  0.00     0.209 HD
ENDBRANCH  26  27
ENDBRANCH  25  26
ENDBRANCH  24  25
ENDBRANCH  23  24
ENDBRANCH  21  23
ENDBRANCH   1  21
TORSDOF 9
ENDMDL
MODEL 2
REMARK VINA RESULT:      -7.9      1.833      2.593
REMARK  9 active torsions:
REMARK  status: ('A' for Active; 'I' for Inactive)
REMARK    1  A    between atoms: O1_1  and  C1_2 
REMARK    2  A    between atoms: C1_2  and  C2_3 
REMARK    3  A    between atoms: C2_3  and  C3_4 
REMARK    4  A    between atoms: C3_4  and  C4_5 
REMARK    5  A    between atoms: C4_5  and  N1_6 
REMARK    6  A    between atoms: N1_6  and  C5_7 
REMARK    7  A    between atoms: C8_11  and  C9_12 
REMARK    8  A    between atoms: C12_16  and  N4_17 
REMARK    9  A    between atoms: N4_17  and  C13_18 
ROOT
HETATM    1  C5  UNL     1      24.320  -0.793  54.753  1.00  0.00     0.046 A 
HETATM    2  C6  UNL     1      23.268  -1.376  55.423  1.00  0.00     0.145 A 
HETATM    3  N2  UNL     1      21.988  -1.374  55.009  1.00  0.00    -0.270 NA
HETATM    4  C7  UNL     1      21.640  -0.763  53.838  1.00  0.00     0.130 A 
HETATM    5  C8  UNL     1      22.655  -0.163  53.125  1.00  0.00     0.014 A 
HETATM    6  C18 UNL     1      23.956  -0.181  53.574  1.00  0.00     0.046 A 
ENDROOT
BRANCH   5   7
HETATM    7  C9  UNL     1      22.269   0.484  51.879  1.00  0.00     0.088 A 
HETATM    8  C10 UNL     1      21.091   0.270  51.196  1.00  0.00     0.148 A 
HETATM    9  N3  UNL     1      20.777   0.893  50.046  1.00  0.00    -0.267 NA
HETATM   10  C11 UNL     1      21.624   1.773  49.500  1.00  0.00     0.166 A 
HETATM   11  C12 UNL     1      22.815   2.016  50.152  1.00  0.00     0.142 A 
HETATM   12  N5  UNL     1      23.112   1.373  51.318  1.00  0.00    -0.228 NA
BRANCH  11  13
HETATM   13  N4  UNL     1      23.736   2.947  49.598  1.00  0.00    -0.362 N 
HETATM   14  H15 UNL     1      23.649   3.201  48.572  1.00  0.00     0.162 HD
BRANCH  13  15
HETATM   15  C13 UNL     1      24.757   3.522  50.430  1.00  0.00     0.131 A 
HETATM   16  C14 UNL     1      24.630   5.019  50.360  1.00  0.00     0.004 A 
HETATM   17  C15 UNL     1      25.656   5.583  49.725  1.00  0.00     0.022 A 
HETATM   18  C16 UNL     1      26.547   4.504  49.322  1.00  0.00     0.032 A 
HETATM   19 CL1  UNL     1      28.006   4.934  48.454  1.00  0.00    -0.085 Cl
HETATM   20  C17 UNL     1      26.058   3.337  49.710  1.00  0.00     0.026 A 
ENDBRANCH  13  15
ENDBRANCH  11  13
ENDBRANCH   5   7
BRANCH   1  21
HETATM   21  N1  UNL     1      25.661  -0.795  55.209  1.00  0.00    -0.389 N 
HETATM   22  H10 UNL     1      25.891  -1.555  55.919  1.00  0.00     0.159 HD
BRANCH  21  23
HETATM   23  C4  UNL     1      26.729   0.070  54.849  1.00  0.00     0.120 C 
BRANCH  23  24
HETATM   24  C3  UNL     1      27.843  -0.540  54.066  1.00  0.00     0.022 C 
BRANCH  24  25
HETATM   25  C2  UNL     1      27.437  -0.897  52.651  1.00  0.00     0.028 C 
BRANCH  25  26
HETATM   26  C1  UNL     1      27.138  -2.381  52.512  1.00  0.00     0.164 C 
BRANCH  26  27
HETATM   27  O1  UNL     1      28.247  -3.154  52.845  1.00  0.00    -0.401 OA
HETATM   28  H1  UNL     1      28.183  -3.319  53.820  1.00  0.00     0.209 HD
ENDBRANCH  26  27
ENDBRANCH  25  26
ENDBRANCH  24  25
ENDBRANCH  23  24
ENDBRANCH  21  23
ENDBRANCH   1  21
TORSDOF 9
ENDMDL
MODEL 3
REMARK VINA RESULT:      -7.8      1.660      1.903
REMARK  9 active torsions:
REMARK  status: ('A' for Active; 'I' for Inactive)
REMARK    1  A    between atoms: O1_1  and  C1_2 
REMARK    2  A    between atoms: C1_2  and  C2_3 
REMARK    3  A    between atoms: C2_3  and  C3_4 
REMARK    4  A    between atoms: C3_4  and  C4_5 
REMARK    5  A    between atoms: C4_5  and  N1_6 
REMARK    6  A    between atoms: N1_6  and  C5_7 
REMARK    7  A    between atoms: C8_11  and  C9_12 
REMARK    8  A    between atoms: C12_16  and  N4_17 
REMARK    9  A    between atoms: N4_17  and  C13_18 
ROOT
HETATM    1  C5  UNL     1      25.357  -0.404  53.460  1.00  0.00     0.046 A 
HETATM    2  C6  UNL     1      24.171  -0.791  54.044  1.00  0.00     0.145 A 
HETATM    3  N2  UNL     1      22.980  -0.199  53.846  1.00  0.00    -0.270 NA
HETATM    4  C7  UNL     1      22.870   0.875  53.010  1.00  0.00     0.130 A 
HETATM    5  C8  UNL     1      24.027   1.306  52.397  1.00  0.00     0.014 A 
HETATM    6  C18 UNL     1      25.233   0.680  52.619  1.00  0.00     0.046 A 
ENDROOT
BRANCH   5   7
HETATM    7  C9  UNL     1      23.895   2.451  51.508  1.00  0.00     0.088 A 
HETATM    8  C10 UNL     1      22.727   2.868  50.905  1.00  0.00     0.148 A 
HETATM    9  N3  UNL     1      22.654   3.935  50.090  1.00  0.00    -0.267 NA
HETATM   10  C11 UNL     1      23.747   4.658  49.821  1.00  0.00     0.166 A 
HETATM   11  C12 UNL     1      24.937   4.274  50.405  1.00  0.00     0.142 A 
HETATM   12  N5  UNL     1      24.987   3.188  51.228  1.00  0.00    -0.228 NA
BRANCH  11  13
HETATM   13  N4  UNL     1      26.116   5.023  50.140  1.00  0.00    -0.362 N 
HETATM   14  H15 UNL     1      26.709   5.346  50.957  1.00  0.00     0.162 HD
BRANCH  13  15
HETATM   15  C13 UNL     1      26.481   5.322  48.782  1.00  0.00     0.131 A 
HETATM   16  C14 UNL     1      27.882   4.823  48.552  1.00  0.00     0.004 A 
HETATM   17  C15 UNL     1      28.751   5.817  48.384  1.00  0.00     0.022 A 
HETATM   18  C16 UNL     1      27.997   7.059  48.490  1.00  0.00     0.032 A 
HETATM   19 CL1  UNL     1      28.876   8.563  48.311  1.00  0.00    -0.085 Cl
HETATM   20  C17 UNL     1      26.717   6.800  48.713  1.00  0.00     0.026 A 
ENDBRANCH  13  15
ENDBRANCH  11  13
ENDBRANCH   5   7
BRANCH   1  21
HETATM   21  N1  UNL     1      26.605  -1.032  53.688  1.00  0.00    -0.389 N 
HETATM   22  H10 UNL     1      26.609  -1.748  54.477  1.00  0.00     0.159 HD
BRANCH  21  23
HETATM   23  C4  UNL     1      27.841  -0.837  53.014  1.00  0.00     0.120 C 
BRANCH  23  24
HETATM   24  C3  UNL     1      29.029  -0.557  53.872  1.00  0.00     0.022 C 
BRANCH  24  25
HETATM   25  C2  UNL     1      28.933   0.773  54.590  1.00  0.00     0.028 C 
BRANCH  25  26
HETATM   26  C1  UNL     1      28.692   1.916  53.617  1.00  0.00     0.164 C 
BRANCH  26  27
HETATM   27  O1  UNL     1      27.765   2.823  54.123  1.00  0.00    -0.401 OA
HETATM   28  H1  UNL     1      27.311   2.362  54.872  1.00  0.00     0.209 HD
ENDBRANCH  26  27
ENDBRANCH  25  26
ENDBRANCH  24  25
ENDBRANCH  23  24
ENDBRANCH  21  23
ENDBRANCH   1  21
TORSDOF 9
ENDMDL
MODEL 4
REMARK VINA RESULT:      -7.0      3.752      7.205
REMARK  9 active torsions:
REMARK  status: ('A' for Active; 'I' for Inactive)
REMARK    1  A    between atoms: O1_1  and  C1_2 
REMARK    2  A    between atoms: C1_2  and  C2_3 
REMARK    3  A    between atoms: C2_3  and  C3_4 
REMARK    4  A    between atoms: C3_4  and  C4_5 
REMARK    5  A    between atoms: C4_5  and  N1_6 
REMARK    6  A    between atoms: N1_6  and  C5_7 
REMARK    7  A    between atoms: C8_11  and  C9_12 
REMARK    8  A    between atoms: C12_16  and  N4_17 
REMARK    9  A    between atoms: N4_17  and  C13_18 
ROOT
HETATM    1  C5  UNL     1      26.991   1.865  52.629  1.00  0.00     0.046 A 
HETATM    2  C6  UNL     1      28.046   1.359  53.357  1.00  0.00     0.145 A 
HETATM    3  N2  UNL     1      27.957   0.378  54.272  1.00  0.00    -0.270 NA
HETATM    4  C7  UNL     1      26.754  -0.208  54.546  1.00  0.00     0.130 A 
HETATM    5  C8  UNL     1      25.662   0.259  53.846  1.00  0.00     0.014 A 
HETATM    6  C18 UNL     1      25.783   1.266  52.915  1.00  0.00     0.046 A 
ENDROOT
BRANCH   5   7
HETATM    7  C9  UNL     1      24.386  -0.374  54.149  1.00  0.00     0.088 A 
HETATM    8  C10 UNL     1      24.095  -1.083  55.294  1.00  0.00     0.148 A 
HETATM    9  N3  UNL     1      22.899  -1.651  55.530  1.00  0.00    -0.267 NA
HETATM   10  C11 UNL     1      21.912  -1.549  54.633  1.00  0.00     0.166 A 
HETATM   11  C12 UNL     1      22.163  -0.847  53.472  1.00  0.00     0.142 A 
HETATM   12  N5  UNL     1      23.384  -0.279  53.254  1.00  0.00    -0.228 NA
BRANCH  11  13
HETATM   13  N4  UNL     1      21.134  -0.720  52.498  1.00  0.00    -0.362 N 
HETATM   14  H15 UNL     1      20.920  -1.547  51.871  1.00  0.00     0.162 HD
BRANCH  13  15
HETATM   15  C13 UNL     1      20.408   0.516  52.386  1.00  0.00     0.131 A 
HETATM   16  C14 UNL     1      19.043   0.208  51.834  1.00  0.00     0.004 A 
HETATM   17  C15 UNL     1      18.878   0.680  50.601  1.00  0.00     0.022 A 
HETATM   18  C16 UNL     1      20.123   1.341  50.233  1.00  0.00     0.032 A 
HETATM   19 CL1  UNL     1      20.219   2.073  48.644  1.00  0.00    -0.085 Cl
HETATM   20  C17 UNL     1      20.996   1.259  51.225  1.00  0.00     0.026 A 
ENDBRANCH  13  15
ENDBRANCH  11  13
ENDBRANCH   5   7
BRANCH   1  21
HETATM   21  N1  UNL     1      27.100   2.907  51.677  1.00  0.00    -0.389 N 
HETATM   22  H10 UNL     1      28.018   3.445  51.706  1.00  0.00     0.159 HD
BRANCH  21  23
HETATM   23  C4  UNL     1      26.158   3.326  50.699  1.00  0.00     0.120 C 
BRANCH  23  24
HETATM   24  C3  UNL     1      26.702   3.632  49.343  1.00  0.00     0.022 C 
BRANCH  24  25
HETATM   25  C2  UNL     1      26.558   5.093  48.970  1.00  0.00     0.028 C 
BRANCH  25  26
HETATM   26  C1  UNL     1      25.574   5.808  49.882  1.00  0.00     0.164 C 
BRANCH  26  27
HETATM   27  O1  UNL     1      26.164   6.907  50.500  1.00  0.00    -0.401 OA
HETATM   28  H1  UNL     1      26.985   7.105  49.982  1.00  0.00     0.209 HD
ENDBRANCH  26  27
ENDBRANCH  25  26
ENDBRANCH  24  25
ENDBRANCH  23  24
ENDBRANCH  21  23
ENDBRANCH   1  21
TORSDOF 9
ENDMDL
MODEL 5
REMARK VINA RESULT:      -7.0      2.806      3.613
REMARK  9 active torsions:
REMARK  status: ('A' for Active; 'I' for Inactive)
REMARK    1  A    between atoms: O1_1  and  C1_2 
REMARK    2  A    between atoms: C1_2  and  C2_3 
REMARK    3  A    between atoms: C2_3  and  C3_4 
REMARK    4  A    between atoms: C3_4  and  C4_5 
REMARK    5  A    between atoms: C4_5  and  N1_6 
REMARK    6  A    between atoms: N1_6  and  C5_7 
REMARK    7  A    between atoms: C8_11  and  C9_12 
REMARK    8  A    between atoms: C12_16  and  N4_17 
REMARK    9  A    between atoms: N4_17  and  C13_18 
ROOT
HETATM    1  C5  UNL     1      24.580  -0.807  54.621  1.00  0.00     0.046 A 
HETATM    2  C6  UNL     1      23.734  -1.418  55.519  1.00  0.00     0.145 A 
HETATM    3  N2  UNL     1      22.396  -1.484  55.403  1.00  0.00    -0.270 NA
HETATM    4  C7  UNL     1      21.765  -0.922  54.330  1.00  0.00     0.130 A 
HETATM    5  C8  UNL     1      22.564  -0.296  53.398  1.00  0.00     0.014 A 
HETATM    6  C18 UNL     1      23.932  -0.244  53.544  1.00  0.00     0.046 A 
ENDROOT
BRANCH   5   7
HETATM    7  C9  UNL     1      21.878   0.300  52.260  1.00  0.00     0.088 A 
HETATM    8  C10 UNL     1      20.560   0.086  51.917  1.00  0.00     0.148 A 
HETATM    9  N3  UNL     1      19.968   0.660  50.854  1.00  0.00    -0.267 NA
HETATM   10  C11 UNL     1      20.658   1.487  50.060  1.00  0.00     0.166 A 
HETATM   11  C12 UNL     1      21.981   1.726  50.368  1.00  0.00     0.142 A 
HETATM   12  N5  UNL     1      22.560   1.134  51.451  1.00  0.00    -0.228 NA
BRANCH  11  13
HETATM   13  N4  UNL     1      22.742   2.601  49.544  1.00  0.00    -0.362 N 
HETATM   14  H15 UNL     1      23.635   2.239  49.103  1.00  0.00     0.162 HD
BRANCH  13  15
HETATM   15  C13 UNL     1      22.289   3.948  49.324  1.00  0.00     0.131 A 
HETATM   16  C14 UNL     1      23.172   4.575  48.281  1.00  0.00     0.004 A 
HETATM   17  C15 UNL     1      23.939   5.541  48.782  1.00  0.00     0.022 A 
HETATM   18  C16 UNL     1      23.626   5.633  50.202  1.00  0.00     0.032 A 
HETATM   19 CL1  UNL     1      24.484   6.829  51.150  1.00  0.00    -0.085 Cl
HETATM   20  C17 UNL     1      22.699   4.744  50.525  1.00  0.00     0.026 A 
ENDBRANCH  13  15
ENDBRANCH  11  13
ENDBRANCH   5   7
BRANCH   1  21
HETATM   21  N1  UNL     1      25.987  -0.737  54.764  1.00  0.00    -0.389 N 
HETATM   22  H10 UNL     1      26.450  -1.640  55.089  1.00  0.00     0.159 HD
BRANCH  21  23
HETATM   23  C4  UNL     1      26.856   0.364  54.535  1.00  0.00     0.120 C 
BRANCH  23  24
HETATM   24  C3  UNL     1      27.872   0.193  53.456  1.00  0.00     0.022 C 
BRANCH  24  25
HETATM   25  C2  UNL     1      29.252   0.660  53.872  1.00  0.00     0.028 C 
BRANCH  25  26
HETATM   26  C1  UNL     1      29.278   2.157  54.140  1.00  0.00     0.164 C 
BRANCH  26  27
HETATM   27  O1  UNL     1      29.022   2.883  52.980  1.00  0.00    -0.401 OA
HETATM   28  H1  UNL     1      28.574   2.257  52.358  1.00  0.00     0.209 HD
ENDBRANCH  26  27
ENDBRANCH  25  26
ENDBRANCH  24  25
ENDBRANCH  23  24
ENDBRANCH  21  23
ENDBRANCH   1  21
TORSDOF 9
ENDMDL
MODEL 6
REMARK VINA RESULT:      -7.0      2.440      3.488
REMARK  9 active torsions:
REMARK  status: ('A' for Active; 'I' for Inactive)
REMARK    1  A    between atoms: O1_1  and  C1_2 
REMARK    2  A    between atoms: C1_2  and  C2_3 
REMARK    3  A    between atoms: C2_3  and  C3_4 
REMARK    4  A    between atoms: C3_4  and  C4_5 
REMARK    5  A    between atoms: C4_5  and  N1_6 
REMARK    6  A    between atoms: N1_6  and  C5_7 
REMARK    7  A    between atoms: C8_11  and  C9_12 
REMARK    8  A    between atoms: C12_16  and  N4_17 
REMARK    9  A    between atoms: N4_17  and  C13_18 
ROOT
HETATM    1  C5  UNL     1      23.202   2.515  51.679  1.00  0.00     0.046 A 
HETATM    2  C6  UNL     1      21.926   2.657  52.176  1.00  0.00     0.145 A 
HETATM    3  N2  UNL     1      21.237   3.811  52.228  1.00  0.00    -0.270 NA
HETATM    4  C7  UNL     1      21.792   4.970  51.764  1.00  0.00     0.130 A 
HETATM    5  C8  UNL     1      23.070   4.887  51.254  1.00  0.00     0.014 A 
HETATM    6  C18 UNL     1      23.750   3.691  51.214  1.00  0.00     0.046 A 
ENDROOT
BRANCH   5   7
HETATM    7  C9  UNL     1      23.648   6.129  50.763  1.00  0.00     0.088 A 
HETATM    8  C10 UNL     1      22.960   7.306  50.553  1.00  0.00     0.148 A 
HETATM    9  N3  UNL     1      23.539   8.431  50.097  1.00  0.00    -0.267 NA
HETATM   10  C11 UNL     1      24.848   8.455  49.821  1.00  0.00     0.166 A 
HETATM   11  C12 UNL     1      25.572   7.298  50.018  1.00  0.00     0.142 A 
HETATM   12  N5  UNL     1      24.965   6.168  50.480  1.00  0.00    -0.228 NA
BRANCH  11  13
HETATM   13  N4  UNL     1      26.966   7.292  49.734  1.00  0.00    -0.362 N 
HETATM   14  H15 UNL     1      27.646   7.538  50.509  1.00  0.00     0.162 HD
BRANCH  13  15
HETATM   15  C13 UNL     1      27.423   6.954  48.414  1.00  0.00     0.131 A 
HETATM   16  C14 UNL     1      27.837   5.507  48.418  1.00  0.00     0.004 A 
HETATM   17  C15 UNL     1      29.152   5.358  48.273  1.00  0.00     0.022 A 
HETATM   18  C16 UNL     1      29.719   6.695  48.162  1.00  0.00     0.032 A 
HETATM   19 CL1  UNL     1      31.453   6.831  47.959  1.00  0.00    -0.085 Cl
HETATM   20  C17 UNL     1      28.761   7.606  48.238  1.00  0.00     0.026 A 
ENDBRANCH  13  15
ENDBRANCH  11  13
ENDBRANCH   5   7
BRANCH   1  21
HETATM   21  N1  UNL     1      23.917   1.294  51.642  1.00  0.00    -0.389 N 
HETATM   22  H10 UNL     1      23.682   0.661  50.817  1.00  0.00     0.159 HD
BRANCH  21  23
HETATM   23  C4  UNL     1      24.896   0.803  52.547  1.00  0.00     0.120 C 
BRANCH  23  24
HETATM   24  C3  UNL     1      26.286   0.681  52.019  1.00  0.00     0.022 C 
BRANCH  24  25
HETATM   25  C2  UNL     1      27.025   2.003  52.003  1.00  0.00     0.028 C 
BRANCH  25  26
HETATM   26  C1  UNL     1      27.941   2.145  53.207  1.00  0.00     0.164 C 
BRANCH  26  27
HETATM   27  O1  UNL     1      28.978   3.038  52.951  1.00  0.00    -0.401 OA
HETATM   28  H1  UNL     1      29.758   2.707  53.465  1.00  0.00     0.209 HD
ENDBRANCH  26  27
ENDBRANCH  25  26
ENDBRANCH  24  25
ENDBRANCH  23  24
ENDBRANCH  21  23
ENDBRANCH   1  21
TORSDOF 9
ENDMDL
MODEL 7
REMARK VINA RESULT:      -6.9      3.760      7.126
REMARK  9 active torsions:
REMARK  status: ('A' for Active; 'I' for Inactive)
REMARK    1  A    between atoms: O1_1  and  C1_2 
REMARK    2  A    between atoms: C1_2  and  C2_3 
REMARK    3  A    between atoms: C2_3  and  C3_4 
REMARK    4  A    between atoms: C3_4  and  C4_5 
REMARK    5  A    between atoms: C4_5  and  N1_6 
REMARK    6  A    between atoms: N1_6  and  C5_7 
REMARK    7  A    between atoms: C8_11  and  C9_12 
REMARK    8  A    between atoms: C12_16  and  N4_17 
REMARK    9  A    between atoms: N4_17  and  C13_18 
ROOT
HETATM    1  C5  UNL     1      24.268   6.302  50.531  1.00  0.00     0.046 A 
HETATM    2  C6  UNL     1      23.747   7.577  50.473  1.00  0.00     0.145 A 
HETATM    3  N2  UNL     1      22.450   7.893  50.635  1.00  0.00    -0.270 NA
HETATM    4  C7  UNL     1      21.525   6.919  50.880  1.00  0.00     0.130 A 
HETATM    5  C8  UNL     1      21.990   5.623  50.949  1.00  0.00     0.014 A 
HETATM    6  C18 UNL     1      23.324   5.330  50.779  1.00  0.00     0.046 A 
ENDROOT
BRANCH   5   7
HETATM    7  C9  UNL     1      20.993   4.596  51.212  1.00  0.00     0.088 A 
HETATM    8  C10 UNL     1      19.749   4.517  50.622  1.00  0.00     0.148 A 
HETATM    9  N3  UNL     1      18.859   3.546  50.897  1.00  0.00    -0.267 NA
HETATM   10  C11 UNL     1      19.154   2.588  51.783  1.00  0.00     0.166 A 
HETATM   11  C12 UNL     1      20.390   2.631  52.395  1.00  0.00     0.142 A 
HETATM   12  N5  UNL     1      21.277   3.624  52.101  1.00  0.00    -0.228 NA
BRANCH  11  13
HETATM   13  N4  UNL     1      20.734   1.626  53.341  1.00  0.00    -0.362 N 
HETATM   14  H15 UNL     1      20.637   1.843  54.374  1.00  0.00     0.162 HD
BRANCH  13  15
HETATM   15  C13 UNL     1      21.200   0.346  52.883  1.00  0.00     0.131 A 
HETATM   16  C14 UNL     1      21.019  -0.646  54.000  1.00  0.00     0.004 A 
HETATM   17  C15 UNL     1      22.180  -1.060  54.501  1.00  0.00     0.022 A 
HETATM   18  C16 UNL     1      23.229  -0.376  53.756  1.00  0.00     0.032 A 
HETATM   19 CL1  UNL     1      24.891  -0.718  54.189  1.00  0.00    -0.085 Cl
HETATM   20  C17 UNL     1      22.696   0.419  52.841  1.00  0.00     0.026 A 
ENDBRANCH  13  15
ENDBRANCH  11  13
ENDBRANCH   5   7
BRANCH   1  21
HETATM   21  N1  UNL     1      25.635   5.986  50.347  1.00  0.00    -0.389 N 
HETATM   22  H10 UNL     1      26.238   6.079  51.221  1.00  0.00     0.159 HD
BRANCH  21  23
HETATM   23  C4  UNL     1      26.305   5.564  49.167  1.00  0.00     0.120 C 
BRANCH  23  24
HETATM   24  C3  UNL     1      27.004   4.247  49.236  1.00  0.00     0.022 C 
BRANCH  24  25
HETATM   25  C2  UNL     1      26.068   3.103  49.565  1.00  0.00     0.028 C 
BRANCH  25  26
HETATM   26  C1  UNL     1      26.276   2.603  50.986  1.00  0.00     0.164 C 
BRANCH  26  27
HETATM   27  O1  UNL     1      27.474   3.073  51.518  1.00  0.00    -0.401 OA
HETATM   28  H1  UNL     1      28.190   2.536  51.095  1.00  0.00     0.209 HD
ENDBRANCH  26  27
ENDBRANCH  25  26
ENDBRANCH  24  25
ENDBRANCH  23  24
ENDBRANCH  21  23
ENDBRANCH   1  21
TORSDOF 9
ENDMDL
MODEL 8
REMARK VINA RESULT:      -6.9      4.417      8.090
REMARK  9 active torsions:
REMARK  status: ('A' for Active; 'I' for Inactive)
REMARK    1  A    between atoms: O1_1  and  C1_2 
REMARK    2  A    between atoms: C1_2  and  C2_3 
REMARK    3  A    between atoms: C2_3  and  C3_4 
REMARK    4  A    between atoms: C3_4  and  C4_5 
REMARK    5  A    between atoms: C4_5  and  N1_6 
REMARK    6  A    between atoms: N1_6  and  C5_7 
REMARK    7  A    between atoms: C8_11  and  C9_12 
REMARK    8  A    between atoms: C12_16  and  N4_17 
REMARK    9  A    between atoms: N4_17  and  C13_18 
ROOT
HETATM    1  C5  UNL     1      29.301   6.273  47.732  1.00  0.00     0.046 A 
HETATM    2  C6  UNL     1      28.639   7.386  47.263  1.00  0.00     0.145 A 
HETATM    3  N2  UNL     1      27.337   7.657  47.466  1.00  0.00    -0.270 NA
HETATM    4  C7  UNL     1      26.555   6.800  48.188  1.00  0.00     0.130 A 
HETATM    5  C8  UNL     1      27.167   5.668  48.682  1.00  0.00     0.014 A 
HETATM    6  C18 UNL     1      28.501   5.417  48.458  1.00  0.00     0.046 A 
ENDROOT
BRANCH   5   7
HETATM    7  C9  UNL     1      26.321   4.765  49.449  1.00  0.00     0.088 A 
HETATM    8  C10 UNL     1      24.980   4.950  49.711  1.00  0.00     0.148 A 
HETATM    9  N3  UNL     1      24.239   4.085  50.426  1.00  0.00    -0.267 NA
HETATM   10  C11 UNL     1      24.791   2.975  50.929  1.00  0.00     0.166 A 
HETATM   11  C12 UNL     1      26.131   2.752  50.690  1.00  0.00     0.142 A 
HETATM   12  N5  UNL     1      26.863   3.643  49.962  1.00  0.00    -0.228 NA
BRANCH  11  13
HETATM   13  N4  UNL     1      26.746   1.581  51.211  1.00  0.00    -0.362 N 
HETATM   14  H15 UNL     1      27.165   0.881  50.533  1.00  0.00     0.162 HD
BRANCH  13  15
HETATM   15  C13 UNL     1      26.791   1.370  52.632  1.00  0.00     0.131 A 
HETATM   16  C14 UNL     1      27.865   2.255  53.203  1.00  0.00     0.004 A 
HETATM   17  C15 UNL     1      28.903   1.558  53.660  1.00  0.00     0.022 A 
HETATM   18  C16 UNL     1      28.602   0.152  53.428  1.00  0.00     0.032 A 
HETATM   19 CL1  UNL     1      29.795  -1.030  53.929  1.00  0.00    -0.085 Cl
HETATM   20  C17 UNL     1      27.417   0.026  52.851  1.00  0.00     0.026 A 
ENDBRANCH  13  15
ENDBRANCH  11  13
ENDBRANCH   5   7
BRANCH   1  21
HETATM   21  N1  UNL     1      30.670   5.998  47.501  1.00  0.00    -0.389 N 
HETATM   22  H10 UNL     1      31.024   6.266  46.532  1.00  0.00     0.159 HD
BRANCH  21  23
HETATM   23  C4  UNL     1      31.627   5.418  48.377  1.00  0.00     0.120 C 
BRANCH  23  24
HETATM   24  C3  UNL     1      32.762   4.693  47.735  1.00  0.00     0.022 C 
BRANCH  24  25
HETATM   25  C2  UNL     1      32.417   4.167  46.357  1.00  0.00     0.028 C 
BRANCH  25  26
HETATM   26  C1  UNL     1      33.286   4.802  45.284  1.00  0.00     0.164 C 
BRANCH  26  27
HETATM   27  O1  UNL     1      32.943   4.340  44.016  1.00  0.00    -0.401 OA
HETATM   28  H1  UNL     1      33.693   3.764  43.722  1.00  0.00     0.209 HD
ENDBRANCH  26  27
ENDBRANCH  25  26
ENDBRANCH  24  25
ENDBRANCH  23  24
ENDBRANCH  21  23
ENDBRANCH   1  21
TORSDOF 9
ENDMDL
MODEL 9
REMARK VINA RESULT:      -6.8      3.568      7.447
REMARK  9 active torsions:
REMARK  status: ('A' for Active; 'I' for Inactive)
REMARK    1  A    between atoms: O1_1  and  C1_2 
REMARK    2  A    between atoms: C1_2  and  C2_3 
REMARK    3  A    between atoms: C2_3  and  C3_4 
REMARK    4  A    between atoms: C3_4  and  C4_5 
REMARK    5  A    between atoms: C4_5  and  N1_6 
REMARK    6  A    between atoms: N1_6  and  C5_7 
REMARK    7  A    between atoms: C8_11  and  C9_12 
REMARK    8  A    between atoms: C12_16  and  N4_17 
REMARK    9  A    between atoms: N4_17  and  C13_18 
ROOT
HETATM    1  C5  UNL     1      26.513   6.863  48.468  1.00  0.00     0.046 A 
HETATM    2  C6  UNL     1      25.393   7.224  47.753  1.00  0.00     0.145 A 
HETATM    3  N2  UNL     1      24.168   6.688  47.908  1.00  0.00    -0.270 NA
HETATM    4  C7  UNL     1      23.954   5.706  48.832  1.00  0.00     0.130 A 
HETATM    5  C8  UNL     1      25.042   5.305  49.577  1.00  0.00     0.014 A 
HETATM    6  C18 UNL     1      26.283   5.871  49.396  1.00  0.00     0.046 A 
ENDROOT
BRANCH   5   7
HETATM    7  C9  UNL     1      24.798   4.257  50.558  1.00  0.00     0.088 A 
HETATM    8  C10 UNL     1      23.656   4.120  51.318  1.00  0.00     0.148 A 
HETATM    9  N3  UNL     1      23.476   3.133  52.214  1.00  0.00    -0.267 NA
HETATM   10  C11 UNL     1      24.429   2.215  52.410  1.00  0.00     0.166 A 
HETATM   11  C12 UNL     1      25.588   2.317  51.670  1.00  0.00     0.142 A 
HETATM   12  N5  UNL     1      25.749   3.326  50.767  1.00  0.00    -0.228 NA
BRANCH  11  13
HETATM   13  N4  UNL     1      26.620   1.356  51.855  1.00  0.00    -0.362 N 
HETATM   14  H15 UNL     1      27.217   1.082  51.023  1.00  0.00     0.162 HD
BRANCH  13  15
HETATM   15  C13 UNL     1      26.834   0.780  53.154  1.00  0.00     0.131 A 
HETATM   16  C14 UNL     1      28.162   1.265  53.669  1.00  0.00     0.004 A 
HETATM   17  C15 UNL     1      29.064   0.288  53.736  1.00  0.00     0.022 A 
HETATM   18  C16 UNL     1      28.407  -0.926  53.271  1.00  0.00     0.032 A 
HETATM   19 CL1  UNL     1      29.348  -2.403  53.243  1.00  0.00    -0.085 Cl
HETATM   20  C17 UNL     1      27.151  -0.669  52.940  1.00  0.00     0.026 A 
ENDBRANCH  13  15
ENDBRANCH  11  13
ENDBRANCH   5   7
BRANCH   1  21
HETATM   21  N1  UNL     1      27.798   7.429  48.285  1.00  0.00    -0.389 N 
HETATM   22  H10 UNL     1      27.933   8.387  48.731  1.00  0.00     0.159 HD
BRANCH  21  23
HETATM   23  C4  UNL     1      28.920   6.898  47.593  1.00  0.00     0.120 C 
BRANCH  23  24
HETATM   24  C3  UNL     1      29.483   5.622  48.124  1.00  0.00     0.022 C 
BRANCH  24  25
HETATM   25  C2  UNL     1      30.993   5.561  48.022  1.00  0.00     0.028 C 
BRANCH  25  26
HETATM   26  C1  UNL     1      31.660   6.144  49.258  1.00  0.00     0.164 C 
BRANCH  26  27
HETATM   27  O1  UNL     1      31.342   5.411  50.398  1.00  0.00    -0.401 OA
HETATM   28  H1  UNL     1      31.423   6.039  51.159  1.00  0.00     0.209 HD
ENDBRANCH  26  27
ENDBRANCH  25  26
ENDBRANCH  24  25
ENDBRANCH  23  24
ENDBRANCH  21  23
ENDBRANCH   1  21
TORSDOF 9
ENDMDL
