MODEL 1
REMARK VINA RESULT:      -8.1      0.000      0.000
REMARK  4 active torsions:
REMARK  status: ('A' for Active; 'I' for Inactive)
REMARK    1  A    between atoms: C3_3  and  C4_4 
REMARK    2  A    between atoms: C4_4  and  N1_5 
REMARK    3  A    between atoms: C12_14  and  N3_15 
REMARK    4  A    between atoms: N3_15  and  C13_16 
ROOT
HETATM    1  C1  UNL     1      26.431   3.521  49.455  1.00  0.00     0.112 C 
HETATM    2  C2  UNL     1      26.514   2.907  50.762  1.00  0.00    -0.109 C 
HETATM    3  C3  UNL     1      26.599   2.405  51.845  1.00  0.00    -0.087 C 
ENDROOT
BRANCH   3   4
HETATM    4  C4  UNL     1      26.706   1.786  53.170  1.00  0.00     0.221 C 
BRANCH   4   5
HETATM    5  N1  UNL     1      25.519   0.989  53.465  1.00  0.00    -0.355 N 
HETATM    6  C5  UNL     1      25.711  -0.107  54.350  1.00  0.00     0.092 A 
HETATM    7  C6  UNL     1      24.757  -0.945  54.737  1.00  0.00     0.030 A 
HETATM    8  C7  UNL     1      23.435  -0.665  54.176  1.00  0.00    -0.010 A 
HETATM    9  C8  UNL     1      22.461  -1.475  54.536  1.00  0.00    -0.012 A 
HETATM   10  C19 UNL     1      23.241   0.468  53.263  1.00  0.00     0.019 A 
HETATM   11  C9  UNL     1      21.256  -1.288  54.077  1.00  0.00     0.038 A 
HETATM   12  C10 UNL     1      20.978  -0.186  53.166  1.00  0.00     0.073 A 
HETATM   13  C11 UNL     1      19.640  -0.008  52.680  1.00  0.00     0.102 C 
HETATM   14  C12 UNL     1      21.900   0.694  52.738  1.00  0.00     0.066 A 
HETATM   15  N2  UNL     1      18.538   0.118  52.286  1.00  0.00    -0.191 NA
HETATM   16  C20 UNL     1      24.236   1.265  52.918  1.00  0.00     0.106 A 
BRANCH  14  17
HETATM   17  N3  UNL     1      21.619   1.754  51.857  1.00  0.00    -0.354 N 
HETATM   18  H9  UNL     1      21.075   2.372  52.489  1.00  0.00     0.166 HD
BRANCH  17  19
HETATM   19  C13 UNL     1      21.895   2.075  50.502  1.00  0.00     0.033 A 
HETATM   20  C14 UNL     1      21.638   1.085  49.575  1.00  0.00     0.029 A 
HETATM   21  C15 UNL     1      21.901   1.376  48.254  1.00  0.00     0.004 A 
HETATM   22  C16 UNL     1      22.393   2.610  47.939  1.00  0.00     0.019 A 
HETATM   23  C17 UNL     1      22.668   3.634  48.816  1.00  0.00     0.013 A 
HETATM   24 BR1  UNL     1      23.353   5.338  48.345  1.00  0.00    -0.051 Br
HETATM   25  C18 UNL     1      22.391   3.309  50.150  1.00  0.00     0.048 A 
ENDBRANCH  17  19
ENDBRANCH  14  17
ENDBRANCH   4   5
ENDBRANCH   3   4
TORSDOF 4
ENDMDL
MODEL 2
REMARK VINA RESULT:      -8.0      2.657      4.307
REMARK  4 active torsions:
REMARK  status: ('A' for Active; 'I' for Inactive)
REMARK    1  A    between atoms: C3_3  and  C4_4 
REMARK    2  A    between atoms: C4_4  and  N1_5 
REMARK    3  A    between atoms: C12_14  and  N3_15 
REMARK    4  A    between atoms: N3_15  and  C13_16 
ROOT
HETATM    1  C1  UNL     1      22.049   3.723  47.315  1.00  0.00     0.112 C 
HETATM    2  C2  UNL     1      23.046   3.976  48.332  1.00  0.00    -0.109 C 
HETATM    3  C3  UNL     1      23.860   4.178  49.185  1.00  0.00    -0.087 C 
ENDROOT
BRANCH   3   4
HETATM    4  C4  UNL     1      24.854   4.428  50.233  1.00  0.00     0.221 C 
BRANCH   4   5
HETATM    5  N1  UNL     1      25.059   3.233  51.047  1.00  0.00    -0.355 N 
HETATM    6  C5  UNL     1      26.397   2.759  51.130  1.00  0.00     0.092 A 
HETATM    7  C6  UNL     1      26.782   1.691  51.817  1.00  0.00     0.030 A 
HETATM    8  C7  UNL     1      25.702   0.996  52.519  1.00  0.00    -0.010 A 
HETATM    9  C8  UNL     1      26.045  -0.070  53.213  1.00  0.00    -0.012 A 
HETATM   10  C19 UNL     1      24.323   1.488  52.432  1.00  0.00     0.019 A 
HETATM   11  C9  UNL     1      25.137  -0.741  53.865  1.00  0.00     0.038 A 
HETATM   12  C10 UNL     1      23.743  -0.318  53.830  1.00  0.00     0.073 A 
HETATM   13  C11 UNL     1      22.770  -1.080  54.559  1.00  0.00     0.102 C 
HETATM   14  C12 UNL     1      23.292   0.751  53.153  1.00  0.00     0.066 A 
HETATM   15  N2  UNL     1      21.985  -1.720  55.158  1.00  0.00    -0.191 NA
HETATM   16  C20 UNL     1      24.007   2.560  51.727  1.00  0.00     0.106 A 
BRANCH  14  17
HETATM   17  N3  UNL     1      21.943   1.148  53.127  1.00  0.00    -0.354 N 
HETATM   18  H9  UNL     1      21.944   1.836  53.904  1.00  0.00     0.166 HD
BRANCH  17  19
HETATM   19  C13 UNL     1      20.786   0.835  52.367  1.00  0.00     0.033 A 
HETATM   20  C14 UNL     1      20.734   1.356  51.089  1.00  0.00     0.029 A 
HETATM   21  C15 UNL     1      19.618   1.065  50.335  1.00  0.00     0.004 A 
HETATM   22  C16 UNL     1      18.640   0.288  50.884  1.00  0.00     0.019 A 
HETATM   23  C17 UNL     1      18.635  -0.259  52.146  1.00  0.00     0.013 A 
HETATM   24 BR1  UNL     1      17.257  -1.336  52.880  1.00  0.00    -0.051 Br
HETATM   25  C18 UNL     1      19.781   0.054  52.889  1.00  0.00     0.048 A 
ENDBRANCH  17  19
ENDBRANCH  14  17
ENDBRANCH   4   5
ENDBRANCH   3   4
TORSDOF 4
ENDMDL
MODEL 3
REMARK VINA RESULT:      -7.6      1.930      4.899
REMARK  4 active torsions:
REMARK  status: ('A' for Active; 'I' for Inactive)
REMARK    1  A    between atoms: C3_3  and  C4_4 
REMARK    2  A    between atoms: C4_4  and  N1_5 
REMARK    3  A    between atoms: C12_14  and  N3_15 
REMARK    4  A    between atoms: N3_15  and  C13_16 
ROOT
HETATM    1  C1  UNL     1      18.097   0.829  49.953  1.00  0.00     0.112 C 
HETATM    2  C2  UNL     1      18.579   0.294  51.207  1.00  0.00    -0.109 C 
HETATM    3  C3  UNL     1      18.975  -0.133  52.252  1.00  0.00    -0.087 C 
ENDROOT
BRANCH   3   4
HETATM    4  C4  UNL     1      19.464  -0.653  53.533  1.00  0.00     0.221 C 
BRANCH   4   5
HETATM    5  N1  UNL     1      20.919  -0.553  53.609  1.00  0.00    -0.355 N 
HETATM    6  C5  UNL     1      21.550  -1.381  54.577  1.00  0.00     0.092 A 
HETATM    7  C6  UNL     1      22.858  -1.430  54.796  1.00  0.00     0.030 A 
HETATM    8  C7  UNL     1      23.652  -0.544  53.944  1.00  0.00    -0.010 A 
HETATM    9  C8  UNL     1      24.955  -0.564  54.132  1.00  0.00    -0.012 A 
HETATM   10  C19 UNL     1      22.998   0.309  52.946  1.00  0.00     0.019 A 
HETATM   11  C9  UNL     1      25.729   0.198  53.411  1.00  0.00     0.038 A 
HETATM   12  C10 UNL     1      25.158   1.075  52.397  1.00  0.00     0.073 A 
HETATM   13  C11 UNL     1      26.037   1.901  51.621  1.00  0.00     0.102 C 
HETATM   14  C12 UNL     1      23.844   1.170  52.129  1.00  0.00     0.066 A 
HETATM   15  N2  UNL     1      26.774   2.576  50.997  1.00  0.00    -0.191 NA
HETATM   16  C20 UNL     1      21.687   0.310  52.779  1.00  0.00     0.106 A 
BRANCH  14  17
HETATM   17  N3  UNL     1      23.306   2.021  51.147  1.00  0.00    -0.354 N 
HETATM   18  H9  UNL     1      23.443   1.431  50.304  1.00  0.00     0.166 HD
BRANCH  17  19
HETATM   19  C13 UNL     1      22.715   3.311  51.107  1.00  0.00     0.033 A 
HETATM   20  C14 UNL     1      21.335   3.353  51.146  1.00  0.00     0.029 A 
HETATM   21  C15 UNL     1      20.741   4.595  51.105  1.00  0.00     0.004 A 
HETATM   22  C16 UNL     1      21.538   5.701  51.031  1.00  0.00     0.019 A 
HETATM   23  C17 UNL     1      22.913   5.723  50.989  1.00  0.00     0.013 A 
HETATM   24 BR1  UNL     1      23.991   7.280  50.885  1.00  0.00    -0.051 Br
HETATM   25  C18 UNL     1      23.488   4.446  51.032  1.00  0.00     0.048 A 
ENDBRANCH  17  19
ENDBRANCH  14  17
ENDBRANCH   4   5
ENDBRANCH   3   4
TORSDOF 4
ENDMDL
MODEL 4
REMARK VINA RESULT:      -7.4      1.922      2.720
REMARK  4 active torsions:
REMARK  status: ('A' for Active; 'I' for Inactive)
REMARK    1  A    between atoms: C3_3  and  C4_4 
REMARK    2  A    between atoms: C4_4  and  N1_5 
REMARK    3  A    between atoms: C12_14  and  N3_15 
REMARK    4  A    between atoms: N3_15  and  C13_16 
ROOT
HETATM    1  C1  UNL     1      30.116  -1.013  53.607  1.00  0.00     0.112 C 
HETATM    2  C2  UNL     1      29.135   0.050  53.576  1.00  0.00    -0.109 C 
HETATM    3  C3  UNL     1      28.335   0.938  53.541  1.00  0.00    -0.087 C 
ENDROOT
BRANCH   3   4
HETATM    4  C4  UNL     1      27.356   2.030  53.500  1.00  0.00     0.221 C 
BRANCH   4   5
HETATM    5  N1  UNL     1      25.995   1.502  53.465  1.00  0.00    -0.355 N 
HETATM    6  C5  UNL     1      25.822   0.192  53.990  1.00  0.00     0.092 A 
HETATM    7  C6  UNL     1      24.665  -0.456  54.044  1.00  0.00     0.030 A 
HETATM    8  C7  UNL     1      23.524   0.287  53.509  1.00  0.00    -0.010 A 
HETATM    9  C8  UNL     1      22.358  -0.323  53.545  1.00  0.00    -0.012 A 
HETATM   10  C19 UNL     1      23.706   1.639  52.969  1.00  0.00     0.019 A 
HETATM   11  C9  UNL     1      21.295   0.276  53.088  1.00  0.00     0.038 A 
HETATM   12  C10 UNL     1      21.390   1.621  52.534  1.00  0.00     0.073 A 
HETATM   13  C11 UNL     1      20.201   2.252  52.038  1.00  0.00     0.102 C 
HETATM   14  C12 UNL     1      22.530   2.328  52.451  1.00  0.00     0.066 A 
HETATM   15  N2  UNL     1      19.215   2.751  51.631  1.00  0.00    -0.191 NA
HETATM   16  C20 UNL     1      24.889   2.228  52.944  1.00  0.00     0.106 A 
BRANCH  14  17
HETATM   17  N3  UNL     1      22.608   3.625  51.914  1.00  0.00    -0.354 N 
HETATM   18  H9  UNL     1      22.306   4.178  52.738  1.00  0.00     0.166 HD
BRANCH  17  19
HETATM   19  C13 UNL     1      22.963   4.211  50.670  1.00  0.00     0.033 A 
HETATM   20  C14 UNL     1      21.982   4.221  49.698  1.00  0.00     0.029 A 
HETATM   21  C15 UNL     1      22.306   4.784  48.482  1.00  0.00     0.004 A 
HETATM   22  C16 UNL     1      23.561   5.294  48.309  1.00  0.00     0.019 A 
HETATM   23  C17 UNL     1      24.576   5.313  49.237  1.00  0.00     0.013 A 
HETATM   24 BR1  UNL     1      26.311   6.030  48.964  1.00  0.00    -0.051 Br
HETATM   25  C18 UNL     1      24.217   4.734  50.462  1.00  0.00     0.048 A 
ENDBRANCH  17  19
ENDBRANCH  14  17
ENDBRANCH   4   5
ENDBRANCH   3   4
TORSDOF 4
ENDMDL
MODEL 5
REMARK VINA RESULT:      -7.4      1.635      4.596
REMARK  4 active torsions:
REMARK  status: ('A' for Active; 'I' for Inactive)
REMARK    1  A    between atoms: C3_3  and  C4_4 
REMARK    2  A    between atoms: C4_4  and  N1_5 
REMARK    3  A    between atoms: C12_14  and  N3_15 
REMARK    4  A    between atoms: N3_15  and  C13_16 
ROOT
HETATM    1  C1  UNL     1      22.492   3.719  48.207  1.00  0.00     0.112 C 
HETATM    2  C2  UNL     1      21.442   2.937  48.821  1.00  0.00    -0.109 C 
HETATM    3  C3  UNL     1      20.580   2.275  49.321  1.00  0.00    -0.087 C 
ENDROOT
BRANCH   3   4
HETATM    4  C4  UNL     1      19.521   1.464  49.930  1.00  0.00     0.221 C 
BRANCH   4   5
HETATM    5  N1  UNL     1      20.027   0.747  51.097  1.00  0.00    -0.355 N 
HETATM    6  C5  UNL     1      19.069  -0.010  51.826  1.00  0.00     0.092 A 
HETATM    7  C6  UNL     1      19.335  -0.726  52.911  1.00  0.00     0.030 A 
HETATM    8  C7  UNL     1      20.735  -0.692  53.336  1.00  0.00    -0.010 A 
HETATM    9  C8  UNL     1      21.038  -1.391  54.410  1.00  0.00    -0.012 A 
HETATM   10  C19 UNL     1      21.721   0.089  52.582  1.00  0.00     0.019 A 
HETATM   11  C9  UNL     1      22.265  -1.410  54.849  1.00  0.00     0.038 A 
HETATM   12  C10 UNL     1      23.306  -0.660  54.157  1.00  0.00     0.073 A 
HETATM   13  C11 UNL     1      24.646  -0.702  54.667  1.00  0.00     0.102 C 
HETATM   14  C12 UNL     1      23.100   0.083  53.056  1.00  0.00     0.066 A 
HETATM   15  N2  UNL     1      25.739  -0.744  55.103  1.00  0.00    -0.191 NA
HETATM   16  C20 UNL     1      21.389   0.782  51.507  1.00  0.00     0.106 A 
BRANCH  14  17
HETATM   17  N3  UNL     1      24.112   0.802  52.398  1.00  0.00    -0.354 N 
HETATM   18  H9  UNL     1      24.814   0.048  52.270  1.00  0.00     0.166 HD
BRANCH  17  19
HETATM   19  C13 UNL     1      24.314   2.136  51.954  1.00  0.00     0.033 A 
HETATM   20  C14 UNL     1      23.518   3.101  52.537  1.00  0.00     0.029 A 
HETATM   21  C15 UNL     1      23.696   4.402  52.120  1.00  0.00     0.004 A 
HETATM   22  C16 UNL     1      24.639   4.661  51.166  1.00  0.00     0.019 A 
HETATM   23  C17 UNL     1      25.459   3.745  50.550  1.00  0.00     0.013 A 
HETATM   24 BR1  UNL     1      26.759   4.138  49.226  1.00  0.00    -0.051 Br
HETATM   25  C18 UNL     1      25.255   2.432  50.995  1.00  0.00     0.048 A 
ENDBRANCH  17  19
ENDBRANCH  14  17
ENDBRANCH   4   5
ENDBRANCH   3   4
TORSDOF 4
ENDMDL
MODEL 6
REMARK VINA RESULT:      -7.4      2.100      5.445
REMARK  4 active torsions:
REMARK  status: ('A' for Active; 'I' for Inactive)
REMARK    1  A    between atoms: C3_3  and  C4_4 
REMARK    2  A    between atoms: C4_4  and  N1_5 
REMARK    3  A    between atoms: C12_14  and  N3_15 
REMARK    4  A    between atoms: N3_15  and  C13_16 
ROOT
HETATM    1  C1  UNL     1      22.250   5.716  46.998  1.00  0.00     0.112 C 
HETATM    2  C2  UNL     1      21.836   4.479  47.625  1.00  0.00    -0.109 C 
HETATM    3  C3  UNL     1      21.482   3.455  48.131  1.00  0.00    -0.087 C 
ENDROOT
BRANCH   3   4
HETATM    4  C4  UNL     1      21.043   2.201  48.752  1.00  0.00     0.221 C 
BRANCH   4   5
HETATM    5  N1  UNL     1      21.893   1.864  49.890  1.00  0.00    -0.355 N 
HETATM    6  C5  UNL     1      21.270   1.130  50.936  1.00  0.00     0.092 A 
HETATM    7  C6  UNL     1      21.876   0.733  52.049  1.00  0.00     0.030 A 
HETATM    8  C7  UNL     1      23.287   1.109  52.143  1.00  0.00    -0.010 A 
HETATM    9  C8  UNL     1      23.922   0.733  53.233  1.00  0.00    -0.012 A 
HETATM   10  C19 UNL     1      23.927   1.866  51.061  1.00  0.00     0.019 A 
HETATM   11  C9  UNL     1      25.182   1.031  53.387  1.00  0.00     0.038 A 
HETATM   12  C10 UNL     1      25.892   1.780  52.359  1.00  0.00     0.073 A 
HETATM   13  C11 UNL     1      27.277   2.092  52.562  1.00  0.00     0.102 C 
HETATM   14  C12 UNL     1      25.335   2.211  51.214  1.00  0.00     0.066 A 
HETATM   15  N2  UNL     1      28.412   2.344  52.747  1.00  0.00    -0.191 NA
HETATM   16  C20 UNL     1      23.265   2.232  49.977  1.00  0.00     0.106 A 
BRANCH  14  17
HETATM   17  N3  UNL     1      26.031   2.934  50.230  1.00  0.00    -0.354 N 
HETATM   18  H9  UNL     1      26.568   2.163  49.787  1.00  0.00     0.166 HD
BRANCH  17  19
HETATM   19  C13 UNL     1      26.119   4.286  49.806  1.00  0.00     0.033 A 
HETATM   20  C14 UNL     1      27.159   4.593  48.952  1.00  0.00     0.029 A 
HETATM   21  C15 UNL     1      27.264   5.901  48.530  1.00  0.00     0.004 A 
HETATM   22  C16 UNL     1      26.345   6.808  48.973  1.00  0.00     0.019 A 
HETATM   23  C17 UNL     1      25.290   6.563  49.821  1.00  0.00     0.013 A 
HETATM   24 BR1  UNL     1      24.030   7.848  50.419  1.00  0.00    -0.051 Br
HETATM   25  C18 UNL     1      25.210   5.226  50.233  1.00  0.00     0.048 A 
ENDBRANCH  17  19
ENDBRANCH  14  17
ENDBRANCH   4   5
ENDBRANCH   3   4
TORSDOF 4
ENDMDL
MODEL 7
REMARK VINA RESULT:      -7.4      2.193      3.395
REMARK  4 active torsions:
REMARK  status: ('A' for Active; 'I' for Inactive)
REMARK    1  A    between atoms: C3_3  and  C4_4 
REMARK    2  A    between atoms: C4_4  and  N1_5 
REMARK    3  A    between atoms: C12_14  and  N3_15 
REMARK    4  A    between atoms: N3_15  and  C13_16 
ROOT
HETATM    1  C1  UNL     1      30.167  -1.022  53.831  1.00  0.00     0.112 C 
HETATM    2  C2  UNL     1      29.213   0.046  53.625  1.00  0.00    -0.109 C 
HETATM    3  C3  UNL     1      28.435   0.936  53.444  1.00  0.00    -0.087 C 
ENDROOT
BRANCH   3   4
HETATM    4  C4  UNL     1      27.485   2.031  53.223  1.00  0.00     0.221 C 
BRANCH   4   5
HETATM    5  N1  UNL     1      26.138   1.510  53.005  1.00  0.00    -0.355 N 
HETATM    6  C5  UNL     1      25.685   0.546  53.946  1.00  0.00     0.092 A 
HETATM    7  C6  UNL     1      24.495  -0.042  53.915  1.00  0.00     0.030 A 
HETATM    8  C7  UNL     1      23.636   0.377  52.808  1.00  0.00    -0.010 A 
HETATM    9  C8  UNL     1      22.447  -0.184  52.744  1.00  0.00    -0.012 A 
HETATM   10  C19 UNL     1      24.107   1.373  51.839  1.00  0.00     0.019 A 
HETATM   11  C9  UNL     1      21.625   0.140  51.785  1.00  0.00     0.038 A 
HETATM   12  C10 UNL     1      22.015   1.122  50.782  1.00  0.00     0.073 A 
HETATM   13  C11 UNL     1      21.087   1.455  49.741  1.00  0.00     0.102 C 
HETATM   14  C12 UNL     1      23.204   1.750  50.758  1.00  0.00     0.066 A 
HETATM   15  N2  UNL     1      20.314   1.712  48.890  1.00  0.00    -0.191 NA
HETATM   16  C20 UNL     1      25.306   1.921  51.927  1.00  0.00     0.106 A 
BRANCH  14  17
HETATM   17  N3  UNL     1      23.569   2.695  49.784  1.00  0.00    -0.354 N 
HETATM   18  H9  UNL     1      23.685   2.070  48.963  1.00  0.00     0.166 HD
BRANCH  17  19
HETATM   19  C13 UNL     1      23.772   4.099  49.728  1.00  0.00     0.033 A 
HETATM   20  C14 UNL     1      25.023   4.521  49.326  1.00  0.00     0.029 A 
HETATM   21  C15 UNL     1      25.242   5.880  49.267  1.00  0.00     0.004 A 
HETATM   22  C16 UNL     1      24.223   6.723  49.604  1.00  0.00     0.019 A 
HETATM   23  C17 UNL     1      22.958   6.364  50.011  1.00  0.00     0.013 A 
HETATM   24 BR1  UNL     1      21.563   7.563  50.473  1.00  0.00    -0.051 Br
HETATM   25  C18 UNL     1      22.767   4.977  50.061  1.00  0.00     0.048 A 
ENDBRANCH  17  19
ENDBRANCH  14  17
ENDBRANCH   4   5
ENDBRANCH   3   4
TORSDOF 4
ENDMDL
MODEL 8
REMARK VINA RESULT:      -7.3      2.637      4.996
REMARK  4 active torsions:
REMARK  status: ('A' for Active; 'I' for Inactive)
REMARK    1  A    between atoms: C3_3  and  C4_4 
REMARK    2  A    between atoms: C4_4  and  N1_5 
REMARK    3  A    between atoms: C12_14  and  N3_15 
REMARK    4  A    between atoms: N3_15  and  C13_16 
ROOT
HETATM    1  C1  UNL     1      29.434  -0.029  53.463  1.00  0.00     0.112 C 
HETATM    2  C2  UNL     1      28.217   0.704  53.735  1.00  0.00    -0.109 C 
HETATM    3  C3  UNL     1      27.219   1.325  53.960  1.00  0.00    -0.087 C 
ENDROOT
BRANCH   3   4
HETATM    4  C4  UNL     1      25.998   2.087  54.240  1.00  0.00     0.221 C 
BRANCH   4   5
HETATM    5  N1  UNL     1      25.055   1.976  53.132  1.00  0.00    -0.355 N 
HETATM    6  C5  UNL     1      24.250   0.804  53.115  1.00  0.00     0.092 A 
HETATM    7  C6  UNL     1      23.338   0.523  52.193  1.00  0.00     0.030 A 
HETATM    8  C7  UNL     1      23.200   1.534  51.144  1.00  0.00    -0.010 A 
HETATM    9  C8  UNL     1      22.305   1.291  50.210  1.00  0.00    -0.012 A 
HETATM   10  C19 UNL     1      24.031   2.743  51.165  1.00  0.00     0.019 A 
HETATM   11  C9  UNL     1      22.124   2.147  49.244  1.00  0.00     0.038 A 
HETATM   12  C10 UNL     1      22.909   3.373  49.191  1.00  0.00     0.073 A 
HETATM   13  C11 UNL     1      22.685   4.293  48.113  1.00  0.00     0.102 C 
HETATM   14  C12 UNL     1      23.846   3.713  50.092  1.00  0.00     0.066 A 
HETATM   15  N2  UNL     1      22.491   5.034  47.218  1.00  0.00    -0.191 NA
HETATM   16  C20 UNL     1      24.923   2.962  52.115  1.00  0.00     0.106 A 
BRANCH  14  17
HETATM   17  N3  UNL     1      24.597   4.900  50.030  1.00  0.00    -0.354 N 
HETATM   18  H9  UNL     1      24.028   5.505  50.653  1.00  0.00     0.166 HD
BRANCH  17  19
HETATM   19  C13 UNL     1      25.781   5.343  49.384  1.00  0.00     0.033 A 
HETATM   20  C14 UNL     1      26.769   4.395  49.201  1.00  0.00     0.029 A 
HETATM   21  C15 UNL     1      27.927   4.805  48.578  1.00  0.00     0.004 A 
HETATM   22  C16 UNL     1      28.033   6.106  48.180  1.00  0.00     0.019 A 
HETATM   23  C17 UNL     1      27.087   7.093  48.334  1.00  0.00     0.013 A 
HETATM   24 BR1  UNL     1      27.266   8.895  47.770  1.00  0.00    -0.051 Br
HETATM   25  C18 UNL     1      25.921   6.647  48.971  1.00  0.00     0.048 A 
ENDBRANCH  17  19
ENDBRANCH  14  17
ENDBRANCH   4   5
ENDBRANCH   3   4
TORSDOF 4
ENDMDL
MODEL 9
REMARK VINA RESULT:      -7.3      2.992      5.839
REMARK  4 active torsions:
REMARK  status: ('A' for Active; 'I' for Inactive)
REMARK    1  A    between atoms: C3_3  and  C4_4 
REMARK    2  A    between atoms: C4_4  and  N1_5 
REMARK    3  A    between atoms: C12_14  and  N3_15 
REMARK    4  A    between atoms: N3_15  and  C13_16 
ROOT
HETATM    1  C1  UNL     1      21.867   8.098  50.066  1.00  0.00     0.112 C 
HETATM    2  C2  UNL     1      22.741   6.951  49.962  1.00  0.00    -0.109 C 
HETATM    3  C3  UNL     1      23.461   6.001  49.858  1.00  0.00    -0.087 C 
ENDROOT
BRANCH   3   4
HETATM    4  C4  UNL     1      24.339   4.834  49.731  1.00  0.00     0.221 C 
BRANCH   4   5
HETATM    5  N1  UNL     1      23.699   3.643  50.282  1.00  0.00    -0.355 N 
HETATM    6  C5  UNL     1      22.525   3.202  49.613  1.00  0.00     0.092 A 
HETATM    7  C6  UNL     1      21.805   2.144  49.963  1.00  0.00     0.030 A 
HETATM    8  C7  UNL     1      22.311   1.421  51.130  1.00  0.00    -0.010 A 
HETATM    9  C8  UNL     1      21.623   0.364  51.509  1.00  0.00    -0.012 A 
HETATM   10  C19 UNL     1      23.524   1.878  51.817  1.00  0.00     0.019 A 
HETATM   11  C9  UNL     1      22.013  -0.331  52.540  1.00  0.00     0.038 A 
HETATM   12  C10 UNL     1      23.208   0.055  53.278  1.00  0.00     0.073 A 
HETATM   13  C11 UNL     1      23.610  -0.732  54.409  1.00  0.00     0.102 C 
HETATM   14  C12 UNL     1      23.978   1.115  52.974  1.00  0.00     0.066 A 
HETATM   15  N2  UNL     1      23.921  -1.386  55.337  1.00  0.00    -0.191 NA
HETATM   16  C20 UNL     1      24.195   2.943  51.416  1.00  0.00     0.106 A 
BRANCH  14  17
HETATM   17  N3  UNL     1      25.129   1.478  53.695  1.00  0.00    -0.354 N 
HETATM   18  H9  UNL     1      24.697   2.049  54.447  1.00  0.00     0.166 HD
BRANCH  17  19
HETATM   19  C13 UNL     1      26.526   1.246  53.600  1.00  0.00     0.033 A 
HETATM   20  C14 UNL     1      27.334   2.366  53.613  1.00  0.00     0.029 A 
HETATM   21  C15 UNL     1      28.694   2.163  53.519  1.00  0.00     0.004 A 
HETATM   22  C16 UNL     1      29.161   0.884  53.421  1.00  0.00     0.019 A 
HETATM   23  C17 UNL     1      28.408  -0.267  53.402  1.00  0.00     0.013 A 
HETATM   24 BR1  UNL     1      29.090  -2.032  53.263  1.00  0.00    -0.051 Br
HETATM   25  C18 UNL     1      27.031  -0.029  53.499  1.00  0.00     0.048 A 
ENDBRANCH  17  19
ENDBRANCH  14  17
ENDBRANCH   4   5
ENDBRANCH   3   4
TORSDOF 4
ENDMDL
