MODEL 1
REMARK VINA RESULT:      -8.1      0.000      0.000
REMARK  4 active torsions:
REMARK  status: ('A' for Active; 'I' for Inactive)
REMARK    1  A    between atoms: N1_1  and  O1_2 
REMARK    2  A    between atoms: O1_2  and  C1_3 
REMARK    3  A    between atoms: N2_6  and  C4_7 
REMARK    4  A    between atoms: C12_18  and  C13_19 
ROOT
HETATM    1  C4  UNL     1      32.216   6.589  46.888  1.00  0.00     0.136 A 
HETATM    2  N3  UNL     1      31.258   5.917  47.449  1.00  0.00    -0.245 NA
HETATM    3  C5  UNL     1      31.193   4.481  47.298  1.00  0.00     0.117 A 
HETATM    4  C6  UNL     1      32.196   4.051  46.549  1.00  0.00     0.037 A 
HETATM    5  C7  UNL     1      33.357   4.725  45.842  1.00  0.00     0.217 A 
HETATM    6  C8  UNL     1      34.579   3.907  46.135  1.00  0.00     0.119 C 
HETATM    7  C9  UNL     1      34.517   3.446  47.555  1.00  0.00     0.099 C 
HETATM    8  F1  UNL     1      34.082   2.205  47.920  1.00  0.00    -0.211 F 
HETATM    9  C10 UNL     1      34.841   4.070  48.710  1.00  0.00     0.082 C 
HETATM   10  C11 UNL     1      35.370   5.459  48.822  1.00  0.00     0.143 C 
HETATM   11  F2  UNL     1      36.101   5.708  49.957  1.00  0.00    -0.204 F 
HETATM   12  C12 UNL     1      35.260   6.541  48.017  1.00  0.00     0.074 C 
HETATM   13  N4  UNL     1      34.563   6.703  46.762  1.00  0.00    -0.368 N 
HETATM   14  C14 UNL     1      33.411   6.169  46.049  1.00  0.00     0.159 A 
HETATM   15  C15 UNL     1      33.322   6.805  44.707  1.00  0.00     0.193 C 
HETATM   16  O2  UNL     1      34.553   6.833  44.065  1.00  0.00    -0.381 OA
HETATM   17  C16 UNL     1      34.272   6.852  42.689  1.00  0.00     0.170 C 
HETATM   18  C17 UNL     1      33.106   5.913  42.471  1.00  0.00     0.064 C 
HETATM   19  C18 UNL     1      32.596   5.750  43.903  1.00  0.00     0.255 C 
HETATM   20  N5  UNL     1      33.036   4.496  44.422  1.00  0.00     0.107 N 
HETATM   21  H15 UNL     1      35.088   7.463  46.224  1.00  0.00     0.161 HD
HETATM   22  H22 UNL     1      32.283   3.796  44.297  1.00  0.00     0.318 HD
ENDROOT
BRANCH   1  23
HETATM   23  N2  UNL     1      31.991   7.966  47.225  1.00  0.00    -0.367 N 
HETATM   24  C3  UNL     1      31.538   9.089  46.421  1.00  0.00     0.127 C 
HETATM   25  C2  UNL     1      30.753  10.034  47.309  1.00  0.00     0.054 C 
HETATM   26  C1  UNL     1      29.928   9.190  48.249  1.00  0.00     0.148 C 
HETATM   27  C20 UNL     1      30.862   8.494  49.238  1.00  0.00     0.054 C 
HETATM   28  C19 UNL     1      32.231   8.433  48.600  1.00  0.00     0.127 C 
BRANCH  26  29
HETATM   29  O1  UNL     1      29.015   9.968  48.972  1.00  0.00    -0.303 OA
BRANCH  29  30
HETATM   30  N1  UNL     1      28.617   9.283  50.075  1.00  0.00    -0.215 NA
HETATM   31  H1  UNL     1      29.488   9.004  50.583  1.00  0.00     0.150 HD
HETATM   32  H2  UNL     1      28.172   8.379  49.750  1.00  0.00     0.150 HD
ENDBRANCH  29  30
ENDBRANCH  26  29
ENDBRANCH   1  23
BRANCH  12  33
HETATM   33  C13 UNL     1      35.977   7.753  48.545  1.00  0.00     0.282 C 
HETATM   34  F3  UNL     1      35.393   8.883  48.026  1.00  0.00    -0.249 F 
ENDBRANCH  12  33
TORSDOF 4
ENDMDL
MODEL 2
REMARK VINA RESULT:      -8.0     11.720     14.257
REMARK  4 active torsions:
REMARK  status: ('A' for Active; 'I' for Inactive)
REMARK    1  A    between atoms: N1_1  and  O1_2 
REMARK    2  A    between atoms: O1_2  and  C1_3 
REMARK    3  A    between atoms: N2_6  and  C4_7 
REMARK    4  A    between atoms: C12_18  and  C13_19 
ROOT
HETATM    1  C4  UNL     1      21.055   1.434  51.425  1.00  0.00     0.136 A 
HETATM    2  N3  UNL     1      21.505   0.428  50.739  1.00  0.00    -0.245 NA
HETATM    3  C5  UNL     1      21.374   0.415  49.300  1.00  0.00     0.117 A 
HETATM    4  C6  UNL     1      20.765   1.514  48.883  1.00  0.00     0.037 A 
HETATM    5  C7  UNL     1      20.195   2.738  49.573  1.00  0.00     0.217 A 
HETATM    6  C8  UNL     1      20.653   3.932  48.791  1.00  0.00     0.119 C 
HETATM    7  C9  UNL     1      22.063   3.704  48.352  1.00  0.00     0.099 C 
HETATM    8  F1  UNL     1      22.395   3.254  47.106  1.00  0.00    -0.211 F 
HETATM    9  C10 UNL     1      23.238   3.867  49.002  1.00  0.00     0.082 C 
HETATM   10  C11 UNL     1      23.388   4.346  50.406  1.00  0.00     0.143 C 
HETATM   11  F2  UNL     1      24.600   4.923  50.691  1.00  0.00    -0.204 F 
HETATM   12  C12 UNL     1      22.555   4.313  51.472  1.00  0.00     0.074 C 
HETATM   13  N4  UNL     1      21.220   3.775  51.596  1.00  0.00    -0.368 N 
HETATM   14  C14 UNL     1      20.380   2.733  51.022  1.00  0.00     0.159 A 
HETATM   15  C15 UNL     1      19.024   2.798  51.634  1.00  0.00     0.193 C 
HETATM   16  O2  UNL     1      18.540   4.099  51.682  1.00  0.00    -0.381 OA
HETATM   17  C16 UNL     1      17.140   3.992  51.672  1.00  0.00     0.170 C 
HETATM   18  C17 UNL     1      16.796   2.884  50.701  1.00  0.00     0.064 C 
HETATM   19  C18 UNL     1      18.157   2.202  50.548  1.00  0.00     0.255 C 
HETATM   20  N5  UNL     1      18.750   2.603  49.314  1.00  0.00     0.107 N 
HETATM   21  H15 UNL     1      20.737   4.345  52.360  1.00  0.00     0.161 HD
HETATM   22  H22 UNL     1      18.546   1.887  48.593  1.00  0.00     0.318 HD
ENDROOT
BRANCH   1  23
HETATM   23  N2  UNL     1      21.335   1.137  52.802  1.00  0.00    -0.367 N 
HETATM   24  C3  UNL     1      20.457   1.007  53.953  1.00  0.00     0.127 C 
HETATM   25  C2  UNL     1      21.053  -0.012  54.903  1.00  0.00     0.054 C 
HETATM   26  C1  UNL     1      21.636  -1.124  54.066  1.00  0.00     0.148 C 
HETATM   27  C20 UNL     1      22.862  -0.595  53.324  1.00  0.00     0.054 C 
HETATM   28  C19 UNL     1      22.722   0.907  53.235  1.00  0.00     0.127 C 
BRANCH  26  29
HETATM   29  O1  UNL     1      22.029  -2.211  54.857  1.00  0.00    -0.303 OA
BRANCH  29  30
HETATM   30  N1  UNL     1      22.976  -1.804  55.741  1.00  0.00    -0.215 NA
HETATM   31  H1  UNL     1      22.635  -0.903  56.148  1.00  0.00     0.150 HD
HETATM   32  H2  UNL     1      23.847  -1.557  55.190  1.00  0.00     0.150 HD
ENDBRANCH  29  30
ENDBRANCH  26  29
ENDBRANCH   1  23
BRANCH  12  33
HETATM   33  C13 UNL     1      23.145   4.930  52.709  1.00  0.00     0.282 C 
HETATM   34  F3  UNL     1      23.940   4.004  53.339  1.00  0.00    -0.249 F 
ENDBRANCH  12  33
TORSDOF 4
ENDMDL
MODEL 3
REMARK VINA RESULT:      -7.5     10.361     13.000
REMARK  4 active torsions:
REMARK  status: ('A' for Active; 'I' for Inactive)
REMARK    1  A    between atoms: N1_1  and  O1_2 
REMARK    2  A    between atoms: O1_2  and  C1_3 
REMARK    3  A    between atoms: N2_6  and  C4_7 
REMARK    4  A    between atoms: C12_18  and  C13_19 
ROOT
HETATM    1  C4  UNL     1      22.094   2.960  51.879  1.00  0.00     0.136 A 
HETATM    2  N3  UNL     1      21.609   4.072  52.340  1.00  0.00    -0.245 NA
HETATM    3  C5  UNL     1      22.455   5.238  52.463  1.00  0.00     0.117 A 
HETATM    4  C6  UNL     1      23.684   4.959  52.059  1.00  0.00     0.037 A 
HETATM    5  C7  UNL     1      24.366   3.719  51.515  1.00  0.00     0.217 A 
HETATM    6  C8  UNL     1      25.182   4.152  50.335  1.00  0.00     0.119 C 
HETATM    7  C9  UNL     1      24.410   5.180  49.572  1.00  0.00     0.099 C 
HETATM    8  F1  UNL     1      24.616   6.523  49.708  1.00  0.00    -0.211 F 
HETATM    9  C10 UNL     1      23.424   5.056  48.655  1.00  0.00     0.082 C 
HETATM   10  C11 UNL     1      22.851   3.767  48.172  1.00  0.00     0.143 C 
HETATM   11  F2  UNL     1      22.274   3.823  46.929  1.00  0.00    -0.204 F 
HETATM   12  C12 UNL     1      22.778   2.538  48.733  1.00  0.00     0.074 C 
HETATM   13  N4  UNL     1      23.236   2.072  50.023  1.00  0.00    -0.368 N 
HETATM   14  C14 UNL     1      23.472   2.574  51.369  1.00  0.00     0.159 A 
HETATM   15  C15 UNL     1      24.023   1.480  52.214  1.00  0.00     0.193 C 
HETATM   16  O2  UNL     1      25.041   0.790  51.568  1.00  0.00    -0.381 OA
HETATM   17  C16 UNL     1      25.856   0.261  52.582  1.00  0.00     0.170 C 
HETATM   18  C17 UNL     1      25.959   1.324  53.654  1.00  0.00     0.064 C 
HETATM   19  C18 UNL     1      24.805   2.247  53.256  1.00  0.00     0.255 C 
HETATM   20  N5  UNL     1      25.327   3.392  52.584  1.00  0.00     0.107 N 
HETATM   21  H15 UNL     1      23.451   1.033  49.906  1.00  0.00     0.161 HD
HETATM   22  H22 UNL     1      25.432   4.165  53.267  1.00  0.00     0.318 HD
ENDROOT
BRANCH   1  23
HETATM   23  N2  UNL     1      21.012   2.017  51.888  1.00  0.00    -0.367 N 
HETATM   24  C3  UNL     1      20.674   0.936  50.976  1.00  0.00     0.127 C 
HETATM   25  C2  UNL     1      20.003  -0.171  51.766  1.00  0.00     0.054 C 
HETATM   26  C1  UNL     1      20.719  -0.280  53.090  1.00  0.00     0.148 C 
HETATM   27  C20 UNL     1      20.413   0.964  53.922  1.00  0.00     0.054 C 
HETATM   28  C19 UNL     1      20.010   2.061  52.964  1.00  0.00     0.127 C 
BRANCH  26  29
HETATM   29  O1  UNL     1      20.305  -1.408  53.808  1.00  0.00    -0.303 OA
BRANCH  29  30
HETATM   30  N1  UNL     1      21.110  -1.573  54.888  1.00  0.00    -0.215 NA
HETATM   31  H1  UNL     1      21.870  -2.230  54.596  1.00  0.00     0.150 HD
HETATM   32  H2  UNL     1      20.555  -2.088  55.629  1.00  0.00     0.150 HD
ENDBRANCH  29  30
ENDBRANCH  26  29
ENDBRANCH   1  23
BRANCH  12  33
HETATM   33  C13 UNL     1      22.100   1.521  47.858  1.00  0.00     0.282 C 
HETATM   34  F3  UNL     1      20.739   1.690  47.943  1.00  0.00    -0.249 F 
ENDBRANCH  12  33
TORSDOF 4
ENDMDL
MODEL 4
REMARK VINA RESULT:      -7.4      9.536     11.805
REMARK  4 active torsions:
REMARK  status: ('A' for Active; 'I' for Inactive)
REMARK    1  A    between atoms: N1_1  and  O1_2 
REMARK    2  A    between atoms: O1_2  and  C1_3 
REMARK    3  A    between atoms: N2_6  and  C4_7 
REMARK    4  A    between atoms: C12_18  and  C13_19 
ROOT
HETATM    1  C4  UNL     1      21.482   4.410  50.457  1.00  0.00     0.136 A 
HETATM    2  N3  UNL     1      20.538   4.511  51.342  1.00  0.00    -0.245 NA
HETATM    3  C5  UNL     1      19.498   3.508  51.412  1.00  0.00     0.117 A 
HETATM    4  C6  UNL     1      19.690   2.582  50.486  1.00  0.00     0.037 A 
HETATM    5  C7  UNL     1      20.732   2.359  49.407  1.00  0.00     0.217 A 
HETATM    6  C8  UNL     1      21.120   0.913  49.468  1.00  0.00     0.119 C 
HETATM    7  C9  UNL     1      21.185   0.495  50.902  1.00  0.00     0.099 C 
HETATM    8  F1  UNL     1      20.169  -0.159  51.537  1.00  0.00    -0.211 F 
HETATM    9  C10 UNL     1      22.158   0.640  51.830  1.00  0.00     0.082 C 
HETATM   10  C11 UNL     1      23.475   1.300  51.604  1.00  0.00     0.143 C 
HETATM   11  F2  UNL     1      24.474   0.898  52.455  1.00  0.00    -0.204 F 
HETATM   12  C12 UNL     1      23.882   2.239  50.719  1.00  0.00     0.074 C 
HETATM   13  N4  UNL     1      23.142   2.931  49.688  1.00  0.00    -0.368 N 
HETATM   14  C14 UNL     1      21.786   3.370  49.393  1.00  0.00     0.159 A 
HETATM   15  C15 UNL     1      21.755   4.012  48.050  1.00  0.00     0.193 C 
HETATM   16  O2  UNL     1      22.438   3.260  47.102  1.00  0.00    -0.381 OA
HETATM   17  C16 UNL     1      21.857   3.578  45.864  1.00  0.00     0.170 C 
HETATM   18  C17 UNL     1      20.366   3.686  46.098  1.00  0.00     0.064 C 
HETATM   19  C18 UNL     1      20.322   3.788  47.624  1.00  0.00     0.255 C 
HETATM   20  N5  UNL     1      19.947   2.525  48.171  1.00  0.00     0.107 N 
HETATM   21  H15 UNL     1      23.852   3.184  48.930  1.00  0.00     0.161 HD
HETATM   22  H22 UNL     1      18.927   2.525  48.351  1.00  0.00     0.318 HD
ENDROOT
BRANCH   1  23
HETATM   23  N2  UNL     1      22.336   5.548  50.651  1.00  0.00    -0.367 N 
HETATM   24  C3  UNL     1      23.418   5.786  51.592  1.00  0.00     0.127 C 
HETATM   25  C2  UNL     1      24.439   6.694  50.935  1.00  0.00     0.054 C 
HETATM   26  C1  UNL     1      24.557   6.271  49.491  1.00  0.00     0.148 C 
HETATM   27  C20 UNL     1      23.264   6.631  48.762  1.00  0.00     0.054 C 
HETATM   28  C19 UNL     1      22.173   6.739  49.803  1.00  0.00     0.127 C 
BRANCH  26  29
HETATM   29  O1  UNL     1      25.623   6.916  48.852  1.00  0.00    -0.303 OA
BRANCH  29  30
HETATM   30  N1  UNL     1      26.695   6.945  49.686  1.00  0.00    -0.215 NA
HETATM   31  H1  UNL     1      27.244   7.798  49.435  1.00  0.00     0.150 HD
HETATM   32  H2  UNL     1      27.316   6.122  49.442  1.00  0.00     0.150 HD
ENDBRANCH  29  30
ENDBRANCH  26  29
ENDBRANCH   1  23
BRANCH  12  33
HETATM   33  C13 UNL     1      25.332   2.607  50.863  1.00  0.00     0.282 C 
HETATM   34  F3  UNL     1      25.779   3.146  49.681  1.00  0.00    -0.249 F 
ENDBRANCH  12  33
TORSDOF 4
ENDMDL
MODEL 5
REMARK VINA RESULT:      -7.1      9.750     12.300
REMARK  4 active torsions:
REMARK  status: ('A' for Active; 'I' for Inactive)
REMARK    1  A    between atoms: N1_1  and  O1_2 
REMARK    2  A    between atoms: O1_2  and  C1_3 
REMARK    3  A    between atoms: N2_6  and  C4_7 
REMARK    4  A    between atoms: C12_18  and  C13_19 
ROOT
HETATM    1  C4  UNL     1      23.016   3.513  49.054  1.00  0.00     0.136 A 
HETATM    2  N3  UNL     1      22.810   2.775  48.007  1.00  0.00    -0.245 NA
HETATM    3  C5  UNL     1      22.072   1.538  48.123  1.00  0.00     0.117 A 
HETATM    4  C6  UNL     1      21.701   1.339  49.378  1.00  0.00     0.037 A 
HETATM    5  C7  UNL     1      21.882   2.109  50.672  1.00  0.00     0.217 A 
HETATM    6  C8  UNL     1      20.552   2.119  51.363  1.00  0.00     0.119 C 
HETATM    7  C9  UNL     1      19.481   2.297  50.336  1.00  0.00     0.099 C 
HETATM    8  F1  UNL     1      18.761   1.258  49.818  1.00  0.00    -0.211 F 
HETATM    9  C10 UNL     1      19.004   3.406  49.727  1.00  0.00     0.082 C 
HETATM   10  C11 UNL     1      19.483   4.796  49.968  1.00  0.00     0.143 C 
HETATM   11  F2  UNL     1      18.570   5.779  49.676  1.00  0.00    -0.204 F 
HETATM   12  C12 UNL     1      20.662   5.287  50.416  1.00  0.00     0.074 C 
HETATM   13  N4  UNL     1      21.873   4.599  50.801  1.00  0.00    -0.368 N 
HETATM   14  C14 UNL     1      22.598   3.371  50.508  1.00  0.00     0.159 A 
HETATM   15  C15 UNL     1      23.812   3.297  51.367  1.00  0.00     0.193 C 
HETATM   16  O2  UNL     1      23.529   3.609  52.690  1.00  0.00    -0.381 OA
HETATM   17  C16 UNL     1      24.496   2.944  53.461  1.00  0.00     0.170 C 
HETATM   18  C17 UNL     1      24.698   1.586  52.826  1.00  0.00     0.064 C 
HETATM   19  C18 UNL     1      24.045   1.807  51.460  1.00  0.00     0.255 C 
HETATM   20  N5  UNL     1      22.749   1.210  51.456  1.00  0.00     0.107 N 
HETATM   21  H15 UNL     1      22.355   5.223  51.522  1.00  0.00     0.161 HD
HETATM   22  H22 UNL     1      22.814   0.265  51.038  1.00  0.00     0.318 HD
ENDROOT
BRANCH   1  23
HETATM   23  N2  UNL     1      23.769   4.649  48.604  1.00  0.00    -0.367 N 
HETATM   24  C3  UNL     1      23.370   5.828  47.853  1.00  0.00     0.127 C 
HETATM   25  C2  UNL     1      24.232   6.995  48.292  1.00  0.00     0.054 C 
HETATM   26  C1  UNL     1      24.421   6.881  49.785  1.00  0.00     0.148 C 
HETATM   27  C20 UNL     1      25.309   5.674  50.081  1.00  0.00     0.054 C 
HETATM   28  C19 UNL     1      25.208   4.737  48.898  1.00  0.00     0.127 C 
BRANCH  26  29
HETATM   29  O1  UNL     1      25.032   8.024  50.315  1.00  0.00    -0.303 OA
BRANCH  29  30
HETATM   30  N1  UNL     1      26.255   7.693  50.802  1.00  0.00    -0.215 NA
HETATM   31  H1  UNL     1      26.151   6.757  51.258  1.00  0.00     0.150 HD
HETATM   32  H2  UNL     1      26.484   8.369  51.585  1.00  0.00     0.150 HD
ENDBRANCH  29  30
ENDBRANCH  26  29
ENDBRANCH   1  23
BRANCH  12  33
HETATM   33  C13 UNL     1      20.689   6.788  50.504  1.00  0.00     0.282 C 
HETATM   34  F3  UNL     1      21.586   7.166  51.474  1.00  0.00    -0.249 F 
ENDBRANCH  12  33
TORSDOF 4
ENDMDL
MODEL 6
REMARK VINA RESULT:      -7.0      9.833     12.489
REMARK  4 active torsions:
REMARK  status: ('A' for Active; 'I' for Inactive)
REMARK    1  A    between atoms: N1_1  and  O1_2 
REMARK    2  A    between atoms: O1_2  and  C1_3 
REMARK    3  A    between atoms: N2_6  and  C4_7 
REMARK    4  A    between atoms: C12_18  and  C13_19 
ROOT
HETATM    1  C4  UNL     1      22.939   3.378  49.452  1.00  0.00     0.136 A 
HETATM    2  N3  UNL     1      24.049   2.844  49.042  1.00  0.00    -0.245 NA
HETATM    3  C5  UNL     1      25.278   3.077  49.765  1.00  0.00     0.117 A 
HETATM    4  C6  UNL     1      25.057   3.863  50.807  1.00  0.00     0.037 A 
HETATM    5  C7  UNL     1      23.830   4.545  51.380  1.00  0.00     0.217 A 
HETATM    6  C8  UNL     1      23.856   4.316  52.861  1.00  0.00     0.119 C 
HETATM    7  C9  UNL     1      24.333   2.925  53.122  1.00  0.00     0.099 C 
HETATM    8  F1  UNL     1      25.624   2.626  53.452  1.00  0.00    -0.211 F 
HETATM    9  C10 UNL     1      23.682   1.740  53.102  1.00  0.00     0.082 C 
HETATM   10  C11 UNL     1      22.236   1.555  52.791  1.00  0.00     0.143 C 
HETATM   11  F2  UNL     1      21.675   0.417  53.315  1.00  0.00    -0.204 F 
HETATM   12  C12 UNL     1      21.359   2.294  52.073  1.00  0.00     0.074 C 
HETATM   13  N4  UNL     1      21.554   3.529  51.348  1.00  0.00    -0.368 N 
HETATM   14  C14 UNL     1      22.602   4.256  50.646  1.00  0.00     0.159 A 
HETATM   15  C15 UNL     1      22.064   5.558  50.166  1.00  0.00     0.193 C 
HETATM   16  O2  UNL     1      21.340   6.214  51.153  1.00  0.00    -0.381 OA
HETATM   17  C16 UNL     1      21.421   7.582  50.850  1.00  0.00     0.170 C 
HETATM   18  C17 UNL     1      22.835   7.839  50.378  1.00  0.00     0.064 C 
HETATM   19  C18 UNL     1      23.310   6.411  50.101  1.00  0.00     0.255 C 
HETATM   20  N5  UNL     1      24.138   5.972  51.176  1.00  0.00     0.107 N 
HETATM   21  H15 UNL     1      20.609   4.029  51.349  1.00  0.00     0.161 HD
HETATM   22  H22 UNL     1      25.130   6.127  50.923  1.00  0.00     0.318 HD
ENDROOT
BRANCH   1  23
HETATM   23  N2  UNL     1      21.926   2.959  48.526  1.00  0.00    -0.367 N 
HETATM   24  C3  UNL     1      20.478   3.092  48.563  1.00  0.00     0.127 C 
HETATM   25  C2  UNL     1      19.969   3.225  47.141  1.00  0.00     0.054 C 
HETATM   26  C1  UNL     1      20.950   4.091  46.389  1.00  0.00     0.148 C 
HETATM   27  C20 UNL     1      22.256   3.319  46.210  1.00  0.00     0.054 C 
HETATM   28  C19 UNL     1      22.307   2.261  47.289  1.00  0.00     0.127 C 
BRANCH  26  29
HETATM   29  O1  UNL     1      20.462   4.439  45.123  1.00  0.00    -0.303 OA
BRANCH  29  30
HETATM   30  N1  UNL     1      21.104   3.705  44.178  1.00  0.00    -0.215 NA
HETATM   31  H1  UNL     1      21.213   4.326  43.343  1.00  0.00     0.150 HD
HETATM   32  H2  UNL     1      20.450   2.928  43.874  1.00  0.00     0.150 HD
ENDBRANCH  29  30
ENDBRANCH  26  29
ENDBRANCH   1  23
BRANCH  12  33
HETATM   33  C13 UNL     1      19.975   1.707  52.034  1.00  0.00     0.282 C 
HETATM   34  F3  UNL     1      19.900   0.801  51.003  1.00  0.00    -0.249 F 
ENDBRANCH  12  33
TORSDOF 4
ENDMDL
MODEL 7
REMARK VINA RESULT:      -7.0      3.414      5.566
REMARK  4 active torsions:
REMARK  status: ('A' for Active; 'I' for Inactive)
REMARK    1  A    between atoms: N1_1  and  O1_2 
REMARK    2  A    between atoms: O1_2  and  C1_3 
REMARK    3  A    between atoms: N2_6  and  C4_7 
REMARK    4  A    between atoms: C12_18  and  C13_19 
ROOT
HETATM    1  C4  UNL     1      30.381   8.897  46.282  1.00  0.00     0.136 A 
HETATM    2  N3  UNL     1      30.665   8.638  45.043  1.00  0.00    -0.245 NA
HETATM    3  C5  UNL     1      31.685   9.400  44.358  1.00  0.00     0.117 A 
HETATM    4  C6  UNL     1      32.200  10.312  45.167  1.00  0.00     0.037 A 
HETATM    5  C7  UNL     1      31.952  10.712  46.609  1.00  0.00     0.217 A 
HETATM    6  C8  UNL     1      33.297  10.871  47.253  1.00  0.00     0.119 C 
HETATM    7  C9  UNL     1      34.201   9.795  46.745  1.00  0.00     0.099 C 
HETATM    8  F1  UNL     1      35.101   9.989  45.737  1.00  0.00    -0.211 F 
HETATM    9  C10 UNL     1      34.344   8.502  47.114  1.00  0.00     0.082 C 
HETATM   10  C11 UNL     1      33.570   7.821  48.189  1.00  0.00     0.143 C 
HETATM   11  F2  UNL     1      34.192   6.731  48.746  1.00  0.00    -0.204 F 
HETATM   12  C12 UNL     1      32.351   8.063  48.725  1.00  0.00     0.074 C 
HETATM   13  N4  UNL     1      31.378   9.082  48.406  1.00  0.00    -0.368 N 
HETATM   14  C14 UNL     1      30.944   9.896  47.279  1.00  0.00     0.159 A 
HETATM   15  C15 UNL     1      29.862  10.817  47.722  1.00  0.00     0.193 C 
HETATM   16  O2  UNL     1      30.176  11.445  48.920  1.00  0.00    -0.381 OA
HETATM   17  C16 UNL     1      29.466  12.656  48.920  1.00  0.00     0.170 C 
HETATM   18  C17 UNL     1      29.540  13.203  47.512  1.00  0.00     0.064 C 
HETATM   19  C18 UNL     1      30.001  11.963  46.745  1.00  0.00     0.255 C 
HETATM   20  N5  UNL     1      31.397  12.070  46.469  1.00  0.00     0.107 N 
HETATM   21  H15 UNL     1      30.824   9.259  49.303  1.00  0.00     0.161 HD
HETATM   22  H22 UNL     1      31.524  12.450  45.514  1.00  0.00     0.318 HD
ENDROOT
BRANCH   1  23
HETATM   23  N2  UNL     1      29.342   7.979  46.655  1.00  0.00    -0.367 N 
HETATM   24  C3  UNL     1      29.390   6.713  47.368  1.00  0.00     0.127 C 
HETATM   25  C2  UNL     1      28.104   6.552  48.155  1.00  0.00     0.054 C 
HETATM   26  C1  UNL     1      27.745   7.906  48.716  1.00  0.00     0.148 C 
HETATM   27  C20 UNL     1      27.327   8.823  47.568  1.00  0.00     0.054 C 
HETATM   28  C19 UNL     1      27.944   8.272  46.302  1.00  0.00     0.127 C 
BRANCH  26  29
HETATM   29  O1  UNL     1      26.684   7.820  49.626  1.00  0.00    -0.303 OA
BRANCH  29  30
HETATM   30  N1  UNL     1      26.970   8.572  50.720  1.00  0.00    -0.215 NA
HETATM   31  H1  UNL     1      27.345   7.916  51.443  1.00  0.00     0.150 HD
HETATM   32  H2  UNL     1      26.054   8.935  51.111  1.00  0.00     0.150 HD
ENDBRANCH  29  30
ENDBRANCH  26  29
ENDBRANCH   1  23
BRANCH  12  33
HETATM   33  C13 UNL     1      31.973   7.095  49.812  1.00  0.00     0.282 C 
HETATM   34  F3  UNL     1      31.699   5.872  49.251  1.00  0.00    -0.249 F 
ENDBRANCH  12  33
TORSDOF 4
ENDMDL
MODEL 8
REMARK VINA RESULT:      -6.9      2.687      4.448
REMARK  4 active torsions:
REMARK  status: ('A' for Active; 'I' for Inactive)
REMARK    1  A    between atoms: N1_1  and  O1_2 
REMARK    2  A    between atoms: O1_2  and  C1_3 
REMARK    3  A    between atoms: N2_6  and  C4_7 
REMARK    4  A    between atoms: C12_18  and  C13_19 
ROOT
HETATM    1  C4  UNL     1      33.695   7.535  47.110  1.00  0.00     0.136 A 
HETATM    2  N3  UNL     1      34.637   7.233  47.951  1.00  0.00    -0.245 NA
HETATM    3  C5  UNL     1      34.498   6.082  48.814  1.00  0.00     0.117 A 
HETATM    4  C6  UNL     1      33.341   5.478  48.594  1.00  0.00     0.037 A 
HETATM    5  C7  UNL     1      32.173   5.732  47.660  1.00  0.00     0.217 A 
HETATM    6  C8  UNL     1      31.803   4.411  47.056  1.00  0.00     0.119 C 
HETATM    7  C9  UNL     1      33.056   3.651  46.765  1.00  0.00     0.099 C 
HETATM    8  F1  UNL     1      33.555   2.686  47.593  1.00  0.00    -0.211 F 
HETATM    9  C10 UNL     1      33.919   3.716  45.726  1.00  0.00     0.082 C 
HETATM   10  C11 UNL     1      33.794   4.631  44.557  1.00  0.00     0.143 C 
HETATM   11  F2  UNL     1      34.428   4.202  43.418  1.00  0.00    -0.204 F 
HETATM   12  C12 UNL     1      33.177   5.825  44.399  1.00  0.00     0.074 C 
HETATM   13  N4  UNL     1      32.432   6.623  45.346  1.00  0.00    -0.368 N 
HETATM   14  C14 UNL     1      32.366   6.879  46.778  1.00  0.00     0.159 A 
HETATM   15  C15 UNL     1      31.259   7.835  47.058  1.00  0.00     0.193 C 
HETATM   16  O2  UNL     1      30.095   7.490  46.384  1.00  0.00    -0.381 OA
HETATM   17  C16 UNL     1      29.037   8.014  47.144  1.00  0.00     0.170 C 
HETATM   18  C17 UNL     1      29.395   7.794  48.597  1.00  0.00     0.064 C 
HETATM   19  C18 UNL     1      30.889   7.484  48.481  1.00  0.00     0.255 C 
HETATM   20  N5  UNL     1      31.088   6.076  48.598  1.00  0.00     0.107 N 
HETATM   21  H15 UNL     1      31.727   7.186  44.775  1.00  0.00     0.161 HD
HETATM   22  H22 UNL     1      31.332   5.850  49.579  1.00  0.00     0.318 HD
ENDROOT
BRANCH   1  23
HETATM   23  N2  UNL     1      34.137   8.713  46.420  1.00  0.00    -0.367 N 
HETATM   24  C3  UNL     1      34.504   8.930  45.030  1.00  0.00     0.127 C 
HETATM   25  C2  UNL     1      34.140  10.352  44.650  1.00  0.00     0.054 C 
HETATM   26  C1  UNL     1      32.821  10.672  45.309  1.00  0.00     0.148 C 
HETATM   27  C20 UNL     1      33.033  10.769  46.819  1.00  0.00     0.054 C 
HETATM   28  C19 UNL     1      34.280   9.982  47.152  1.00  0.00     0.127 C 
BRANCH  26  29
HETATM   29  O1  UNL     1      32.301  11.890  44.854  1.00  0.00    -0.303 OA
BRANCH  29  30
HETATM   30  N1  UNL     1      31.702  12.536  45.887  1.00  0.00    -0.215 NA
HETATM   31  H1  UNL     1      31.347  13.443  45.505  1.00  0.00     0.150 HD
HETATM   32  H2  UNL     1      32.454  12.794  46.586  1.00  0.00     0.150 HD
ENDBRANCH  29  30
ENDBRANCH  26  29
ENDBRANCH   1  23
BRANCH  12  33
HETATM   33  C13 UNL     1      33.316   6.391  43.013  1.00  0.00     0.282 C 
HETATM   34  F3  UNL     1      32.275   5.943  42.237  1.00  0.00    -0.249 F 
ENDBRANCH  12  33
TORSDOF 4
ENDMDL
MODEL 9
REMARK VINA RESULT:      -6.8      4.108      6.665
REMARK  4 active torsions:
REMARK  status: ('A' for Active; 'I' for Inactive)
REMARK    1  A    between atoms: N1_1  and  O1_2 
REMARK    2  A    between atoms: O1_2  and  C1_3 
REMARK    3  A    between atoms: N2_6  and  C4_7 
REMARK    4  A    between atoms: C12_18  and  C13_19 
ROOT
HETATM    1  C4  UNL     1      30.180   8.988  46.425  1.00  0.00     0.136 A 
HETATM    2  N3  UNL     1      29.319   8.809  45.470  1.00  0.00    -0.245 NA
HETATM    3  C5  UNL     1      28.027   8.229  45.758  1.00  0.00     0.117 A 
HETATM    4  C6  UNL     1      27.924   7.948  47.047  1.00  0.00     0.037 A 
HETATM    5  C7  UNL     1      28.846   8.100  48.242  1.00  0.00     0.217 A 
HETATM    6  C8  UNL     1      28.023   8.674  49.356  1.00  0.00     0.119 C 
HETATM    7  C9  UNL     1      27.091   9.693  48.786  1.00  0.00     0.099 C 
HETATM    8  F1  UNL     1      25.785   9.428  48.487  1.00  0.00    -0.211 F 
HETATM    9  C10 UNL     1      27.280  10.991  48.457  1.00  0.00     0.082 C 
HETATM   10  C11 UNL     1      28.560  11.741  48.606  1.00  0.00     0.143 C 
HETATM   11  F2  UNL     1      28.420  13.102  48.719  1.00  0.00    -0.204 F 
HETATM   12  C12 UNL     1      29.851  11.338  48.641  1.00  0.00     0.074 C 
HETATM   13  N4  UNL     1      30.418  10.013  48.530  1.00  0.00    -0.368 N 
HETATM   14  C14 UNL     1      30.126   8.724  47.920  1.00  0.00     0.159 A 
HETATM   15  C15 UNL     1      31.190   7.750  48.289  1.00  0.00     0.193 C 
HETATM   16  O2  UNL     1      31.487   7.799  49.645  1.00  0.00    -0.381 OA
HETATM   17  C16 UNL     1      31.978   6.527  49.980  1.00  0.00     0.170 C 
HETATM   18  C17 UNL     1      31.134   5.523  49.227  1.00  0.00     0.064 C 
HETATM   19  C18 UNL     1      30.459   6.430  48.197  1.00  0.00     0.255 C 
HETATM   20  N5  UNL     1      29.120   6.699  48.609  1.00  0.00     0.107 N 
HETATM   21  H15 UNL     1      31.337  10.034  49.074  1.00  0.00     0.161 HD
HETATM   22  H22 UNL     1      28.481   6.036  48.134  1.00  0.00     0.318 HD
ENDROOT
BRANCH   1  23
HETATM   23  N2  UNL     1      31.342   9.569  45.814  1.00  0.00    -0.367 N 
HETATM   24  C3  UNL     1      31.888  10.915  45.878  1.00  0.00     0.127 C 
HETATM   25  C2  UNL     1      33.397  10.831  45.758  1.00  0.00     0.054 C 
HETATM   26  C1  UNL     1      33.846   9.622  46.541  1.00  0.00     0.148 C 
HETATM   27  C20 UNL     1      33.378   8.361  45.817  1.00  0.00     0.054 C 
HETATM   28  C19 UNL     1      32.203   8.749  44.948  1.00  0.00     0.127 C 
BRANCH  26  29
HETATM   29  O1  UNL     1      35.240   9.575  46.659  1.00  0.00    -0.303 OA
BRANCH  29  30
HETATM   30  N1  UNL     1      35.783   9.279  45.450  1.00  0.00    -0.215 NA
HETATM   31  H1  UNL     1      34.984   9.124  44.795  1.00  0.00     0.150 HD
HETATM   32  H2  UNL     1      36.271   8.342  45.536  1.00  0.00     0.150 HD
ENDBRANCH  29  30
ENDBRANCH  26  29
ENDBRANCH   1  23
BRANCH  12  33
HETATM   33  C13 UNL     1      30.825  12.470  48.812  1.00  0.00     0.282 C 
HETATM   34  F3  UNL     1      30.827  12.867  50.128  1.00  0.00    -0.249 F 
ENDBRANCH  12  33
TORSDOF 4
ENDMDL
