MODEL 1
REMARK VINA RESULT:      -8.3      0.000      0.000
REMARK  6 active torsions:
REMARK  status: ('A' for Active; 'I' for Inactive)
REMARK    1  A    between atoms: C2_2  and  C3_4 
REMARK    2  A    between atoms: C4_6  and  C5_7 
REMARK    3  A    between atoms: C8_10  and  C9_11 
REMARK    4  A    between atoms: C9_11  and  N1_12 
REMARK    5  A    between atoms: C13_16  and  O1_17 
REMARK    6  A    between atoms: O1_17  and  C14_18 
ROOT
HETATM    1  C5  UNL     1      25.867   2.118  53.736  1.00  0.00     0.087 C 
HETATM    2  C6  UNL     1      24.699   1.463  53.377  1.00  0.00     0.038 C 
HETATM    3  C7  UNL     1      23.575   0.886  52.972  1.00  0.00     0.036 C 
HETATM    4  C8  UNL     1      22.382   0.197  52.634  1.00  0.00    -0.029 C 
HETATM    5  C10 UNL     1      21.550   0.328  51.586  1.00  0.00     0.009 C 
HETATM    6  C11 UNL     1      21.615   1.193  50.424  1.00  0.00    -0.001 C 
HETATM    7  C12 UNL     1      22.460   2.068  49.915  1.00  0.00     0.010 C 
HETATM    8  C13 UNL     1      23.756   2.652  50.179  1.00  0.00     0.185 C 
HETATM    9  C19 UNL     1      24.151   2.985  51.547  1.00  0.00     0.125 C 
HETATM   10  N3  UNL     1      24.486   2.675  52.684  1.00  0.00    -0.266 NA
ENDROOT
BRANCH   8  11
HETATM   11  O1  UNL     1      24.281   3.504  49.193  1.00  0.00    -0.371 OA
BRANCH  11  12
HETATM   12  C14 UNL     1      24.772   4.661  49.722  1.00  0.00     0.126 C 
HETATM   13  C15 UNL     1      26.066   5.198  49.199  1.00  0.00     0.051 C 
HETATM   14  C16 UNL     1      26.158   6.665  49.662  1.00  0.00     0.116 C 
HETATM   15  N2  UNL     1      25.426   6.875  50.868  1.00  0.00    -0.421 N 
HETATM   16  C17 UNL     1      24.005   6.697  50.813  1.00  0.00     0.116 C 
HETATM   17  H20 UNL     1      25.892   6.537  51.726  1.00  0.00     0.153 HD
HETATM   18  C18 UNL     1      23.728   5.782  49.603  1.00  0.00     0.051 C 
ENDBRANCH  11  12
ENDBRANCH   8  11
BRANCH   4  19
HETATM   19  C9  UNL     1      22.251  -0.759  53.747  1.00  0.00     0.305 C 
BRANCH  19  20
HETATM   20  N1  UNL     1      21.165  -0.478  54.649  1.00  0.00     0.082 N 
HETATM   21  H9  UNL     1      21.546  -0.706  55.616  1.00  0.00     0.313 HD
HETATM   22  H10 UNL     1      20.332  -1.059  54.524  1.00  0.00     0.313 HD
ENDBRANCH  19  20
ENDBRANCH   4  19
BRANCH   1  23
HETATM   23  C4  UNL     1      27.206   1.508  53.405  1.00  0.00     0.002 C 
HETATM   24  C3  UNL     1      27.531   0.483  54.225  1.00  0.00     0.041 C 
HETATM   25 CL1  UNL     1      26.397  -0.034  55.482  1.00  0.00    -0.086 Cl
BRANCH  24  26
HETATM   26  C2  UNL     1      28.820  -0.144  53.944  1.00  0.00     0.107 A 
HETATM   27  C1  UNL     1      29.940  -0.846  53.592  1.00  0.00     0.304 A 
HETATM   28  F1  UNL     1      28.588  -1.276  53.173  1.00  0.00    -0.394 F 
ENDBRANCH  24  26
ENDBRANCH   1  23
TORSDOF 6
ENDMDL
MODEL 2
REMARK VINA RESULT:      -7.6      2.672      3.635
REMARK  6 active torsions:
REMARK  status: ('A' for Active; 'I' for Inactive)
REMARK    1  A    between atoms: C2_2  and  C3_4 
REMARK    2  A    between atoms: C4_6  and  C5_7 
REMARK    3  A    between atoms: C8_10  and  C9_11 
REMARK    4  A    between atoms: C9_11  and  N1_12 
REMARK    5  A    between atoms: C13_16  and  O1_17 
REMARK    6  A    between atoms: O1_17  and  C14_18 
ROOT
HETATM    1  C5  UNL     1      22.098   0.264  53.938  1.00  0.00     0.087 C 
HETATM    2  C6  UNL     1      20.845  -0.070  53.445  1.00  0.00     0.038 C 
HETATM    3  C7  UNL     1      19.659  -0.337  52.916  1.00  0.00     0.036 C 
HETATM    4  C8  UNL     1      18.373  -0.699  52.439  1.00  0.00    -0.029 C 
HETATM    5  C10 UNL     1      17.693  -0.315  51.344  1.00  0.00     0.009 C 
HETATM    6  C11 UNL     1      18.064   0.571  50.257  1.00  0.00    -0.001 C 
HETATM    7  C12 UNL     1      19.134   1.242  49.879  1.00  0.00     0.010 C 
HETATM    8  C13 UNL     1      20.502   1.482  50.282  1.00  0.00     0.185 C 
HETATM    9  C19 UNL     1      20.840   1.636  51.696  1.00  0.00     0.125 C 
HETATM   10  N3  UNL     1      20.988   1.193  52.830  1.00  0.00    -0.266 NA
ENDROOT
BRANCH   8  11
HETATM   11  O1  UNL     1      21.300   2.234  49.404  1.00  0.00    -0.371 OA
BRANCH  11  12
HETATM   12  C14 UNL     1      22.145   3.073  50.068  1.00  0.00     0.126 C 
HETATM   13  C15 UNL     1      23.611   2.990  49.782  1.00  0.00     0.051 C 
HETATM   14  C16 UNL     1      24.246   4.280  50.338  1.00  0.00     0.116 C 
HETATM   15  N2  UNL     1      23.487   4.803  51.427  1.00  0.00    -0.421 N 
HETATM   16  C17 UNL     1      22.158   5.257  51.144  1.00  0.00     0.116 C 
HETATM   17  H20 UNL     1      23.616   4.310  52.326  1.00  0.00     0.153 HD
HETATM   18  C18 UNL     1      21.718   4.533  49.855  1.00  0.00     0.051 C 
ENDBRANCH  11  12
ENDBRANCH   8  11
BRANCH   4  19
HETATM   19  C9  UNL     1      17.920  -1.653  53.465  1.00  0.00     0.305 C 
BRANCH  19  20
HETATM   20  N1  UNL     1      16.641  -2.256  53.195  1.00  0.00     0.082 N 
HETATM   21  H9  UNL     1      16.227  -1.677  52.404  1.00  0.00     0.313 HD
HETATM   22  H10 UNL     1      15.968  -2.216  53.965  1.00  0.00     0.313 HD
ENDBRANCH  19  20
ENDBRANCH   4  19
BRANCH   1  23
HETATM   23  C4  UNL     1      23.279  -0.632  53.664  1.00  0.00     0.002 C 
HETATM   24  C3  UNL     1      24.379   0.055  53.277  1.00  0.00     0.041 C 
HETATM   25 CL1  UNL     1      24.329   1.822  53.194  1.00  0.00    -0.086 Cl
BRANCH  24  26
HETATM   26  C2  UNL     1      25.552  -0.769  53.001  1.00  0.00     0.107 A 
HETATM   27  C1  UNL     1      26.687  -1.431  52.619  1.00  0.00     0.304 A 
HETATM   28  F1  UNL     1      26.225  -0.212  51.921  1.00  0.00    -0.394 F 
ENDBRANCH  24  26
ENDBRANCH   1  23
TORSDOF 6
ENDMDL
MODEL 3
REMARK VINA RESULT:      -7.6      1.312      1.571
REMARK  6 active torsions:
REMARK  status: ('A' for Active; 'I' for Inactive)
REMARK    1  A    between atoms: C2_2  and  C3_4 
REMARK    2  A    between atoms: C4_6  and  C5_7 
REMARK    3  A    between atoms: C8_10  and  C9_11 
REMARK    4  A    between atoms: C9_11  and  N1_12 
REMARK    5  A    between atoms: C13_16  and  O1_17 
REMARK    6  A    between atoms: O1_17  and  C14_18 
ROOT
HETATM    1  C5  UNL     1      25.641   1.965  53.580  1.00  0.00     0.087 C 
HETATM    2  C6  UNL     1      24.476   1.285  53.258  1.00  0.00     0.038 C 
HETATM    3  C7  UNL     1      23.353   0.683  52.888  1.00  0.00     0.036 C 
HETATM    4  C8  UNL     1      22.164  -0.030  52.589  1.00  0.00    -0.029 C 
HETATM    5  C10 UNL     1      21.315   0.060  51.551  1.00  0.00     0.009 C 
HETATM    6  C11 UNL     1      21.350   0.891  50.363  1.00  0.00    -0.001 C 
HETATM    7  C12 UNL     1      22.177   1.761  49.816  1.00  0.00     0.010 C 
HETATM    8  C13 UNL     1      23.469   2.368  50.042  1.00  0.00     0.185 C 
HETATM    9  C19 UNL     1      23.881   2.746  51.393  1.00  0.00     0.125 C 
HETATM   10  N3  UNL     1      24.237   2.474  52.534  1.00  0.00    -0.266 NA
ENDROOT
BRANCH   8  11
HETATM   11  O1  UNL     1      23.968   3.197  49.023  1.00  0.00    -0.371 OA
BRANCH  11  12
HETATM   12  C14 UNL     1      23.343   4.408  48.994  1.00  0.00     0.126 C 
HETATM   13  C15 UNL     1      24.166   5.646  49.157  1.00  0.00     0.051 C 
HETATM   14  C16 UNL     1      23.294   6.825  48.683  1.00  0.00     0.116 C 
HETATM   15  N2  UNL     1      21.905   6.543  48.849  1.00  0.00    -0.421 N 
HETATM   16  C17 UNL     1      21.356   5.471  48.072  1.00  0.00     0.116 C 
HETATM   17  H20 UNL     1      21.555   6.626  49.817  1.00  0.00     0.153 HD
HETATM   18  C18 UNL     1      22.540   4.558  47.693  1.00  0.00     0.051 C 
ENDBRANCH  11  12
ENDBRANCH   8  11
BRANCH   4  19
HETATM   19  C9  UNL     1      22.062  -0.954  53.731  1.00  0.00     0.305 C 
BRANCH  19  20
HETATM   20  N1  UNL     1      20.845  -0.831  54.490  1.00  0.00     0.082 N 
HETATM   21  H9  UNL     1      21.138  -0.980  55.503  1.00  0.00     0.313 HD
HETATM   22  H10 UNL     1      20.132  -1.537  54.290  1.00  0.00     0.313 HD
ENDBRANCH  19  20
ENDBRANCH   4  19
BRANCH   1  23
HETATM   23  C4  UNL     1      26.982   1.361  53.246  1.00  0.00     0.002 C 
HETATM   24  C3  UNL     1      27.369   0.420  54.136  1.00  0.00     0.041 C 
HETATM   25 CL1  UNL     1      26.302  -0.013  55.480  1.00  0.00    -0.086 Cl
BRANCH  24  26
HETATM   26  C2  UNL     1      28.663  -0.197  53.855  1.00  0.00     0.107 A 
HETATM   27  C1  UNL     1      29.918  -0.628  53.522  1.00  0.00     0.304 A 
HETATM   28  F1  UNL     1      29.446   0.733  53.186  1.00  0.00    -0.394 F 
ENDBRANCH  24  26
ENDBRANCH   1  23
TORSDOF 6
ENDMDL
MODEL 4
REMARK VINA RESULT:      -7.5      2.352      3.543
REMARK  6 active torsions:
REMARK  status: ('A' for Active; 'I' for Inactive)
REMARK    1  A    between atoms: C2_2  and  C3_4 
REMARK    2  A    between atoms: C4_6  and  C5_7 
REMARK    3  A    between atoms: C8_10  and  C9_11 
REMARK    4  A    between atoms: C9_11  and  N1_12 
REMARK    5  A    between atoms: C13_16  and  O1_17 
REMARK    6  A    between atoms: O1_17  and  C14_18 
ROOT
HETATM    1  C5  UNL     1      23.987   2.748  52.393  1.00  0.00     0.087 C 
HETATM    2  C6  UNL     1      23.317   2.674  51.180  1.00  0.00     0.038 C 
HETATM    3  C7  UNL     1      22.700   2.678  50.007  1.00  0.00     0.036 C 
HETATM    4  C8  UNL     1      22.003   2.571  48.775  1.00  0.00    -0.029 C 
HETATM    5  C10 UNL     1      21.884   3.430  47.748  1.00  0.00     0.009 C 
HETATM    6  C11 UNL     1      22.462   4.742  47.534  1.00  0.00    -0.001 C 
HETATM    7  C12 UNL     1      23.317   5.535  48.151  1.00  0.00     0.010 C 
HETATM    8  C13 UNL     1      24.154   5.573  49.329  1.00  0.00     0.185 C 
HETATM    9  C19 UNL     1      23.673   5.019  50.594  1.00  0.00     0.125 C 
HETATM   10  N3  UNL     1      23.360   4.079  51.316  1.00  0.00    -0.266 NA
ENDROOT
BRANCH   8  11
HETATM   11  O1  UNL     1      25.013   6.676  49.461  1.00  0.00    -0.371 OA
BRANCH  11  12
HETATM   12  C14 UNL     1      26.319   6.336  49.264  1.00  0.00     0.126 C 
HETATM   13  C15 UNL     1      26.662   4.898  49.038  1.00  0.00     0.051 C 
HETATM   14  C16 UNL     1      28.087   4.867  48.453  1.00  0.00     0.116 C 
HETATM   15  N2  UNL     1      28.845   6.000  48.873  1.00  0.00    -0.421 N 
HETATM   16  C17 UNL     1      28.400   7.288  48.431  1.00  0.00     0.116 C 
HETATM   17  H20 UNL     1      29.202   5.952  49.841  1.00  0.00     0.153 HD
HETATM   18  C18 UNL     1      26.903   7.136  48.089  1.00  0.00     0.051 C 
ENDBRANCH  11  12
ENDBRANCH   8  11
BRANCH   4  19
HETATM   19  C9  UNL     1      21.411   1.227  48.872  1.00  0.00     0.305 C 
BRANCH  19  20
HETATM   20  N1  UNL     1      19.987   1.217  49.089  1.00  0.00     0.082 N 
HETATM   21  H9  UNL     1      19.837   0.527  49.886  1.00  0.00     0.313 HD
HETATM   22  H10 UNL     1      19.428   0.876  48.304  1.00  0.00     0.313 HD
ENDBRANCH  19  20
ENDBRANCH   4  19
BRANCH   1  23
HETATM   23  C4  UNL     1      25.353   2.127  52.539  1.00  0.00     0.002 C 
HETATM   24  C3  UNL     1      25.301   0.829  52.914  1.00  0.00     0.041 C 
HETATM   25 CL1  UNL     1      23.733   0.036  53.126  1.00  0.00    -0.086 Cl
BRANCH  24  26
HETATM   26  C2  UNL     1      26.600   0.180  53.068  1.00  0.00     0.107 A 
HETATM   27  C1  UNL     1      27.813  -0.452  53.044  1.00  0.00     0.304 A 
HETATM   28  F1  UNL     1      27.008  -0.267  51.818  1.00  0.00    -0.394 F 
ENDBRANCH  24  26
ENDBRANCH   1  23
TORSDOF 6
ENDMDL
MODEL 5
REMARK VINA RESULT:      -7.5      2.189      5.478
REMARK  6 active torsions:
REMARK  status: ('A' for Active; 'I' for Inactive)
REMARK    1  A    between atoms: C2_2  and  C3_4 
REMARK    2  A    between atoms: C4_6  and  C5_7 
REMARK    3  A    between atoms: C8_10  and  C9_11 
REMARK    4  A    between atoms: C9_11  and  N1_12 
REMARK    5  A    between atoms: C13_16  and  O1_17 
REMARK    6  A    between atoms: O1_17  and  C14_18 
ROOT
HETATM    1  C5  UNL     1      26.119   2.476  51.277  1.00  0.00     0.087 C 
HETATM    2  C6  UNL     1      25.053   3.363  51.322  1.00  0.00     0.038 C 
HETATM    3  C7  UNL     1      23.985   4.148  51.367  1.00  0.00     0.036 C 
HETATM    4  C8  UNL     1      22.918   5.081  51.408  1.00  0.00    -0.029 C 
HETATM    5  C10 UNL     1      21.591   4.904  51.532  1.00  0.00     0.009 C 
HETATM    6  C11 UNL     1      20.805   3.697  51.707  1.00  0.00    -0.001 C 
HETATM    7  C12 UNL     1      21.035   2.409  51.877  1.00  0.00     0.010 C 
HETATM    8  C13 UNL     1      22.134   1.478  51.998  1.00  0.00     0.185 C 
HETATM    9  C19 UNL     1      23.331   1.637  51.173  1.00  0.00     0.125 C 
HETATM   10  N3  UNL     1      24.363   2.220  50.861  1.00  0.00    -0.266 NA
ENDROOT
BRANCH   8  11
HETATM   11  O1  UNL     1      21.807   0.147  52.306  1.00  0.00    -0.371 OA
BRANCH  11  12
HETATM   12  C14 UNL     1      22.359  -0.258  53.485  1.00  0.00     0.126 C 
HETATM   13  C15 UNL     1      21.544  -1.109  54.406  1.00  0.00     0.051 C 
HETATM   14  C16 UNL     1      22.524  -1.735  55.417  1.00  0.00     0.116 C 
HETATM   15  N2  UNL     1      23.674  -0.911  55.604  1.00  0.00    -0.421 N 
HETATM   16  C17 UNL     1      24.535  -0.720  54.475  1.00  0.00     0.116 C 
HETATM   17  H20 UNL     1      23.525  -0.084  56.205  1.00  0.00     0.153 HD
HETATM   18  C18 UNL     1      23.679  -1.001  53.223  1.00  0.00     0.051 C 
ENDBRANCH  11  12
ENDBRANCH   8  11
BRANCH   4  19
HETATM   19  C9  UNL     1      23.626   6.366  51.287  1.00  0.00     0.305 C 
BRANCH  19  20
HETATM   20  N1  UNL     1      24.424   6.717  52.432  1.00  0.00     0.082 N 
HETATM   21  H9  UNL     1      23.900   7.518  52.897  1.00  0.00     0.313 HD
HETATM   22  H10 UNL     1      25.361   7.070  52.220  1.00  0.00     0.313 HD
ENDBRANCH  19  20
ENDBRANCH   4  19
BRANCH   1  23
HETATM   23  C4  UNL     1      26.913   2.188  52.527  1.00  0.00     0.002 C 
HETATM   24  C3  UNL     1      27.195   0.873  52.677  1.00  0.00     0.041 C 
HETATM   25 CL1  UNL     1      26.682  -0.284  51.439  1.00  0.00    -0.086 Cl
BRANCH  24  26
HETATM   26  C2  UNL     1      27.964   0.542  53.873  1.00  0.00     0.107 A 
HETATM   27  C1  UNL     1      28.810   0.322  54.925  1.00  0.00     0.304 A 
HETATM   28  F1  UNL     1      29.224   1.110  53.744  1.00  0.00    -0.394 F 
ENDBRANCH  24  26
ENDBRANCH   1  23
TORSDOF 6
ENDMDL
MODEL 6
REMARK VINA RESULT:      -7.3      3.075      6.112
REMARK  6 active torsions:
REMARK  status: ('A' for Active; 'I' for Inactive)
REMARK    1  A    between atoms: C2_2  and  C3_4 
REMARK    2  A    between atoms: C4_6  and  C5_7 
REMARK    3  A    between atoms: C8_10  and  C9_11 
REMARK    4  A    between atoms: C9_11  and  N1_12 
REMARK    5  A    between atoms: C13_16  and  O1_17 
REMARK    6  A    between atoms: O1_17  and  C14_18 
ROOT
HETATM    1  C5  UNL     1      26.239   2.887  49.846  1.00  0.00     0.087 C 
HETATM    2  C6  UNL     1      26.729   4.103  49.393  1.00  0.00     0.038 C 
HETATM    3  C7  UNL     1      27.128   5.300  48.981  1.00  0.00     0.036 C 
HETATM    4  C8  UNL     1      27.656   6.527  48.506  1.00  0.00    -0.029 C 
HETATM    5  C10 UNL     1      27.158   7.776  48.533  1.00  0.00     0.009 C 
HETATM    6  C11 UNL     1      25.926   8.296  49.095  1.00  0.00    -0.001 C 
HETATM    7  C12 UNL     1      24.918   7.833  49.808  1.00  0.00     0.010 C 
HETATM    8  C13 UNL     1      24.459   6.613  50.433  1.00  0.00     0.185 C 
HETATM    9  C19 UNL     1      24.647   5.326  49.765  1.00  0.00     0.125 C 
HETATM   10  N3  UNL     1      25.349   4.404  49.366  1.00  0.00    -0.266 NA
ENDROOT
BRANCH   8  11
HETATM   11  O1  UNL     1      23.299   6.701  51.221  1.00  0.00    -0.371 OA
BRANCH  11  12
HETATM   12  C14 UNL     1      22.531   5.578  51.132  1.00  0.00     0.126 C 
HETATM   13  C15 UNL     1      22.305   4.761  52.365  1.00  0.00     0.051 C 
HETATM   14  C16 UNL     1      21.112   3.831  52.070  1.00  0.00     0.116 C 
HETATM   15  N2  UNL     1      21.006   3.550  50.676  1.00  0.00    -0.421 N 
HETATM   16  C17 UNL     1      20.714   4.649  49.805  1.00  0.00     0.116 C 
HETATM   17  H20 UNL     1      21.683   2.856  50.318  1.00  0.00     0.153 HD
HETATM   18  C18 UNL     1      21.151   5.925  50.553  1.00  0.00     0.051 C 
ENDBRANCH  11  12
ENDBRANCH   8  11
BRANCH   4  19
HETATM   19  C9  UNL     1      28.954   6.110  47.950  1.00  0.00     0.305 C 
BRANCH  19  20
HETATM   20  N1  UNL     1      30.009   5.993  48.923  1.00  0.00     0.082 N 
HETATM   21  H9  UNL     1      30.908   5.993  48.354  1.00  0.00     0.313 HD
HETATM   22  H10 UNL     1      30.010   5.125  49.464  1.00  0.00     0.313 HD
ENDBRANCH  19  20
ENDBRANCH   4  19
BRANCH   1  23
HETATM   23  C4  UNL     1      26.673   2.353  51.188  1.00  0.00     0.002 C 
HETATM   24  C3  UNL     1      25.651   1.815  51.892  1.00  0.00     0.041 C 
HETATM   25 CL1  UNL     1      24.030   1.752  51.183  1.00  0.00    -0.086 Cl
BRANCH  24  26
HETATM   26  C2  UNL     1      26.020   1.282  53.200  1.00  0.00     0.107 A 
HETATM   27  C1  UNL     1      26.330   0.935  54.487  1.00  0.00     0.304 A 
HETATM   28  F1  UNL     1      25.892   2.302  54.133  1.00  0.00    -0.394 F 
ENDBRANCH  24  26
ENDBRANCH   1  23
TORSDOF 6
ENDMDL
MODEL 7
REMARK VINA RESULT:      -7.3      3.761      6.640
REMARK  6 active torsions:
REMARK  status: ('A' for Active; 'I' for Inactive)
REMARK    1  A    between atoms: C2_2  and  C3_4 
REMARK    2  A    between atoms: C4_6  and  C5_7 
REMARK    3  A    between atoms: C8_10  and  C9_11 
REMARK    4  A    between atoms: C9_11  and  N1_12 
REMARK    5  A    between atoms: C13_16  and  O1_17 
REMARK    6  A    between atoms: O1_17  and  C14_18 
ROOT
HETATM    1  C5  UNL     1      24.054   3.247  50.726  1.00  0.00     0.087 C 
HETATM    2  C6  UNL     1      24.433   2.138  51.467  1.00  0.00     0.038 C 
HETATM    3  C7  UNL     1      24.723   1.078  52.210  1.00  0.00     0.036 C 
HETATM    4  C8  UNL     1      25.142  -0.054  52.956  1.00  0.00    -0.029 C 
HETATM    5  C10 UNL     1      24.479  -0.838  53.824  1.00  0.00     0.009 C 
HETATM    6  C11 UNL     1      23.096  -0.815  54.261  1.00  0.00    -0.001 C 
HETATM    7  C12 UNL     1      22.001  -0.140  53.970  1.00  0.00     0.010 C 
HETATM    8  C13 UNL     1      21.536   0.909  53.089  1.00  0.00     0.185 C 
HETATM    9  C19 UNL     1      22.387   2.062  52.801  1.00  0.00     0.125 C 
HETATM   10  N3  UNL     1      23.365   2.584  52.278  1.00  0.00    -0.266 NA
ENDROOT
BRANCH   8  11
HETATM   11  O1  UNL     1      20.159   1.185  53.103  1.00  0.00    -0.371 OA
BRANCH  11  12
HETATM   12  C14 UNL     1      19.607   1.108  51.859  1.00  0.00     0.126 C 
HETATM   13  C15 UNL     1      18.632   0.011  51.571  1.00  0.00     0.051 C 
HETATM   14  C16 UNL     1      17.888   0.404  50.280  1.00  0.00     0.116 C 
HETATM   15  N2  UNL     1      18.693   1.241  49.452  1.00  0.00    -0.421 N 
HETATM   16  C17 UNL     1      19.043   2.532  49.966  1.00  0.00     0.116 C 
HETATM   17  H20 UNL     1      19.431   0.750  48.921  1.00  0.00     0.153 HD
HETATM   18  C18 UNL     1      18.922   2.436  51.501  1.00  0.00     0.051 C 
ENDBRANCH  11  12
ENDBRANCH   8  11
BRANCH   4  19
HETATM   19  C9  UNL     1      26.546  -0.196  52.538  1.00  0.00     0.305 C 
BRANCH  19  20
HETATM   20  N1  UNL     1      27.409  -0.776  53.534  1.00  0.00     0.082 N 
HETATM   21  H9  UNL     1      27.987  -1.499  53.008  1.00  0.00     0.313 HD
HETATM   22  H10 UNL     1      26.931  -1.281  54.285  1.00  0.00     0.313 HD
ENDBRANCH  19  20
ENDBRANCH   4  19
BRANCH   1  23
HETATM   23  C4  UNL     1      23.637   3.085  49.286  1.00  0.00     0.002 C 
HETATM   24  C3  UNL     1      22.593   3.876  48.950  1.00  0.00     0.041 C 
HETATM   25 CL1  UNL     1      21.910   4.986  50.148  1.00  0.00    -0.086 Cl
BRANCH  24  26
HETATM   26  C2  UNL     1      22.152   3.757  47.563  1.00  0.00     0.107 A 
HETATM   27  C1  UNL     1      21.805   3.490  46.267  1.00  0.00     0.304 A 
HETATM   28  F1  UNL     1      22.543   2.510  47.094  1.00  0.00    -0.394 F 
ENDBRANCH  24  26
ENDBRANCH   1  23
TORSDOF 6
ENDMDL
MODEL 8
REMARK VINA RESULT:      -7.3      3.595      6.856
REMARK  6 active torsions:
REMARK  status: ('A' for Active; 'I' for Inactive)
REMARK    1  A    between atoms: C2_2  and  C3_4 
REMARK    2  A    between atoms: C4_6  and  C5_7 
REMARK    3  A    between atoms: C8_10  and  C9_11 
REMARK    4  A    between atoms: C9_11  and  N1_12 
REMARK    5  A    between atoms: C13_16  and  O1_17 
REMARK    6  A    between atoms: O1_17  and  C14_18 
ROOT
HETATM    1  C5  UNL     1      21.399   2.617  52.555  1.00  0.00     0.087 C 
HETATM    2  C6  UNL     1      22.260   2.810  51.485  1.00  0.00     0.038 C 
HETATM    3  C7  UNL     1      23.143   2.992  50.512  1.00  0.00     0.036 C 
HETATM    4  C8  UNL     1      23.997   3.194  49.397  1.00  0.00    -0.029 C 
HETATM    5  C10 UNL     1      25.337   3.221  49.301  1.00  0.00     0.009 C 
HETATM    6  C11 UNL     1      26.366   3.012  50.301  1.00  0.00    -0.001 C 
HETATM    7  C12 UNL     1      26.423   2.669  51.573  1.00  0.00     0.010 C 
HETATM    8  C13 UNL     1      25.556   2.303  52.671  1.00  0.00     0.185 C 
HETATM    9  C19 UNL     1      24.274   2.981  52.856  1.00  0.00     0.125 C 
HETATM   10  N3  UNL     1      23.118   3.223  52.528  1.00  0.00    -0.266 NA
ENDROOT
BRANCH   8  11
HETATM   11  O1  UNL     1      26.179   1.891  53.861  1.00  0.00    -0.371 OA
BRANCH  11  12
HETATM   12  C14 UNL     1      27.104   0.913  53.644  1.00  0.00     0.126 C 
HETATM   13  C15 UNL     1      28.361   0.920  54.454  1.00  0.00     0.051 C 
HETATM   14  C16 UNL     1      28.999  -0.474  54.298  1.00  0.00     0.116 C 
HETATM   15  N2  UNL     1      28.638  -1.072  53.054  1.00  0.00    -0.421 N 
HETATM   16  C17 UNL     1      27.255  -1.385  52.853  1.00  0.00     0.116 C 
HETATM   17  H20 UNL     1      29.145  -0.708  52.231  1.00  0.00     0.153 HD
HETATM   18  C18 UNL     1      26.460  -0.472  53.809  1.00  0.00     0.051 C 
ENDBRANCH  11  12
ENDBRANCH   8  11
BRANCH   4  19
HETATM   19  C9  UNL     1      23.032   3.369  48.298  1.00  0.00     0.305 C 
BRANCH  19  20
HETATM   20  N1  UNL     1      22.542   2.138  47.734  1.00  0.00     0.082 N 
HETATM   21  H9  UNL     1      22.571   1.439  48.536  1.00  0.00     0.313 HD
HETATM   22  H10 UNL     1      23.116   1.742  46.985  1.00  0.00     0.313 HD
ENDBRANCH  19  20
ENDBRANCH   4  19
BRANCH   1  23
HETATM   23  C4  UNL     1      20.814   1.251  52.815  1.00  0.00     0.002 C 
HETATM   24  C3  UNL     1      19.518   1.156  52.438  1.00  0.00     0.041 C 
HETATM   25 CL1  UNL     1      18.719   2.540  51.678  1.00  0.00    -0.086 Cl
BRANCH  24  26
HETATM   26  C2  UNL     1      18.906  -0.150  52.668  1.00  0.00     0.107 A 
HETATM   27  C1  UNL     1      18.451  -1.396  53.000  1.00  0.00     0.304 A 
HETATM   28  F1  UNL     1      19.639  -0.801  53.650  1.00  0.00    -0.394 F 
ENDBRANCH  24  26
ENDBRANCH   1  23
TORSDOF 6
ENDMDL
MODEL 9
REMARK VINA RESULT:      -7.3      3.987      6.200
REMARK  6 active torsions:
REMARK  status: ('A' for Active; 'I' for Inactive)
REMARK    1  A    between atoms: C2_2  and  C3_4 
REMARK    2  A    between atoms: C4_6  and  C5_7 
REMARK    3  A    between atoms: C8_10  and  C9_11 
REMARK    4  A    between atoms: C9_11  and  N1_12 
REMARK    5  A    between atoms: C13_16  and  O1_17 
REMARK    6  A    between atoms: O1_17  and  C14_18 
ROOT
HETATM    1  C5  UNL     1      19.865   0.646  51.331  1.00  0.00     0.087 C 
HETATM    2  C6  UNL     1      20.963   0.332  52.118  1.00  0.00     0.038 C 
HETATM    3  C7  UNL     1      22.059   0.071  52.819  1.00  0.00     0.036 C 
HETATM    4  C8  UNL     1      23.162  -0.270  53.644  1.00  0.00    -0.029 C 
HETATM    5  C10 UNL     1      24.461   0.067  53.569  1.00  0.00     0.009 C 
HETATM    6  C11 UNL     1      25.168   0.927  52.640  1.00  0.00    -0.001 C 
HETATM    7  C12 UNL     1      24.862   1.720  51.631  1.00  0.00     0.010 C 
HETATM    8  C13 UNL     1      23.713   2.194  50.892  1.00  0.00     0.185 C 
HETATM    9  C19 UNL     1      22.608   1.287  50.585  1.00  0.00     0.125 C 
HETATM   10  N3  UNL     1      21.639   0.611  50.909  1.00  0.00    -0.266 NA
ENDROOT
BRANCH   8  11
HETATM   11  O1  UNL     1      23.946   3.184  49.923  1.00  0.00    -0.371 OA
BRANCH  11  12
HETATM   12  C14 UNL     1      24.174   4.406  50.483  1.00  0.00     0.126 C 
HETATM   13  C15 UNL     1      25.384   5.177  50.059  1.00  0.00     0.051 C 
HETATM   14  C16 UNL     1      25.168   6.632  50.520  1.00  0.00     0.116 C 
HETATM   15  N2  UNL     1      24.320   6.692  51.665  1.00  0.00    -0.421 N 
HETATM   16  C17 UNL     1      22.964   6.258  51.501  1.00  0.00     0.116 C 
HETATM   17  H20 UNL     1      24.772   6.438  52.558  1.00  0.00     0.153 HD
HETATM   18  C18 UNL     1      22.954   5.318  50.278  1.00  0.00     0.051 C 
ENDBRANCH  11  12
ENDBRANCH   8  11
BRANCH   4  19
HETATM   19  C9  UNL     1      22.531  -1.118  54.668  1.00  0.00     0.305 C 
BRANCH  19  20
HETATM   20  N1  UNL     1      23.413  -1.525  55.731  1.00  0.00     0.082 N 
HETATM   21  H9  UNL     1      24.293  -0.942  55.594  1.00  0.00     0.313 HD
HETATM   22  H10 UNL     1      23.708  -2.504  55.703  1.00  0.00     0.313 HD
ENDBRANCH  19  20
ENDBRANCH   4  19
BRANCH   1  23
HETATM   23  C4  UNL     1      18.946   1.771  51.735  1.00  0.00     0.002 C 
HETATM   24  C3  UNL     1      17.723   1.678  51.164  1.00  0.00     0.041 C 
HETATM   25 CL1  UNL     1      17.342   0.303  50.117  1.00  0.00    -0.086 Cl
BRANCH  24  26
HETATM   26  C2  UNL     1      16.794   2.745  51.525  1.00  0.00     0.107 A 
HETATM   27  C1  UNL     1      16.059   3.843  51.882  1.00  0.00     0.304 A 
HETATM   28  F1  UNL     1      17.536   3.881  51.818  1.00  0.00    -0.394 F 
ENDBRANCH  24  26
ENDBRANCH   1  23
TORSDOF 6
ENDMDL
