MODEL 1
REMARK VINA RESULT:      -7.3      0.000      0.000
REMARK  6 active torsions:
REMARK  status: ('A' for Active; 'I' for Inactive)
REMARK    1  A    between atoms: C1_2  and  N1_3 
REMARK    2  A    between atoms: N1_3  and  C2_4 
REMARK    3  A    between atoms: C2_4  and  C3_5 
REMARK    4  A    between atoms: C3_5  and  C4_6 
REMARK       I    between atoms: C4_6  and  N2_8 
REMARK    5  A    between atoms: N2_8  and  C5_9 
REMARK    6  A    between atoms: C5_9  and  C6_10 
ROOT
HETATM    1  C6  UNL     1      24.155   0.235  53.339  1.00  0.00     0.017 C 
HETATM    2  C7  UNL     1      24.203   1.537  52.939  1.00  0.00     0.130 C 
HETATM    3  N3  UNL     1      23.959   2.373  51.920  1.00  0.00    -0.253 NA
HETATM    4  C8  UNL     1      22.860   2.243  51.132  1.00  0.00     0.232 C 
HETATM    5  N4  UNL     1      22.345   1.147  50.553  1.00  0.00    -0.254 NA
HETATM    6  C9  UNL     1      21.030   0.854  50.774  1.00  0.00     0.118 C 
HETATM    7  C10 UNL     1      20.610   0.331  51.980  1.00  0.00     0.021 C 
HETATM    8  C11 UNL     1      20.785   0.411  53.355  1.00  0.00     0.028 C 
HETATM    9  C12 UNL     1      21.816  -0.360  53.867  1.00  0.00     0.073 C 
HETATM   10 CL1  UNL     1      20.865  -1.794  54.278  1.00  0.00    -0.081 Cl
HETATM   11  C13 UNL     1      23.172  -0.384  54.130  1.00  0.00     0.147 C 
HETATM   12  F1  UNL     1      23.504  -1.071  55.249  1.00  0.00    -0.204 F 
ENDROOT
BRANCH   1  13
HETATM   13  C5  UNL     1      25.167  -0.786  52.985  1.00  0.00     0.165 C 
BRANCH  13  14
HETATM   14  N2  UNL     1      26.522  -0.417  53.208  1.00  0.00    -0.357 N 
HETATM   15  C4  UNL     1      27.667  -1.240  53.171  1.00  0.00     0.219 C 
HETATM   16  O2  UNL     1      27.567  -2.465  52.918  1.00  0.00    -0.274 OA
HETATM   17  H7  UNL     1      26.786   0.589  53.437  1.00  0.00     0.162 HD
BRANCH  15  18
HETATM   18  C3  UNL     1      29.053  -0.798  53.409  1.00  0.00     0.122 C 
BRANCH  18  19
HETATM   19  C2  UNL     1      29.129   0.279  54.469  1.00  0.00     0.131 C 
BRANCH  19  20
HETATM   20  N1  UNL     1      29.652   1.515  53.968  1.00  0.00    -0.368 N 
HETATM   21  H2  UNL     1      30.650   1.781  53.866  1.00  0.00     0.161 HD
BRANCH  20  22
HETATM   22  C1  UNL     1      28.631   2.438  53.583  1.00  0.00     0.348 C 
HETATM   23  O1  UNL     1      27.488   2.354  54.126  1.00  0.00    -0.284 OA
ENDBRANCH  20  22
ENDBRANCH  19  20
ENDBRANCH  18  19
ENDBRANCH  15  18
ENDBRANCH  13  14
ENDBRANCH   1  13
TORSDOF 6
ENDMDL
MODEL 2
REMARK VINA RESULT:      -7.1      2.404      3.502
REMARK  6 active torsions:
REMARK  status: ('A' for Active; 'I' for Inactive)
REMARK    1  A    between atoms: C1_2  and  N1_3 
REMARK    2  A    between atoms: N1_3  and  C2_4 
REMARK    3  A    between atoms: C2_4  and  C3_5 
REMARK    4  A    between atoms: C3_5  and  C4_6 
REMARK       I    between atoms: C4_6  and  N2_8 
REMARK    5  A    between atoms: N2_8  and  C5_9 
REMARK    6  A    between atoms: C5_9  and  C6_10 
ROOT
HETATM    1  C6  UNL     1      24.410   1.214  52.845  1.00  0.00     0.017 C 
HETATM    2  C7  UNL     1      24.483  -0.015  53.427  1.00  0.00     0.130 C 
HETATM    3  N3  UNL     1      23.925  -0.822  54.342  1.00  0.00    -0.253 NA
HETATM    4  C8  UNL     1      22.579  -0.901  54.503  1.00  0.00     0.232 C 
HETATM    5  N4  UNL     1      21.667   0.080  54.594  1.00  0.00    -0.254 NA
HETATM    6  C9  UNL     1      20.595   0.049  53.750  1.00  0.00     0.118 C 
HETATM    7  C10 UNL     1      20.727   0.389  52.418  1.00  0.00     0.021 C 
HETATM    8  C11 UNL     1      21.556   0.268  51.311  1.00  0.00     0.028 C 
HETATM    9  C12 UNL     1      22.555   1.224  51.212  1.00  0.00     0.073 C 
HETATM   10 CL1  UNL     1      21.691   2.372  50.183  1.00  0.00    -0.081 Cl
HETATM   11  C13 UNL     1      23.842   1.542  51.602  1.00  0.00     0.147 C 
HETATM   12  F1  UNL     1      24.549   2.219  50.665  1.00  0.00    -0.204 F 
ENDROOT
BRANCH   1  13
HETATM   13  C5  UNL     1      24.930   2.460  53.452  1.00  0.00     0.165 C 
BRANCH  13  14
HETATM   14  N2  UNL     1      26.261   2.396  53.950  1.00  0.00    -0.357 N 
HETATM   15  C4  UNL     1      27.464   2.338  53.216  1.00  0.00     0.219 C 
HETATM   16  O2  UNL     1      27.450   2.336  51.961  1.00  0.00    -0.274 OA
HETATM   17  H7  UNL     1      26.454   2.386  54.996  1.00  0.00     0.162 HD
BRANCH  15  18
HETATM   18  C3  UNL     1      28.821   2.275  53.791  1.00  0.00     0.122 C 
BRANCH  18  19
HETATM   19  C2  UNL     1      29.097   0.938  54.444  1.00  0.00     0.131 C 
BRANCH  19  20
HETATM   20  N1  UNL     1      29.749   0.015  53.564  1.00  0.00    -0.368 N 
HETATM   21  H2  UNL     1      30.658   0.142  53.081  1.00  0.00     0.161 HD
BRANCH  20  22
HETATM   22  C1  UNL     1      29.010  -1.194  53.376  1.00  0.00     0.348 C 
HETATM   23  O1  UNL     1      27.799  -1.240  53.749  1.00  0.00    -0.284 OA
ENDBRANCH  20  22
ENDBRANCH  19  20
ENDBRANCH  18  19
ENDBRANCH  15  18
ENDBRANCH  13  14
ENDBRANCH   1  13
TORSDOF 6
ENDMDL
MODEL 3
REMARK VINA RESULT:      -7.0      1.159      2.078
REMARK  6 active torsions:
REMARK  status: ('A' for Active; 'I' for Inactive)
REMARK    1  A    between atoms: C1_2  and  N1_3 
REMARK    2  A    between atoms: N1_3  and  C2_4 
REMARK    3  A    between atoms: C2_4  and  C3_5 
REMARK    4  A    between atoms: C3_5  and  C4_6 
REMARK       I    between atoms: C4_6  and  N2_8 
REMARK    5  A    between atoms: N2_8  and  C5_9 
REMARK    6  A    between atoms: C5_9  and  C6_10 
ROOT
HETATM    1  C6  UNL     1      24.144   1.157  52.817  1.00  0.00     0.017 C 
HETATM    2  C7  UNL     1      23.769   2.420  52.472  1.00  0.00     0.130 C 
HETATM    3  N3  UNL     1      23.258   3.174  51.487  1.00  0.00    -0.253 NA
HETATM    4  C8  UNL     1      22.248   2.730  50.695  1.00  0.00     0.232 C 
HETATM    5  N4  UNL     1      22.101   1.550  50.071  1.00  0.00    -0.254 NA
HETATM    6  C9  UNL     1      20.952   0.846  50.280  1.00  0.00     0.118 C 
HETATM    7  C10 UNL     1      20.736   0.168  51.464  1.00  0.00     0.021 C 
HETATM    8  C11 UNL     1      20.894   0.246  52.841  1.00  0.00     0.028 C 
HETATM    9  C12 UNL     1      22.125  -0.175  53.320  1.00  0.00     0.073 C 
HETATM   10 CL1  UNL     1      21.686  -1.851  53.673  1.00  0.00    -0.081 Cl
HETATM   11  C13 UNL     1      23.420   0.226  53.582  1.00  0.00     0.147 C 
HETATM   12  F1  UNL     1      23.969  -0.363  54.672  1.00  0.00    -0.204 F 
ENDROOT
BRANCH   1  13
HETATM   13  C5  UNL     1      25.424   0.526  52.422  1.00  0.00     0.165 C 
BRANCH  13  14
HETATM   14  N2  UNL     1      26.575   0.968  53.131  1.00  0.00    -0.357 N 
HETATM   15  C4  UNL     1      27.489   1.979  52.765  1.00  0.00     0.219 C 
HETATM   16  O2  UNL     1      27.343   2.618  51.695  1.00  0.00    -0.274 OA
HETATM   17  H7  UNL     1      26.848   0.529  54.061  1.00  0.00     0.162 HD
BRANCH  15  18
HETATM   18  C3  UNL     1      28.669   2.396  53.546  1.00  0.00     0.122 C 
BRANCH  18  19
HETATM   19  C2  UNL     1      29.255   1.249  54.340  1.00  0.00     0.131 C 
BRANCH  19  20
HETATM   20  N1  UNL     1      30.111   0.411  53.554  1.00  0.00    -0.368 N 
HETATM   21  H2  UNL     1      30.955   0.696  53.022  1.00  0.00     0.161 HD
BRANCH  20  22
HETATM   22  C1  UNL     1      29.700  -0.957  53.548  1.00  0.00     0.348 C 
HETATM   23  O1  UNL     1      28.512  -1.245  53.889  1.00  0.00    -0.284 OA
ENDBRANCH  20  22
ENDBRANCH  19  20
ENDBRANCH  18  19
ENDBRANCH  15  18
ENDBRANCH  13  14
ENDBRANCH   1  13
TORSDOF 6
ENDMDL
MODEL 4
REMARK VINA RESULT:      -6.9      3.489      5.812
REMARK  6 active torsions:
REMARK  status: ('A' for Active; 'I' for Inactive)
REMARK    1  A    between atoms: C1_2  and  N1_3 
REMARK    2  A    between atoms: N1_3  and  C2_4 
REMARK    3  A    between atoms: C2_4  and  C3_5 
REMARK    4  A    between atoms: C3_5  and  C4_6 
REMARK       I    between atoms: C4_6  and  N2_8 
REMARK    5  A    between atoms: N2_8  and  C5_9 
REMARK    6  A    between atoms: C5_9  and  C6_10 
ROOT
HETATM    1  C6  UNL     1      24.461   2.280  52.069  1.00  0.00     0.017 C 
HETATM    2  C7  UNL     1      25.661   2.426  51.442  1.00  0.00     0.130 C 
HETATM    3  N3  UNL     1      26.967   2.666  51.631  1.00  0.00    -0.253 NA
HETATM    4  C8  UNL     1      27.653   2.121  52.670  1.00  0.00     0.232 C 
HETATM    5  N4  UNL     1      27.325   2.047  53.970  1.00  0.00    -0.254 NA
HETATM    6  C9  UNL     1      27.347   0.824  54.574  1.00  0.00     0.118 C 
HETATM    7  C10 UNL     1      26.352  -0.105  54.341  1.00  0.00     0.021 C 
HETATM    8  C11 UNL     1      25.540  -0.648  53.354  1.00  0.00     0.028 C 
HETATM    9  C12 UNL     1      24.363   0.042  53.111  1.00  0.00     0.073 C 
HETATM   10 CL1  UNL     1      23.313  -0.880  54.195  1.00  0.00    -0.081 Cl
HETATM   11  C13 UNL     1      23.803   1.081  52.393  1.00  0.00     0.147 C 
HETATM   12  F1  UNL     1      22.524   0.857  52.007  1.00  0.00    -0.204 F 
ENDROOT
BRANCH   1  13
HETATM   13  C5  UNL     1      23.620   3.404  52.538  1.00  0.00     0.165 C 
BRANCH  13  14
HETATM   14  N2  UNL     1      24.131   4.706  52.284  1.00  0.00    -0.357 N 
HETATM   15  C4  UNL     1      23.899   5.529  51.162  1.00  0.00     0.219 C 
HETATM   16  O2  UNL     1      23.162   5.139  50.222  1.00  0.00    -0.274 OA
HETATM   17  H7  UNL     1      24.775   5.188  52.979  1.00  0.00     0.162 HD
BRANCH  15  18
HETATM   18  C3  UNL     1      24.456   6.878  50.953  1.00  0.00     0.122 C 
BRANCH  18  19
HETATM   19  C2  UNL     1      25.597   6.871  49.959  1.00  0.00     0.131 C 
BRANCH  19  20
HETATM   20  N1  UNL     1      26.387   5.678  50.031  1.00  0.00    -0.368 N 
HETATM   21  H2  UNL     1      26.615   5.124  50.878  1.00  0.00     0.161 HD
BRANCH  20  22
HETATM   22  C1  UNL     1      26.884   5.261  48.758  1.00  0.00     0.348 C 
HETATM   23  O1  UNL     1      27.690   4.283  48.701  1.00  0.00    -0.284 OA
ENDBRANCH  20  22
ENDBRANCH  19  20
ENDBRANCH  18  19
ENDBRANCH  15  18
ENDBRANCH  13  14
ENDBRANCH   1  13
TORSDOF 6
ENDMDL
MODEL 5
REMARK VINA RESULT:      -6.6      4.702      5.955
REMARK  6 active torsions:
REMARK  status: ('A' for Active; 'I' for Inactive)
REMARK    1  A    between atoms: C1_2  and  N1_3 
REMARK    2  A    between atoms: N1_3  and  C2_4 
REMARK    3  A    between atoms: C2_4  and  C3_5 
REMARK    4  A    between atoms: C3_5  and  C4_6 
REMARK       I    between atoms: C4_6  and  N2_8 
REMARK    5  A    between atoms: N2_8  and  C5_9 
REMARK    6  A    between atoms: C5_9  and  C6_10 
ROOT
HETATM    1  C6  UNL     1      25.850   3.616  49.936  1.00  0.00     0.017 C 
HETATM    2  C7  UNL     1      24.521   3.327  49.853  1.00  0.00     0.130 C 
HETATM    3  N3  UNL     1      23.315   3.586  50.380  1.00  0.00    -0.253 NA
HETATM    4  C8  UNL     1      22.950   4.841  50.753  1.00  0.00     0.232 C 
HETATM    5  N4  UNL     1      23.626   5.754  51.469  1.00  0.00    -0.254 NA
HETATM    6  C9  UNL     1      23.787   7.001  50.941  1.00  0.00     0.118 C 
HETATM    7  C10 UNL     1      24.691   7.233  49.922  1.00  0.00     0.021 C 
HETATM    8  C11 UNL     1      25.206   6.707  48.745  1.00  0.00     0.028 C 
HETATM    9  C12 UNL     1      26.261   5.822  48.903  1.00  0.00     0.073 C 
HETATM   10 CL1  UNL     1      27.581   6.985  48.721  1.00  0.00    -0.081 Cl
HETATM   11  C13 UNL     1      26.587   4.499  49.129  1.00  0.00     0.147 C 
HETATM   12  F1  UNL     1      27.713   4.093  48.493  1.00  0.00    -0.204 F 
ENDROOT
BRANCH   1  13
HETATM   13  C5  UNL     1      26.773   3.029  50.933  1.00  0.00     0.165 C 
BRANCH  13  14
HETATM   14  N2  UNL     1      26.160   2.462  52.084  1.00  0.00    -0.357 N 
HETATM   15  C4  UNL     1      26.096   1.102  52.456  1.00  0.00     0.219 C 
HETATM   16  O2  UNL     1      26.618   0.216  51.737  1.00  0.00    -0.274 OA
HETATM   17  H7  UNL     1      25.668   3.074  52.801  1.00  0.00     0.162 HD
BRANCH  15  18
HETATM   18  C3  UNL     1      25.446   0.571  53.668  1.00  0.00     0.122 C 
BRANCH  18  19
HETATM   19  C2  UNL     1      26.426   0.408  54.810  1.00  0.00     0.131 C 
BRANCH  19  20
HETATM   20  N1  UNL     1      27.507  -0.475  54.490  1.00  0.00    -0.368 N 
HETATM   21  H2  UNL     1      27.442  -1.440  54.114  1.00  0.00     0.161 HD
BRANCH  20  22
HETATM   22  C1  UNL     1      28.791   0.101  54.740  1.00  0.00     0.348 C 
HETATM   23  O1  UNL     1      28.882   1.355  54.904  1.00  0.00    -0.284 OA
ENDBRANCH  20  22
ENDBRANCH  19  20
ENDBRANCH  18  19
ENDBRANCH  15  18
ENDBRANCH  13  14
ENDBRANCH   1  13
TORSDOF 6
ENDMDL
MODEL 6
REMARK VINA RESULT:      -6.5      3.945      5.476
REMARK  6 active torsions:
REMARK  status: ('A' for Active; 'I' for Inactive)
REMARK    1  A    between atoms: C1_2  and  N1_3 
REMARK    2  A    between atoms: N1_3  and  C2_4 
REMARK    3  A    between atoms: C2_4  and  C3_5 
REMARK    4  A    between atoms: C3_5  and  C4_6 
REMARK       I    between atoms: C4_6  and  N2_8 
REMARK    5  A    between atoms: N2_8  and  C5_9 
REMARK    6  A    between atoms: C5_9  and  C6_10 
ROOT
HETATM    1  C6  UNL     1      25.253   1.432  51.817  1.00  0.00     0.017 C 
HETATM    2  C7  UNL     1      26.153   0.416  51.695  1.00  0.00     0.130 C 
HETATM    3  N3  UNL     1      26.959  -0.413  52.374  1.00  0.00    -0.253 NA
HETATM    4  C8  UNL     1      26.576  -0.985  53.545  1.00  0.00     0.232 C 
HETATM    5  N4  UNL     1      25.992  -0.430  54.620  1.00  0.00    -0.254 NA
HETATM    6  C9  UNL     1      24.838  -0.987  55.089  1.00  0.00     0.118 C 
HETATM    7  C10 UNL     1      23.639  -0.804  54.429  1.00  0.00     0.021 C 
HETATM    8  C11 UNL     1      23.054  -0.742  53.172  1.00  0.00     0.028 C 
HETATM    9  C12 UNL     1      23.088   0.504  52.565  1.00  0.00     0.073 C 
HETATM   10 CL1  UNL     1      21.505   1.079  53.104  1.00  0.00    -0.081 Cl
HETATM   11  C13 UNL     1      23.851   1.344  51.777  1.00  0.00     0.147 C 
HETATM   12  F1  UNL     1      23.125   2.110  50.926  1.00  0.00    -0.204 F 
ENDROOT
BRANCH   1  13
HETATM   13  C5  UNL     1      25.616   2.850  52.030  1.00  0.00     0.165 C 
BRANCH  13  14
HETATM   14  N2  UNL     1      26.522   3.405  51.084  1.00  0.00    -0.357 N 
HETATM   15  C4  UNL     1      26.226   4.014  49.847  1.00  0.00     0.219 C 
HETATM   16  O2  UNL     1      25.039   4.121  49.453  1.00  0.00    -0.274 OA
HETATM   17  H7  UNL     1      27.572   3.397  51.261  1.00  0.00     0.162 HD
BRANCH  15  18
HETATM   18  C3  UNL     1      27.213   4.575  48.906  1.00  0.00     0.122 C 
BRANCH  18  19
HETATM   19  C2  UNL     1      26.931   6.028  48.591  1.00  0.00     0.131 C 
BRANCH  19  20
HETATM   20  N1  UNL     1      26.633   6.801  49.760  1.00  0.00    -0.368 N 
HETATM   21  H2  UNL     1      26.408   6.446  50.708  1.00  0.00     0.161 HD
BRANCH  20  22
HETATM   22  C1  UNL     1      26.670   8.210  49.522  1.00  0.00     0.348 C 
HETATM   23  O1  UNL     1      27.254   8.961  50.360  1.00  0.00    -0.284 OA
ENDBRANCH  20  22
ENDBRANCH  19  20
ENDBRANCH  18  19
ENDBRANCH  15  18
ENDBRANCH  13  14
ENDBRANCH   1  13
TORSDOF 6
ENDMDL
MODEL 7
REMARK VINA RESULT:      -6.3      3.461      6.499
REMARK  6 active torsions:
REMARK  status: ('A' for Active; 'I' for Inactive)
REMARK    1  A    between atoms: C1_2  and  N1_3 
REMARK    2  A    between atoms: N1_3  and  C2_4 
REMARK    3  A    between atoms: C2_4  and  C3_5 
REMARK    4  A    between atoms: C3_5  and  C4_6 
REMARK       I    between atoms: C4_6  and  N2_8 
REMARK    5  A    between atoms: N2_8  and  C5_9 
REMARK    6  A    between atoms: C5_9  and  C6_10 
ROOT
HETATM    1  C6  UNL     1      24.840   2.241  52.018  1.00  0.00     0.017 C 
HETATM    2  C7  UNL     1      26.116   2.279  51.542  1.00  0.00     0.130 C 
HETATM    3  N3  UNL     1      27.405   2.409  51.889  1.00  0.00    -0.253 NA
HETATM    4  C8  UNL     1      27.911   1.819  53.003  1.00  0.00     0.232 C 
HETATM    5  N4  UNL     1      27.422   1.785  54.253  1.00  0.00    -0.254 NA
HETATM    6  C9  UNL     1      27.266   0.571  54.855  1.00  0.00     0.118 C 
HETATM    7  C10 UNL     1      26.231  -0.273  54.502  1.00  0.00     0.021 C 
HETATM    8  C11 UNL     1      25.502  -0.755  53.423  1.00  0.00     0.028 C 
HETATM    9  C12 UNL     1      24.426   0.030  53.038  1.00  0.00     0.073 C 
HETATM   10 CL1  UNL     1      23.178  -0.790  53.986  1.00  0.00    -0.081 Cl
HETATM   11  C13 UNL     1      24.048   1.106  52.259  1.00  0.00     0.147 C 
HETATM   12  F1  UNL     1      22.811   0.987  51.719  1.00  0.00    -0.204 F 
ENDROOT
BRANCH   1  13
HETATM   13  C5  UNL     1      24.048   3.437  52.382  1.00  0.00     0.165 C 
BRANCH  13  14
HETATM   14  N2  UNL     1      23.424   4.118  51.301  1.00  0.00    -0.357 N 
HETATM   15  C4  UNL     1      22.065   4.472  51.161  1.00  0.00     0.219 C 
HETATM   16  O2  UNL     1      21.233   4.186  52.056  1.00  0.00    -0.274 OA
HETATM   17  H7  UNL     1      23.986   4.433  50.454  1.00  0.00     0.162 HD
BRANCH  15  18
HETATM   18  C3  UNL     1      21.475   5.183  50.012  1.00  0.00     0.122 C 
BRANCH  18  19
HETATM   19  C2  UNL     1      21.106   6.609  50.360  1.00  0.00     0.131 C 
BRANCH  19  20
HETATM   20  N1  UNL     1      22.017   7.207  51.289  1.00  0.00    -0.368 N 
HETATM   21  H2  UNL     1      21.888   7.321  52.313  1.00  0.00     0.161 HD
BRANCH  20  22
HETATM   22  C1  UNL     1      23.218   7.674  50.671  1.00  0.00     0.348 C 
HETATM   23  O1  UNL     1      24.331   7.195  51.045  1.00  0.00    -0.284 OA
ENDBRANCH  20  22
ENDBRANCH  19  20
ENDBRANCH  18  19
ENDBRANCH  15  18
ENDBRANCH  13  14
ENDBRANCH   1  13
TORSDOF 6
ENDMDL
MODEL 8
REMARK VINA RESULT:      -6.2      1.756      2.224
REMARK  6 active torsions:
REMARK  status: ('A' for Active; 'I' for Inactive)
REMARK    1  A    between atoms: C1_2  and  N1_3 
REMARK    2  A    between atoms: N1_3  and  C2_4 
REMARK    3  A    between atoms: C2_4  and  C3_5 
REMARK    4  A    between atoms: C3_5  and  C4_6 
REMARK       I    between atoms: C4_6  and  N2_8 
REMARK    5  A    between atoms: N2_8  and  C5_9 
REMARK    6  A    between atoms: C5_9  and  C6_10 
ROOT
HETATM    1  C6  UNL     1      22.185   1.247  52.993  1.00  0.00     0.017 C 
HETATM    2  C7  UNL     1      22.656   2.378  52.397  1.00  0.00     0.130 C 
HETATM    3  N3  UNL     1      23.110   2.894  51.245  1.00  0.00    -0.253 NA
HETATM    4  C8  UNL     1      22.553   2.576  50.048  1.00  0.00     0.232 C 
HETATM    5  N4  UNL     1      22.214   1.376  49.551  1.00  0.00    -0.254 NA
HETATM    6  C9  UNL     1      20.940   1.198  49.098  1.00  0.00     0.118 C 
HETATM    7  C10 UNL     1      19.885   1.054  49.977  1.00  0.00     0.021 C 
HETATM    8  C11 UNL     1      19.356   1.520  51.174  1.00  0.00     0.028 C 
HETATM    9  C12 UNL     1      19.835   0.897  52.315  1.00  0.00     0.073 C 
HETATM   10 CL1  UNL     1      18.571  -0.330  52.471  1.00  0.00    -0.081 Cl
HETATM   11  C13 UNL     1      20.846   0.910  53.256  1.00  0.00     0.147 C 
HETATM   12  F1  UNL     1      20.443   0.562  54.502  1.00  0.00    -0.204 F 
ENDROOT
BRANCH   1  13
HETATM   13  C5  UNL     1      23.039   0.138  53.475  1.00  0.00     0.165 C 
BRANCH  13  14
HETATM   14  N2  UNL     1      24.419   0.231  53.145  1.00  0.00    -0.357 N 
HETATM   15  C4  UNL     1      25.516  -0.352  53.812  1.00  0.00     0.219 C 
HETATM   16  O2  UNL     1      25.342  -1.057  54.836  1.00  0.00    -0.274 OA
HETATM   17  H7  UNL     1      24.744   0.794  52.302  1.00  0.00     0.162 HD
BRANCH  15  18
HETATM   18  C3  UNL     1      26.931  -0.222  53.419  1.00  0.00     0.122 C 
BRANCH  18  19
HETATM   19  C2  UNL     1      27.841  -0.086  54.620  1.00  0.00     0.131 C 
BRANCH  19  20
HETATM   20  N1  UNL     1      29.062   0.600  54.317  1.00  0.00    -0.368 N 
HETATM   21  H2  UNL     1      30.022   0.332  54.604  1.00  0.00     0.161 HD
BRANCH  20  22
HETATM   22  C1  UNL     1      28.860   1.774  53.528  1.00  0.00     0.348 C 
HETATM   23  O1  UNL     1      28.426   2.826  54.088  1.00  0.00    -0.284 OA
ENDBRANCH  20  22
ENDBRANCH  19  20
ENDBRANCH  18  19
ENDBRANCH  15  18
ENDBRANCH  13  14
ENDBRANCH   1  13
TORSDOF 6
ENDMDL
MODEL 9
REMARK VINA RESULT:      -6.0      4.294      6.055
REMARK  6 active torsions:
REMARK  status: ('A' for Active; 'I' for Inactive)
REMARK    1  A    between atoms: C1_2  and  N1_3 
REMARK    2  A    between atoms: N1_3  and  C2_4 
REMARK    3  A    between atoms: C2_4  and  C3_5 
REMARK    4  A    between atoms: C3_5  and  C4_6 
REMARK       I    between atoms: C4_6  and  N2_8 
REMARK    5  A    between atoms: N2_8  and  C5_9 
REMARK    6  A    between atoms: C5_9  and  C6_10 
ROOT
HETATM    1  C6  UNL     1      26.101   2.536  52.336  1.00  0.00     0.017 C 
HETATM    2  C7  UNL     1      24.853   2.890  52.752  1.00  0.00     0.130 C 
HETATM    3  N3  UNL     1      23.580   2.479  52.852  1.00  0.00    -0.253 NA
HETATM    4  C8  UNL     1      23.264   1.207  53.208  1.00  0.00     0.232 C 
HETATM    5  N4  UNL     1      23.763   0.042  52.764  1.00  0.00    -0.254 NA
HETATM    6  C9  UNL     1      24.241  -0.849  53.679  1.00  0.00     0.118 C 
HETATM    7  C10 UNL     1      25.455  -0.647  54.305  1.00  0.00     0.021 C 
HETATM    8  C11 UNL     1      26.270   0.321  54.877  1.00  0.00     0.028 C 
HETATM    9  C12 UNL     1      27.096   0.997  53.993  1.00  0.00     0.073 C 
HETATM   10 CL1  UNL     1      28.530  -0.022  54.174  1.00  0.00    -0.081 Cl
HETATM   11  C13 UNL     1      27.167   2.068  53.124  1.00  0.00     0.147 C 
HETATM   12  F1  UNL     1      28.383   2.663  53.080  1.00  0.00    -0.204 F 
ENDROOT
BRANCH   1  13
HETATM   13  C5  UNL     1      26.557   2.580  50.929  1.00  0.00     0.165 C 
BRANCH  13  14
HETATM   14  N2  UNL     1      26.754   3.878  50.383  1.00  0.00    -0.357 N 
HETATM   15  C4  UNL     1      25.861   4.638  49.599  1.00  0.00     0.219 C 
HETATM   16  O2  UNL     1      24.729   4.187  49.297  1.00  0.00    -0.274 OA
HETATM   17  H7  UNL     1      27.663   4.407  50.542  1.00  0.00     0.162 HD
BRANCH  15  18
HETATM   18  C3  UNL     1      26.121   5.986  49.060  1.00  0.00     0.122 C 
BRANCH  18  19
HETATM   19  C2  UNL     1      25.822   7.067  50.075  1.00  0.00     0.131 C 
BRANCH  19  20
HETATM   20  N1  UNL     1      24.683   7.861  49.721  1.00  0.00    -0.368 N 
HETATM   21  H2  UNL     1      24.554   8.428  48.862  1.00  0.00     0.161 HD
BRANCH  20  22
HETATM   22  C1  UNL     1      23.647   7.821  50.704  1.00  0.00     0.348 C 
HETATM   23  O1  UNL     1      23.163   6.699  51.043  1.00  0.00    -0.284 OA
ENDBRANCH  20  22
ENDBRANCH  19  20
ENDBRANCH  18  19
ENDBRANCH  15  18
ENDBRANCH  13  14
ENDBRANCH   1  13
TORSDOF 6
ENDMDL
