MODEL 1
REMARK VINA RESULT:      -7.7      0.000      0.000
REMARK  5 active torsions:
REMARK  status: ('A' for Active; 'I' for Inactive)
REMARK    1  A    between atoms: O1_2  and  C2_3 
REMARK    2  A    between atoms: C2_3  and  N1_4 
REMARK    3  A    between atoms: N1_4  and  C3_5 
REMARK    4  A    between atoms: C4_6  and  O2_7 
REMARK    5  A    between atoms: C10_14  and  O4_15 
ROOT
HETATM    1  C3  UNL     1      25.814   1.211  52.832  1.00  0.00     0.063 C 
HETATM    2  C4  UNL     1      24.783   0.476  53.171  1.00  0.00     0.096 C 
HETATM    3  C6  UNL     1      23.420   0.111  52.916  1.00  0.00     0.063 C 
HETATM    4  C7  UNL     1      22.302   0.200  52.268  1.00  0.00     0.145 C 
HETATM    5  O3  UNL     1      21.297   0.601  51.323  1.00  0.00    -0.324 OA
HETATM    6  C8  UNL     1      21.833   1.369  50.242  1.00  0.00     0.089 A 
HETATM    7  C9  UNL     1      21.699   1.484  48.888  1.00  0.00     0.068 A 
HETATM    8  C10 UNL     1      22.519   2.415  48.295  1.00  0.00     0.058 A 
HETATM    9  C12 UNL     1      23.375   3.104  49.212  1.00  0.00     0.121 A 
HETATM   10  C13 UNL     1      23.753   3.223  50.631  1.00  0.00     0.139 A 
HETATM   11  C14 UNL     1      24.731   4.193  50.664  1.00  0.00     0.094 A 
HETATM   12  N2  UNL     1      24.059   3.863  51.668  1.00  0.00    -0.313 N 
HETATM   13  C15 UNL     1      23.357   3.477  52.595  1.00  0.00     0.207 A 
HETATM   14  N3  UNL     1      22.707   2.602  51.879  1.00  0.00    -0.263 NA
HETATM   15  C16 UNL     1      22.784   2.261  50.594  1.00  0.00     0.149 A 
HETATM   16  N4  UNL     1      25.437   4.495  49.432  1.00  0.00    -0.277 NA
HETATM   17  C17 UNL     1      26.037   3.199  49.604  1.00  0.00     0.120 C 
HETATM   18  C18 UNL     1      26.770   2.918  50.830  1.00  0.00    -0.010 C 
HETATM   19  C19 UNL     1      26.530   2.146  51.917  1.00  0.00     0.029 C 
HETATM   20  H18 UNL     1      24.857   5.377  49.579  1.00  0.00     0.129 HD
ENDROOT
BRANCH   1  21
HETATM   21  N1  UNL     1      26.665   0.708  53.893  1.00  0.00    -0.366 N 
HETATM   22  H6  UNL     1      27.538   1.171  53.455  1.00  0.00     0.162 HD
BRANCH  21  23
HETATM   23  C2  UNL     1      27.530   0.197  54.967  1.00  0.00     0.289 C 
BRANCH  23  24
HETATM   24  O1  UNL     1      28.709   0.960  54.984  1.00  0.00    -0.377 OA
HETATM   25  C1  UNL     1      29.429   0.681  53.847  1.00  0.00     0.203 C 
ENDBRANCH  23  24
ENDBRANCH  21  23
ENDBRANCH   1  21
BRANCH   2  26
HETATM   26  O2  UNL     1      25.264  -0.236  54.261  1.00  0.00    -0.354 OA
HETATM   27  C5  UNL     1      24.499  -1.101  55.064  1.00  0.00     0.210 C 
ENDBRANCH   2  26
BRANCH   8  28
HETATM   28  O4  UNL     1      22.283   2.434  46.900  1.00  0.00    -0.360 OA
HETATM   29  C11 UNL     1      21.872   3.687  46.373  1.00  0.00     0.209 C 
ENDBRANCH   8  28
TORSDOF 5
ENDMDL
MODEL 2
REMARK VINA RESULT:      -6.9      2.140      6.794
REMARK  5 active torsions:
REMARK  status: ('A' for Active; 'I' for Inactive)
REMARK    1  A    between atoms: O1_2  and  C2_3 
REMARK    2  A    between atoms: C2_3  and  N1_4 
REMARK    3  A    between atoms: N1_4  and  C3_5 
REMARK    4  A    between atoms: C4_6  and  O2_7 
REMARK    5  A    between atoms: C10_14  and  O4_15 
ROOT
HETATM    1  C3  UNL     1      22.183   2.310  49.854  1.00  0.00     0.063 C 
HETATM    2  C4  UNL     1      23.202   2.999  49.400  1.00  0.00     0.096 C 
HETATM    3  C6  UNL     1      24.599   3.305  49.505  1.00  0.00     0.063 C 
HETATM    4  C7  UNL     1      25.772   3.180  50.039  1.00  0.00     0.145 C 
HETATM    5  O3  UNL     1      26.850   2.757  50.889  1.00  0.00    -0.324 OA
HETATM    6  C8  UNL     1      26.521   1.599  51.660  1.00  0.00     0.089 A 
HETATM    7  C9  UNL     1      27.095   0.429  52.067  1.00  0.00     0.068 A 
HETATM    8  C10 UNL     1      26.284  -0.393  52.815  1.00  0.00     0.058 A 
HETATM    9  C12 UNL     1      24.970   0.130  53.034  1.00  0.00     0.121 A 
HETATM   10  C13 UNL     1      24.080   1.272  52.764  1.00  0.00     0.139 A 
HETATM   11  C14 UNL     1      22.890   0.958  53.380  1.00  0.00     0.094 A 
HETATM   12  N2  UNL     1      23.215   2.129  53.074  1.00  0.00    -0.313 N 
HETATM   13  C15 UNL     1      23.613   3.237  52.739  1.00  0.00     0.207 A 
HETATM   14  N3  UNL     1      24.738   2.802  52.246  1.00  0.00    -0.263 NA
HETATM   15  C16 UNL     1      25.262   1.580  52.151  1.00  0.00     0.149 A 
HETATM   16  N4  UNL     1      22.629  -0.435  53.695  1.00  0.00    -0.277 NA
HETATM   17  C17 UNL     1      22.494  -0.601  52.273  1.00  0.00     0.120 C 
HETATM   18  C18 UNL     1      21.506   0.196  51.559  1.00  0.00    -0.010 C 
HETATM   19  C19 UNL     1      21.580   1.239  50.697  1.00  0.00     0.029 C 
HETATM   20  H18 UNL     1      22.772  -0.011  54.662  1.00  0.00     0.129 HD
ENDROOT
BRANCH   1  21
HETATM   21  N1  UNL     1      21.230   2.895  48.930  1.00  0.00    -0.366 N 
HETATM   22  H6  UNL     1      21.547   3.895  49.188  1.00  0.00     0.162 HD
BRANCH  21  23
HETATM   23  C2  UNL     1      20.265   3.490  47.994  1.00  0.00     0.289 C 
BRANCH  23  24
HETATM   24  O1  UNL     1      19.134   3.892  48.724  1.00  0.00    -0.377 OA
HETATM   25  C1  UNL     1      19.494   4.925  49.557  1.00  0.00     0.203 C 
ENDBRANCH  23  24
ENDBRANCH  21  23
ENDBRANCH   1  21
BRANCH   2  26
HETATM   26  O2  UNL     1      22.631   3.750  48.384  1.00  0.00    -0.354 OA
HETATM   27  C5  UNL     1      23.104   4.997  47.935  1.00  0.00     0.210 C 
ENDBRANCH   2  26
BRANCH   8  28
HETATM   28  O4  UNL     1      26.994  -1.564  53.169  1.00  0.00    -0.360 OA
HETATM   29  C11 UNL     1      28.407  -1.422  53.221  1.00  0.00     0.209 C 
ENDBRANCH   8  28
TORSDOF 5
ENDMDL
MODEL 3
REMARK VINA RESULT:      -6.8      3.102      6.480
REMARK  5 active torsions:
REMARK  status: ('A' for Active; 'I' for Inactive)
REMARK    1  A    between atoms: O1_2  and  C2_3 
REMARK    2  A    between atoms: C2_3  and  N1_4 
REMARK    3  A    between atoms: N1_4  and  C3_5 
REMARK    4  A    between atoms: C4_6  and  O2_7 
REMARK    5  A    between atoms: C10_14  and  O4_15 
ROOT
HETATM    1  C3  UNL     1      21.298   4.177  51.282  1.00  0.00     0.063 C 
HETATM    2  C4  UNL     1      20.073   3.719  51.200  1.00  0.00     0.096 C 
HETATM    3  C6  UNL     1      19.172   2.625  51.422  1.00  0.00     0.063 C 
HETATM    4  C7  UNL     1      18.890   1.420  51.804  1.00  0.00     0.145 C 
HETATM    5  O3  UNL     1      19.013   0.082  52.314  1.00  0.00    -0.324 OA
HETATM    6  C8  UNL     1      20.266  -0.145  52.966  1.00  0.00     0.089 A 
HETATM    7  C9  UNL     1      20.756  -0.767  54.078  1.00  0.00     0.068 A 
HETATM    8  C10 UNL     1      22.114  -0.654  54.263  1.00  0.00     0.058 A 
HETATM    9  C12 UNL     1      22.777   0.105  53.247  1.00  0.00     0.121 A 
HETATM   10  C13 UNL     1      22.575   0.861  52.000  1.00  0.00     0.139 A 
HETATM   11  C14 UNL     1      23.828   1.307  51.640  1.00  0.00     0.094 A 
HETATM   12  N2  UNL     1      22.875   1.215  50.832  1.00  0.00    -0.313 N 
HETATM   13  C15 UNL     1      21.890   1.093  50.114  1.00  0.00     0.207 A 
HETATM   14  N3  UNL     1      21.117   0.654  51.067  1.00  0.00    -0.263 NA
HETATM   15  C16 UNL     1      21.334   0.419  52.360  1.00  0.00     0.149 A 
HETATM   16  N4  UNL     1      24.855   1.361  52.664  1.00  0.00    -0.277 NA
HETATM   17  C17 UNL     1      24.089   2.456  53.198  1.00  0.00     0.120 C 
HETATM   18  C18 UNL     1      23.822   3.610  52.352  1.00  0.00    -0.010 C 
HETATM   19  C19 UNL     1      22.717   4.092  51.734  1.00  0.00     0.029 C 
HETATM   20  H18 UNL     1      25.197   0.562  52.048  1.00  0.00     0.129 HD
ENDROOT
BRANCH   1  21
HETATM   21  N1  UNL     1      20.976   5.466  50.700  1.00  0.00    -0.366 N 
HETATM   22  H6  UNL     1      22.022   5.711  50.585  1.00  0.00     0.162 HD
BRANCH  21  23
HETATM   23  C2  UNL     1      20.650   6.773  50.110  1.00  0.00     0.289 C 
BRANCH  23  24
HETATM   24  O1  UNL     1      21.370   7.760  50.802  1.00  0.00    -0.377 OA
HETATM   25  C1  UNL     1      22.705   7.616  50.508  1.00  0.00     0.203 C 
ENDBRANCH  23  24
ENDBRANCH  21  23
ENDBRANCH   1  21
BRANCH   2  26
HETATM   26  O2  UNL     1      19.386   4.787  50.644  1.00  0.00    -0.354 OA
HETATM   27  C5  UNL     1      18.097   4.718  50.084  1.00  0.00     0.210 C 
ENDBRANCH   2  26
BRANCH   8  28
HETATM   28  O4  UNL     1      22.490  -1.338  55.443  1.00  0.00    -0.360 OA
HETATM   29  C11 UNL     1      23.886  -1.375  55.702  1.00  0.00     0.209 C 
ENDBRANCH   8  28
TORSDOF 5
ENDMDL
MODEL 4
REMARK VINA RESULT:      -6.7      2.811      4.861
REMARK  5 active torsions:
REMARK  status: ('A' for Active; 'I' for Inactive)
REMARK    1  A    between atoms: O1_2  and  C2_3 
REMARK    2  A    between atoms: C2_3  and  N1_4 
REMARK    3  A    between atoms: N1_4  and  C3_5 
REMARK    4  A    between atoms: C4_6  and  O2_7 
REMARK    5  A    between atoms: C10_14  and  O4_15 
ROOT
HETATM    1  C3  UNL     1      23.705   1.986  52.152  1.00  0.00     0.063 C 
HETATM    2  C4  UNL     1      24.930   1.787  51.730  1.00  0.00     0.096 C 
HETATM    3  C6  UNL     1      26.035   2.266  50.950  1.00  0.00     0.063 C 
HETATM    4  C7  UNL     1      26.611   3.122  50.167  1.00  0.00     0.145 C 
HETATM    5  O3  UNL     1      26.858   4.273  49.345  1.00  0.00    -0.324 OA
HETATM    6  C8  UNL     1      25.873   5.295  49.520  1.00  0.00     0.089 A 
HETATM    7  C9  UNL     1      25.799   6.654  49.626  1.00  0.00     0.068 A 
HETATM    8  C10 UNL     1      24.534   7.160  49.821  1.00  0.00     0.058 A 
HETATM    9  C12 UNL     1      23.512   6.160  49.878  1.00  0.00     0.121 A 
HETATM   10  C13 UNL     1      23.254   4.711  49.805  1.00  0.00     0.139 A 
HETATM   11  C14 UNL     1      21.893   4.577  49.970  1.00  0.00     0.094 A 
HETATM   12  N2  UNL     1      22.610   3.695  49.443  1.00  0.00    -0.313 N 
HETATM   13  C15 UNL     1      23.385   2.890  48.942  1.00  0.00     0.207 A 
HETATM   14  N3  UNL     1      24.440   3.636  49.115  1.00  0.00    -0.263 NA
HETATM   15  C16 UNL     1      24.604   4.848  49.645  1.00  0.00     0.149 A 
HETATM   16  N4  UNL     1      21.167   5.673  50.586  1.00  0.00    -0.277 NA
HETATM   17  C17 UNL     1      21.841   5.274  51.794  1.00  0.00     0.120 C 
HETATM   18  C18 UNL     1      21.677   3.910  52.276  1.00  0.00    -0.010 C 
HETATM   19  C19 UNL     1      22.487   2.826  52.331  1.00  0.00     0.029 C 
HETATM   20  H18 UNL     1      20.826   5.718  49.578  1.00  0.00     0.129 HD
ENDROOT
BRANCH   1  21
HETATM   21  N1  UNL     1      23.639   0.741  52.894  1.00  0.00    -0.366 N 
HETATM   22  H6  UNL     1      24.714   0.637  52.877  1.00  0.00     0.162 HD
BRANCH  21  23
HETATM   23  C2  UNL     1      23.572  -0.521  53.646  1.00  0.00     0.289 C 
BRANCH  23  24
HETATM   24  O1  UNL     1      22.387  -1.185  53.287  1.00  0.00    -0.377 OA
HETATM   25  C1  UNL     1      21.637  -1.387  54.422  1.00  0.00     0.203 C 
ENDBRANCH  23  24
ENDBRANCH  21  23
ENDBRANCH   1  21
BRANCH   2  26
HETATM   26  O2  UNL     1      25.255   0.567  52.304  1.00  0.00    -0.354 OA
HETATM   27  C5  UNL     1      26.499  -0.079  52.186  1.00  0.00     0.210 C 
ENDBRANCH   2  26
BRANCH   8  28
HETATM   28  O4  UNL     1      24.597   8.570  49.915  1.00  0.00    -0.360 OA
HETATM   29  C11 UNL     1      25.907   9.113  49.992  1.00  0.00     0.209 C 
ENDBRANCH   8  28
TORSDOF 5
ENDMDL
MODEL 5
REMARK VINA RESULT:      -6.7      2.935      4.922
REMARK  5 active torsions:
REMARK  status: ('A' for Active; 'I' for Inactive)
REMARK    1  A    between atoms: O1_2  and  C2_3 
REMARK    2  A    between atoms: C2_3  and  N1_4 
REMARK    3  A    between atoms: N1_4  and  C3_5 
REMARK    4  A    between atoms: C4_6  and  O2_7 
REMARK    5  A    between atoms: C10_14  and  O4_15 
ROOT
HETATM    1  C3  UNL     1      23.898   1.561  51.779  1.00  0.00     0.063 C 
HETATM    2  C4  UNL     1      24.107   2.530  50.921  1.00  0.00     0.096 C 
HETATM    3  C6  UNL     1      23.540   3.531  50.063  1.00  0.00     0.063 C 
HETATM    4  C7  UNL     1      22.546   4.168  49.531  1.00  0.00     0.145 C 
HETATM    5  O3  UNL     1      21.215   4.589  49.193  1.00  0.00    -0.324 OA
HETATM    6  C8  UNL     1      20.227   4.054  50.078  1.00  0.00     0.089 A 
HETATM    7  C9  UNL     1      19.093   4.452  50.725  1.00  0.00     0.068 A 
HETATM    8  C10 UNL     1      18.505   3.496  51.521  1.00  0.00     0.058 A 
HETATM    9  C12 UNL     1      19.196   2.242  51.529  1.00  0.00     0.121 A 
HETATM   10  C13 UNL     1      20.360   1.518  50.990  1.00  0.00     0.139 A 
HETATM   11  C14 UNL     1      20.291   0.259  51.544  1.00  0.00     0.094 A 
HETATM   12  N2  UNL     1      20.941   0.516  50.504  1.00  0.00    -0.313 N 
HETATM   13  C15 UNL     1      21.548   0.857  49.497  1.00  0.00     0.207 A 
HETATM   14  N3  UNL     1      21.190   2.108  49.575  1.00  0.00    -0.263 NA
HETATM   15  C16 UNL     1      20.427   2.769  50.444  1.00  0.00     0.149 A 
HETATM   16  N4  UNL     1      19.497   0.083  52.746  1.00  0.00    -0.277 NA
HETATM   17  C17 UNL     1      20.538   0.837  53.393  1.00  0.00     0.120 C 
HETATM   18  C18 UNL     1      21.908   0.349  53.329  1.00  0.00    -0.010 C 
HETATM   19  C19 UNL     1      23.024   0.753  52.676  1.00  0.00     0.029 C 
HETATM   20  H18 UNL     1      18.918  -0.438  52.019  1.00  0.00     0.129 HD
ENDROOT
BRANCH   1  21
HETATM   21  N1  UNL     1      25.306   1.257  51.950  1.00  0.00    -0.366 N 
HETATM   22  H6  UNL     1      25.147   0.223  51.681  1.00  0.00     0.162 HD
BRANCH  21  23
HETATM   23  C2  UNL     1      26.733   0.948  52.123  1.00  0.00     0.289 C 
BRANCH  23  24
HETATM   24  O1  UNL     1      26.903  -0.439  51.984  1.00  0.00    -0.377 OA
HETATM   25  C1  UNL     1      26.362  -1.061  53.084  1.00  0.00     0.203 C 
ENDBRANCH  23  24
ENDBRANCH  21  23
ENDBRANCH   1  21
BRANCH   2  26
HETATM   26  O2  UNL     1      25.490   2.558  50.825  1.00  0.00    -0.354 OA
HETATM   27  C5  UNL     1      26.225   3.389  49.960  1.00  0.00     0.210 C 
ENDBRANCH   2  26
BRANCH   8  28
HETATM   28  O4  UNL     1      17.347   4.033  52.130  1.00  0.00    -0.360 OA
HETATM   29  C11 UNL     1      16.189   4.061  51.308  1.00  0.00     0.209 C 
ENDBRANCH   8  28
TORSDOF 5
ENDMDL
MODEL 6
REMARK VINA RESULT:      -6.6      2.903      4.463
REMARK  5 active torsions:
REMARK  status: ('A' for Active; 'I' for Inactive)
REMARK    1  A    between atoms: O1_2  and  C2_3 
REMARK    2  A    between atoms: C2_3  and  N1_4 
REMARK    3  A    between atoms: N1_4  and  C3_5 
REMARK    4  A    between atoms: C4_6  and  O2_7 
REMARK    5  A    between atoms: C10_14  and  O4_15 
ROOT
HETATM    1  C3  UNL     1      23.519   1.993  50.984  1.00  0.00     0.063 C 
HETATM    2  C4  UNL     1      23.445   1.368  52.134  1.00  0.00     0.096 C 
HETATM    3  C6  UNL     1      22.616   0.718  53.108  1.00  0.00     0.063 C 
HETATM    4  C7  UNL     1      21.477   0.303  53.563  1.00  0.00     0.145 C 
HETATM    5  O3  UNL     1      20.073   0.027  53.688  1.00  0.00    -0.324 OA
HETATM    6  C8  UNL     1      19.360   0.238  52.466  1.00  0.00     0.089 A 
HETATM    7  C9  UNL     1      18.370  -0.349  51.731  1.00  0.00     0.068 A 
HETATM    8  C10 UNL     1      18.061   0.285  50.550  1.00  0.00     0.058 A 
HETATM    9  C12 UNL     1      18.842   1.459  50.301  1.00  0.00     0.121 A 
HETATM   10  C13 UNL     1      19.912   2.317  50.838  1.00  0.00     0.139 A 
HETATM   11  C14 UNL     1      20.077   3.315  49.904  1.00  0.00     0.094 A 
HETATM   12  N2  UNL     1      20.452   3.421  51.095  1.00  0.00    -0.313 N 
HETATM   13  C15 UNL     1      20.785   3.437  52.274  1.00  0.00     0.207 A 
HETATM   14  N3  UNL     1      20.347   2.235  52.524  1.00  0.00    -0.263 NA
HETATM   15  C16 UNL     1      19.746   1.323  51.761  1.00  0.00     0.149 A 
HETATM   16  N4  UNL     1      19.593   3.080  48.556  1.00  0.00    -0.277 NA
HETATM   17  C17 UNL     1      20.684   2.147  48.462  1.00  0.00     0.120 C 
HETATM   18  C18 UNL     1      22.041   2.621  48.691  1.00  0.00    -0.010 C 
HETATM   19  C19 UNL     1      22.943   2.455  49.689  1.00  0.00     0.029 C 
HETATM   20  H18 UNL     1      18.912   3.818  48.912  1.00  0.00     0.129 HD
ENDROOT
BRANCH   1  21
HETATM   21  N1  UNL     1      24.950   2.214  51.067  1.00  0.00    -0.366 N 
HETATM   22  H6  UNL     1      24.940   2.075  52.139  1.00  0.00     0.162 HD
BRANCH  21  23
HETATM   23  C2  UNL     1      26.401   2.439  51.153  1.00  0.00     0.289 C 
BRANCH  23  24
HETATM   24  O1  UNL     1      26.849   2.907  49.907  1.00  0.00    -0.377 OA
HETATM   25  C1  UNL     1      26.336   4.166  49.701  1.00  0.00     0.203 C 
ENDBRANCH  23  24
ENDBRANCH  21  23
ENDBRANCH   1  21
BRANCH   2  26
HETATM   26  O2  UNL     1      24.764   1.368  52.564  1.00  0.00    -0.354 OA
HETATM   27  C5  UNL     1      25.250   0.669  53.684  1.00  0.00     0.210 C 
ENDBRANCH   2  26
BRANCH   8  28
HETATM   28  O4  UNL     1      17.029  -0.420  49.890  1.00  0.00    -0.360 OA
HETATM   29  C11 UNL     1      15.905  -0.743  50.696  1.00  0.00     0.209 C 
ENDBRANCH   8  28
TORSDOF 5
ENDMDL
MODEL 7
REMARK VINA RESULT:      -6.5      2.189      2.424
REMARK  5 active torsions:
REMARK  status: ('A' for Active; 'I' for Inactive)
REMARK    1  A    between atoms: O1_2  and  C2_3 
REMARK    2  A    between atoms: C2_3  and  N1_4 
REMARK    3  A    between atoms: N1_4  and  C3_5 
REMARK    4  A    between atoms: C4_6  and  O2_7 
REMARK    5  A    between atoms: C10_14  and  O4_15 
ROOT
HETATM    1  C3  UNL     1      24.290   1.565  51.964  1.00  0.00     0.063 C 
HETATM    2  C4  UNL     1      23.179   1.238  52.579  1.00  0.00     0.096 C 
HETATM    3  C6  UNL     1      21.803   1.547  52.838  1.00  0.00     0.063 C 
HETATM    4  C7  UNL     1      20.736   2.270  52.707  1.00  0.00     0.145 C 
HETATM    5  O3  UNL     1      19.829   3.309  52.306  1.00  0.00    -0.324 OA
HETATM    6  C8  UNL     1      20.334   4.091  51.220  1.00  0.00     0.089 A 
HETATM    7  C9  UNL     1      19.890   4.660  50.061  1.00  0.00     0.068 A 
HETATM    8  C10 UNL     1      20.849   5.320  49.327  1.00  0.00     0.058 A 
HETATM    9  C12 UNL     1      22.153   5.289  49.915  1.00  0.00     0.121 A 
HETATM   10  C13 UNL     1      22.931   4.804  51.068  1.00  0.00     0.139 A 
HETATM   11  C14 UNL     1      24.219   5.240  50.844  1.00  0.00     0.094 A 
HETATM   12  N2  UNL     1      23.792   4.914  51.976  1.00  0.00    -0.313 N 
HETATM   13  C15 UNL     1      23.292   4.577  53.042  1.00  0.00     0.207 A 
HETATM   14  N3  UNL     1      22.125   4.301  52.529  1.00  0.00    -0.263 NA
HETATM   15  C16 UNL     1      21.654   4.372  51.285  1.00  0.00     0.149 A 
HETATM   16  N4  UNL     1      24.594   5.599  49.489  1.00  0.00    -0.277 NA
HETATM   17  C17 UNL     1      24.511   4.187  49.226  1.00  0.00     0.120 C 
HETATM   18  C18 UNL     1      25.332   3.273  50.007  1.00  0.00    -0.010 C 
HETATM   19  C19 UNL     1      25.071   2.368  50.980  1.00  0.00     0.029 C 
HETATM   20  H18 UNL     1      24.586   6.546  49.975  1.00  0.00     0.129 HD
ENDROOT
BRANCH   1  21
HETATM   21  N1  UNL     1      25.054   0.463  52.517  1.00  0.00    -0.366 N 
HETATM   22  H6  UNL     1      25.895   1.109  52.724  1.00  0.00     0.162 HD
BRANCH  21  23
HETATM   23  C2  UNL     1      25.829  -0.653  53.078  1.00  0.00     0.289 C 
BRANCH  23  24
HETATM   24  O1  UNL     1      26.995  -0.131  53.661  1.00  0.00    -0.377 OA
HETATM   25  C1  UNL     1      26.713   0.233  54.957  1.00  0.00     0.203 C 
ENDBRANCH  23  24
ENDBRANCH  21  23
ENDBRANCH   1  21
BRANCH   2  26
HETATM   26  O2  UNL     1      23.544   0.096  53.277  1.00  0.00    -0.354 OA
HETATM   27  C5  UNL     1      22.668  -0.708  54.029  1.00  0.00     0.210 C 
ENDBRANCH   2  26
BRANCH   8  28
HETATM   28  O4  UNL     1      20.262   5.860  48.158  1.00  0.00    -0.360 OA
HETATM   29  C11 UNL     1      20.830   5.413  46.935  1.00  0.00     0.209 C 
ENDBRANCH   8  28
TORSDOF 5
ENDMDL
MODEL 8
REMARK VINA RESULT:      -6.5      2.804      5.773
REMARK  5 active torsions:
REMARK  status: ('A' for Active; 'I' for Inactive)
REMARK    1  A    between atoms: O1_2  and  C2_3 
REMARK    2  A    between atoms: C2_3  and  N1_4 
REMARK    3  A    between atoms: N1_4  and  C3_5 
REMARK    4  A    between atoms: C4_6  and  O2_7 
REMARK    5  A    between atoms: C10_14  and  O4_15 
ROOT
HETATM    1  C3  UNL     1      21.092   1.397  51.349  1.00  0.00     0.063 C 
HETATM    2  C4  UNL     1      20.600   2.187  50.425  1.00  0.00     0.096 C 
HETATM    3  C6  UNL     1      20.817   3.293  49.537  1.00  0.00     0.063 C 
HETATM    4  C7  UNL     1      21.537   4.240  49.026  1.00  0.00     0.145 C 
HETATM    5  O3  UNL     1      22.633   5.125  48.744  1.00  0.00    -0.324 OA
HETATM    6  C8  UNL     1      23.867   4.666  49.302  1.00  0.00     0.089 A 
HETATM    7  C9  UNL     1      25.186   4.574  48.960  1.00  0.00     0.068 A 
HETATM    8  C10 UNL     1      25.998   3.994  49.907  1.00  0.00     0.058 A 
HETATM    9  C12 UNL     1      25.308   3.586  51.093  1.00  0.00     0.121 A 
HETATM   10  C13 UNL     1      23.990   3.538  51.749  1.00  0.00     0.139 A 
HETATM   11  C14 UNL     1      24.215   2.940  52.969  1.00  0.00     0.094 A 
HETATM   12  N2  UNL     1      23.211   3.649  52.729  1.00  0.00    -0.313 N 
HETATM   13  C15 UNL     1      22.263   4.353  52.405  1.00  0.00     0.207 A 
HETATM   14  N3  UNL     1      22.685   4.548  51.187  1.00  0.00    -0.263 NA
HETATM   15  C16 UNL     1      23.770   4.128  50.537  1.00  0.00     0.149 A 
HETATM   16  N4  UNL     1      25.422   2.149  53.132  1.00  0.00    -0.277 NA
HETATM   17  C17 UNL     1      24.776   1.214  52.248  1.00  0.00     0.120 C 
HETATM   18  C18 UNL     1      23.477   0.672  52.620  1.00  0.00    -0.010 C 
HETATM   19  C19 UNL     1      22.214   0.855  52.167  1.00  0.00     0.029 C 
HETATM   20  H18 UNL     1      25.625   2.993  53.748  1.00  0.00     0.129 HD
ENDROOT
BRANCH   1  21
HETATM   21  N1  UNL     1      19.864   0.644  51.518  1.00  0.00    -0.366 N 
HETATM   22  H6  UNL     1      20.070   0.484  52.566  1.00  0.00     0.162 HD
BRANCH  21  23
HETATM   23  C2  UNL     1      18.619  -0.120  51.690  1.00  0.00     0.289 C 
BRANCH  23  24
HETATM   24  O1  UNL     1      18.722  -0.868  52.874  1.00  0.00    -0.377 OA
HETATM   25  C1  UNL     1      17.474  -1.343  53.203  1.00  0.00     0.203 C 
ENDBRANCH  23  24
ENDBRANCH  21  23
ENDBRANCH   1  21
BRANCH   2  26
HETATM   26  O2  UNL     1      19.302   1.719  50.285  1.00  0.00    -0.354 OA
HETATM   27  C5  UNL     1      18.340   2.251  49.408  1.00  0.00     0.210 C 
ENDBRANCH   2  26
BRANCH   8  28
HETATM   28  O4  UNL     1      27.330   3.959  49.432  1.00  0.00    -0.360 OA
HETATM   29  C11 UNL     1      27.695   5.031  48.575  1.00  0.00     0.209 C 
ENDBRANCH   8  28
TORSDOF 5
ENDMDL
MODEL 9
REMARK VINA RESULT:      -6.4      8.005     10.620
REMARK  5 active torsions:
REMARK  status: ('A' for Active; 'I' for Inactive)
REMARK    1  A    between atoms: O1_2  and  C2_3 
REMARK    2  A    between atoms: C2_3  and  N1_4 
REMARK    3  A    between atoms: N1_4  and  C3_5 
REMARK    4  A    between atoms: C4_6  and  O2_7 
REMARK    5  A    between atoms: C10_14  and  O4_15 
ROOT
HETATM    1  C3  UNL     1      29.460   6.159  48.235  1.00  0.00     0.063 C 
HETATM    2  C4  UNL     1      29.015   7.387  48.351  1.00  0.00     0.096 C 
HETATM    3  C6  UNL     1      29.299   8.790  48.272  1.00  0.00     0.063 C 
HETATM    4  C7  UNL     1      30.084   9.800  48.067  1.00  0.00     0.145 C 
HETATM    5  O3  UNL     1      31.245  10.592  47.768  1.00  0.00    -0.324 OA
HETATM    6  C8  UNL     1      32.303   9.822  47.193  1.00  0.00     0.089 A 
HETATM    7  C9  UNL     1      33.236   9.923  46.201  1.00  0.00     0.068 A 
HETATM    8  C10 UNL     1      34.042   8.820  46.038  1.00  0.00     0.058 A 
HETATM    9  C12 UNL     1      33.754   7.752  46.947  1.00  0.00     0.121 A 
HETATM   10  C13 UNL     1      32.885   7.334  48.060  1.00  0.00     0.139 A 
HETATM   11  C14 UNL     1      33.298   6.060  48.383  1.00  0.00     0.094 A 
HETATM   12  N2  UNL     1      32.652   6.792  49.170  1.00  0.00    -0.313 N 
HETATM   13  C15 UNL     1      32.020   7.573  49.870  1.00  0.00     0.207 A 
HETATM   14  N3  UNL     1      31.987   8.518  48.972  1.00  0.00    -0.263 NA
HETATM   15  C16 UNL     1      32.476   8.597  47.736  1.00  0.00     0.149 A 
HETATM   16  N4  UNL     1      34.050   5.313  47.392  1.00  0.00    -0.277 NA
HETATM   17  C17 UNL     1      32.802   5.248  46.678  1.00  0.00     0.120 C 
HETATM   18  C18 UNL     1      31.643   4.658  47.333  1.00  0.00    -0.010 C 
HETATM   19  C19 UNL     1      30.490   5.156  47.841  1.00  0.00     0.029 C 
HETATM   20  H18 UNL     1      34.791   5.511  48.131  1.00  0.00     0.129 HD
ENDROOT
BRANCH   1  21
HETATM   21  N1  UNL     1      28.199   5.546  48.607  1.00  0.00    -0.366 N 
HETATM   22  H6  UNL     1      28.356   4.731  47.916  1.00  0.00     0.162 HD
BRANCH  21  23
HETATM   23  C2  UNL     1      26.921   4.925  48.984  1.00  0.00     0.289 C 
BRANCH  23  24
HETATM   24  O1  UNL     1      27.198   3.752  49.706  1.00  0.00    -0.377 OA
HETATM   25  C1  UNL     1      26.010   3.221  50.152  1.00  0.00     0.203 C 
ENDBRANCH  23  24
ENDBRANCH  21  23
ENDBRANCH   1  21
BRANCH   2  26
HETATM   26  O2  UNL     1      27.692   7.196  48.721  1.00  0.00    -0.354 OA
HETATM   27  C5  UNL     1      26.782   8.222  49.033  1.00  0.00     0.210 C 
ENDBRANCH   2  26
BRANCH   8  28
HETATM   28  O4  UNL     1      34.957   9.053  44.986  1.00  0.00    -0.360 OA
HETATM   29  C11 UNL     1      34.615   8.456  43.743  1.00  0.00     0.209 C 
ENDBRANCH   8  28
TORSDOF 5
ENDMDL
