MODEL 1
REMARK VINA RESULT:      -7.4      0.000      0.000
REMARK  6 active torsions:
REMARK  status: ('A' for Active; 'I' for Inactive)
REMARK    1  A    between atoms: O1_2  and  S1_3 
REMARK    2  A    between atoms: S1_3  and  C2_4 
REMARK    3  A    between atoms: C6_8  and  S2_9 
REMARK    4  A    between atoms: C6_8  and  N1_10 
REMARK    5  A    between atoms: N1_10  and  C7_11 
REMARK    6  A    between atoms: C16_22  and  O2_23 
ROOT
HETATM    1  C2  UNL     1      27.702   6.302  48.515  1.00  0.00     0.058 A 
HETATM    2  C3  UNL     1      27.772   4.984  48.495  1.00  0.00     0.002 A 
HETATM    3  C4  UNL     1      26.823   4.081  49.160  1.00  0.00     0.070 A 
HETATM    4  C5  UNL     1      25.770   4.819  49.860  1.00  0.00    -0.019 A 
HETATM    5  C6  UNL     1      24.817   4.180  50.521  1.00  0.00     0.075 C 
HETATM    6  C15 UNL     1      25.704   6.276  49.874  1.00  0.00     0.048 A 
HETATM    7  C16 UNL     1      26.624   6.997  49.235  1.00  0.00     0.087 A 
ENDROOT
BRANCH   5   8
HETATM    8  S2  UNL     1      23.494   5.037  51.403  1.00  0.00    -0.125 SA
HETATM    9  H7  UNL     1      23.559   6.415  51.090  1.00  0.00     0.108 HD
ENDBRANCH   5   8
BRANCH   5  10
HETATM   10  N1  UNL     1      24.669   2.786  50.651  1.00  0.00    -0.334 N 
HETATM   11  H8  UNL     1      24.102   2.277  49.939  1.00  0.00     0.168 HD
BRANCH  10  12
HETATM   12  C7  UNL     1      25.264   2.070  51.714  1.00  0.00     0.146 A 
HETATM   13  C8  UNL     1      24.535   1.166  52.459  1.00  0.00     0.167 A 
HETATM   14  N2  UNL     1      25.155   0.518  53.454  1.00  0.00    -0.255 NA
HETATM   15  C9  UNL     1      26.455   0.727  53.738  1.00  0.00     0.085 A 
HETATM   16  C10 UNL     1      27.073   0.046  54.770  1.00  0.00     0.034 A 
HETATM   17  C14 UNL     1      27.212   1.627  53.008  1.00  0.00     0.087 A 
HETATM   18  C11 UNL     1      28.404   0.275  55.044  1.00  0.00     0.002 A 
HETATM   19  C12 UNL     1      29.134   1.176  54.302  1.00  0.00     0.002 A 
HETATM   20  C13 UNL     1      28.543   1.876  53.259  1.00  0.00     0.034 A 
HETATM   21  N3  UNL     1      26.560   2.254  52.025  1.00  0.00    -0.228 NA
ENDBRANCH  10  12
ENDBRANCH   5  10
BRANCH   7  22
HETATM   22  O2  UNL     1      26.486   8.376  49.299  1.00  0.00    -0.355 OA
HETATM   23  C17 UNL     1      27.115   9.220  50.213  1.00  0.00     0.210 C 
ENDBRANCH   7  22
BRANCH   1  24
HETATM   24  S1  UNL     1      28.921   7.295  47.666  1.00  0.00     0.030 SA
BRANCH  24  25
HETATM   25  O1  UNL     1      30.154   7.743  48.774  1.00  0.00    -0.320 OA
HETATM   26  C1  UNL     1      31.147   6.783  48.726  1.00  0.00     0.220 C 
ENDBRANCH  24  25
ENDBRANCH   1  24
TORSDOF 6
ENDMDL
MODEL 2
REMARK VINA RESULT:      -7.3      3.990      7.219
REMARK  6 active torsions:
REMARK  status: ('A' for Active; 'I' for Inactive)
REMARK    1  A    between atoms: O1_2  and  S1_3 
REMARK    2  A    between atoms: S1_3  and  C2_4 
REMARK    3  A    between atoms: C6_8  and  S2_9 
REMARK    4  A    between atoms: C6_8  and  N1_10 
REMARK    5  A    between atoms: N1_10  and  C7_11 
REMARK    6  A    between atoms: C16_22  and  O2_23 
ROOT
HETATM    1  C2  UNL     1      27.337   0.571  53.680  1.00  0.00     0.058 A 
HETATM    2  C3  UNL     1      27.557   1.292  52.596  1.00  0.00     0.002 A 
HETATM    3  C4  UNL     1      26.513   1.801  51.697  1.00  0.00     0.070 A 
HETATM    4  C5  UNL     1      25.174   1.413  52.145  1.00  0.00    -0.019 A 
HETATM    5  C6  UNL     1      24.098   1.778  51.465  1.00  0.00     0.075 C 
HETATM    6  C15 UNL     1      24.944   0.617  53.345  1.00  0.00     0.048 A 
HETATM    7  C16 UNL     1      25.971   0.207  54.087  1.00  0.00     0.087 A 
ENDROOT
BRANCH   5   8
HETATM    8  S2  UNL     1      22.422   1.329  51.969  1.00  0.00    -0.125 SA
HETATM    9  H7  UNL     1      21.503   2.121  51.242  1.00  0.00     0.108 HD
ENDBRANCH   5   8
BRANCH   5  10
HETATM   10  N1  UNL     1      24.065   2.543  50.283  1.00  0.00    -0.334 N 
HETATM   11  H8  UNL     1      23.692   2.102  49.415  1.00  0.00     0.168 HD
BRANCH  10  12
HETATM   12  C7  UNL     1      24.520   3.880  50.250  1.00  0.00     0.146 A 
HETATM   13  C8  UNL     1      23.909   4.858  51.008  1.00  0.00     0.167 A 
HETATM   14  N2  UNL     1      24.387   6.108  50.934  1.00  0.00    -0.255 NA
HETATM   15  C9  UNL     1      25.433   6.424  50.149  1.00  0.00     0.085 A 
HETATM   16  C10 UNL     1      25.908   7.722  50.089  1.00  0.00     0.034 A 
HETATM   17  C14 UNL     1      26.067   5.466  49.378  1.00  0.00     0.087 A 
HETATM   18  C11 UNL     1      26.981   8.025  49.279  1.00  0.00     0.002 A 
HETATM   19  C12 UNL     1      27.592   7.051  48.522  1.00  0.00     0.002 A 
HETATM   20  C13 UNL     1      27.140   5.739  48.559  1.00  0.00     0.034 A 
HETATM   21  N3  UNL     1      25.563   4.232  49.477  1.00  0.00    -0.228 NA
ENDBRANCH  10  12
ENDBRANCH   5  10
BRANCH   7  22
HETATM   22  O2  UNL     1      25.663  -0.545  55.212  1.00  0.00    -0.355 OA
HETATM   23  C17 UNL     1      24.492  -1.273  55.415  1.00  0.00     0.210 C 
ENDBRANCH   7  22
BRANCH   1  24
HETATM   24  S1  UNL     1      28.695   0.009  54.695  1.00  0.00     0.030 SA
BRANCH  24  25
HETATM   25  O1  UNL     1      29.858  -0.769  53.700  1.00  0.00    -0.320 OA
HETATM   26  C1  UNL     1      29.342  -1.989  53.306  1.00  0.00     0.220 C 
ENDBRANCH  24  25
ENDBRANCH   1  24
TORSDOF 6
ENDMDL
MODEL 3
REMARK VINA RESULT:      -7.3      4.793      7.262
REMARK  6 active torsions:
REMARK  status: ('A' for Active; 'I' for Inactive)
REMARK    1  A    between atoms: O1_2  and  S1_3 
REMARK    2  A    between atoms: S1_3  and  C2_4 
REMARK    3  A    between atoms: C6_8  and  S2_9 
REMARK    4  A    between atoms: C6_8  and  N1_10 
REMARK    5  A    between atoms: N1_10  and  C7_11 
REMARK    6  A    between atoms: C16_22  and  O2_23 
ROOT
HETATM    1  C2  UNL     1      20.534   0.856  51.583  1.00  0.00     0.058 A 
HETATM    2  C3  UNL     1      21.130   0.908  52.760  1.00  0.00     0.002 A 
HETATM    3  C4  UNL     1      22.477   1.442  52.999  1.00  0.00     0.070 A 
HETATM    4  C5  UNL     1      23.098   1.921  51.763  1.00  0.00    -0.019 A 
HETATM    5  C6  UNL     1      24.316   2.440  51.772  1.00  0.00     0.075 C 
HETATM    6  C15 UNL     1      22.430   1.859  50.468  1.00  0.00     0.048 A 
HETATM    7  C16 UNL     1      21.202   1.351  50.369  1.00  0.00     0.087 A 
ENDROOT
BRANCH   5   8
HETATM    8  S2  UNL     1      25.133   3.047  50.279  1.00  0.00    -0.125 SA
HETATM    9  H7  UNL     1      26.294   2.273  50.051  1.00  0.00     0.108 HD
ENDBRANCH   5   8
BRANCH   5  10
HETATM   10  N1  UNL     1      25.156   2.606  52.890  1.00  0.00    -0.334 N 
HETATM   11  H8  UNL     1      24.918   3.347  53.585  1.00  0.00     0.168 HD
BRANCH  10  12
HETATM   12  C7  UNL     1      26.298   1.800  53.088  1.00  0.00     0.146 A 
HETATM   13  C8  UNL     1      27.479   2.342  53.554  1.00  0.00     0.167 A 
HETATM   14  N2  UNL     1      28.529   1.526  53.722  1.00  0.00    -0.255 NA
HETATM   15  C9  UNL     1      28.457   0.210  53.451  1.00  0.00     0.085 A 
HETATM   16  C10 UNL     1      29.554  -0.612  53.631  1.00  0.00     0.034 A 
HETATM   17  C14 UNL     1      27.287  -0.363  52.983  1.00  0.00     0.087 A 
HETATM   18  C11 UNL     1      29.459  -1.958  53.347  1.00  0.00     0.002 A 
HETATM   19  C12 UNL     1      28.283  -2.501  52.883  1.00  0.00     0.002 A 
HETATM   20  C13 UNL     1      27.163  -1.703  52.691  1.00  0.00     0.034 A 
HETATM   21  N3  UNL     1      26.263   0.481  52.828  1.00  0.00    -0.228 NA
ENDBRANCH  10  12
ENDBRANCH   5  10
BRANCH   7  22
HETATM   22  O2  UNL     1      20.639   1.330  49.101  1.00  0.00    -0.355 OA
HETATM   23  C17 UNL     1      20.978   2.168  48.041  1.00  0.00     0.210 C 
ENDBRANCH   7  22
BRANCH   1  24
HETATM   24  S1  UNL     1      18.888   0.181  51.420  1.00  0.00     0.030 SA
BRANCH  24  25
HETATM   25  O1  UNL     1      18.557  -0.826  52.771  1.00  0.00    -0.320 OA
HETATM   26  C1  UNL     1      17.208  -1.129  52.763  1.00  0.00     0.220 C 
ENDBRANCH  24  25
ENDBRANCH   1  24
TORSDOF 6
ENDMDL
MODEL 4
REMARK VINA RESULT:      -7.1      1.648      2.450
REMARK  6 active torsions:
REMARK  status: ('A' for Active; 'I' for Inactive)
REMARK    1  A    between atoms: O1_2  and  S1_3 
REMARK    2  A    between atoms: S1_3  and  C2_4 
REMARK    3  A    between atoms: C6_8  and  S2_9 
REMARK    4  A    between atoms: C6_8  and  N1_10 
REMARK    5  A    between atoms: N1_10  and  C7_11 
REMARK    6  A    between atoms: C16_22  and  O2_23 
ROOT
HETATM    1  C2  UNL     1      28.273   7.385  48.496  1.00  0.00     0.058 A 
HETATM    2  C3  UNL     1      28.327   6.095  48.217  1.00  0.00     0.002 A 
HETATM    3  C4  UNL     1      27.317   5.105  48.613  1.00  0.00     0.070 A 
HETATM    4  C5  UNL     1      26.221   5.718  49.365  1.00  0.00    -0.019 A 
HETATM    5  C6  UNL     1      25.210   4.988  49.810  1.00  0.00     0.075 C 
HETATM    6  C15 UNL     1      26.172   7.145  49.666  1.00  0.00     0.048 A 
HETATM    7  C16 UNL     1      27.149   7.952  49.256  1.00  0.00     0.087 A 
ENDROOT
BRANCH   5   8
HETATM    8  S2  UNL     1      23.831   5.690  50.743  1.00  0.00    -0.125 SA
HETATM    9  H7  UNL     1      23.673   4.954  51.940  1.00  0.00     0.108 HD
ENDBRANCH   5   8
BRANCH   5  10
HETATM   10  N1  UNL     1      25.034   3.600  49.646  1.00  0.00    -0.334 N 
HETATM   11  H8  UNL     1      24.701   3.247  48.723  1.00  0.00     0.168 HD
BRANCH  10  12
HETATM   12  C7  UNL     1      25.297   2.689  50.693  1.00  0.00     0.146 A 
HETATM   13  C8  UNL     1      26.582   2.485  51.152  1.00  0.00     0.167 A 
HETATM   14  N2  UNL     1      26.768   1.607  52.148  1.00  0.00    -0.255 NA
HETATM   15  C9  UNL     1      25.743   0.931  52.700  1.00  0.00     0.085 A 
HETATM   16  C10 UNL     1      25.960   0.031  53.727  1.00  0.00     0.034 A 
HETATM   17  C14 UNL     1      24.444   1.114  52.261  1.00  0.00     0.087 A 
HETATM   18  C11 UNL     1      24.897  -0.652  54.278  1.00  0.00     0.002 A 
HETATM   19  C12 UNL     1      23.614  -0.450  53.822  1.00  0.00     0.002 A 
HETATM   20  C13 UNL     1      23.363   0.447  52.793  1.00  0.00     0.034 A 
HETATM   21  N3  UNL     1      24.297   1.996  51.268  1.00  0.00    -0.228 NA
ENDBRANCH  10  12
ENDBRANCH   5  10
BRANCH   7  22
HETATM   22  O2  UNL     1      27.024   9.294  49.585  1.00  0.00    -0.355 OA
HETATM   23  C17 UNL     1      26.335  10.257  48.848  1.00  0.00     0.210 C 
ENDBRANCH   7  22
BRANCH   1  24
HETATM   24  S1  UNL     1      29.568   8.491  47.958  1.00  0.00     0.030 SA
BRANCH  24  25
HETATM   25  O1  UNL     1      30.434   9.053  49.330  1.00  0.00    -0.320 OA
HETATM   26  C1  UNL     1      30.463  10.435  49.287  1.00  0.00     0.220 C 
ENDBRANCH  24  25
ENDBRANCH   1  24
TORSDOF 6
ENDMDL
MODEL 5
REMARK VINA RESULT:      -6.9      4.135      7.302
REMARK  6 active torsions:
REMARK  status: ('A' for Active; 'I' for Inactive)
REMARK    1  A    between atoms: O1_2  and  S1_3 
REMARK    2  A    between atoms: S1_3  and  C2_4 
REMARK    3  A    between atoms: C6_8  and  S2_9 
REMARK    4  A    between atoms: C6_8  and  N1_10 
REMARK    5  A    between atoms: N1_10  and  C7_11 
REMARK    6  A    between atoms: C16_22  and  O2_23 
ROOT
HETATM    1  C2  UNL     1      25.079   0.799  53.502  1.00  0.00     0.058 A 
HETATM    2  C3  UNL     1      25.566   2.026  53.518  1.00  0.00     0.002 A 
HETATM    3  C4  UNL     1      24.824   3.233  53.128  1.00  0.00     0.070 A 
HETATM    4  C5  UNL     1      23.456   2.918  52.712  1.00  0.00    -0.019 A 
HETATM    5  C6  UNL     1      22.628   3.874  52.323  1.00  0.00     0.075 C 
HETATM    6  C15 UNL     1      22.929   1.558  52.698  1.00  0.00     0.048 A 
HETATM    7  C16 UNL     1      23.696   0.536  53.074  1.00  0.00     0.087 A 
ENDROOT
BRANCH   5   8
HETATM    8  S2  UNL     1      20.930   3.546  51.798  1.00  0.00    -0.125 SA
HETATM    9  H7  UNL     1      20.947   2.516  50.829  1.00  0.00     0.108 HD
ENDBRANCH   5   8
BRANCH   5  10
HETATM   10  N1  UNL     1      22.904   5.254  52.250  1.00  0.00    -0.334 N 
HETATM   11  H8  UNL     1      22.356   5.903  52.855  1.00  0.00     0.168 HD
BRANCH  10  12
HETATM   12  C7  UNL     1      23.895   5.769  51.386  1.00  0.00     0.146 A 
HETATM   13  C8  UNL     1      23.993   7.125  51.145  1.00  0.00     0.167 A 
HETATM   14  N2  UNL     1      24.955   7.554  50.316  1.00  0.00    -0.255 NA
HETATM   15  C9  UNL     1      25.813   6.703  49.723  1.00  0.00     0.085 A 
HETATM   16  C10 UNL     1      26.797   7.169  48.871  1.00  0.00     0.034 A 
HETATM   17  C14 UNL     1      25.740   5.339  49.945  1.00  0.00     0.087 A 
HETATM   18  C11 UNL     1      27.666   6.282  48.273  1.00  0.00     0.002 A 
HETATM   19  C12 UNL     1      27.570   4.930  48.512  1.00  0.00     0.002 A 
HETATM   20  C13 UNL     1      26.594   4.429  49.362  1.00  0.00     0.034 A 
HETATM   21  N3  UNL     1      24.770   4.949  50.777  1.00  0.00    -0.228 NA
ENDBRANCH  10  12
ENDBRANCH   5  10
BRANCH   7  22
HETATM   22  O2  UNL     1      23.116  -0.724  53.032  1.00  0.00    -0.355 OA
HETATM   23  C17 UNL     1      21.770  -1.013  53.247  1.00  0.00     0.210 C 
ENDBRANCH   7  22
BRANCH   1  24
HETATM   24  S1  UNL     1      26.084  -0.590  54.001  1.00  0.00     0.030 SA
BRANCH  24  25
HETATM   25  O1  UNL     1      27.125  -0.103  55.276  1.00  0.00    -0.320 OA
HETATM   26  C1  UNL     1      28.401   0.039  54.763  1.00  0.00     0.220 C 
ENDBRANCH  24  25
ENDBRANCH   1  24
TORSDOF 6
ENDMDL
MODEL 6
REMARK VINA RESULT:      -6.9      3.813      7.205
REMARK  6 active torsions:
REMARK  status: ('A' for Active; 'I' for Inactive)
REMARK    1  A    between atoms: O1_2  and  S1_3 
REMARK    2  A    between atoms: S1_3  and  C2_4 
REMARK    3  A    between atoms: C6_8  and  S2_9 
REMARK    4  A    between atoms: C6_8  and  N1_10 
REMARK    5  A    between atoms: N1_10  and  C7_11 
REMARK    6  A    between atoms: C16_22  and  O2_23 
ROOT
HETATM    1  C2  UNL     1      25.960   0.926  52.631  1.00  0.00     0.058 A 
HETATM    2  C3  UNL     1      26.669   1.644  51.780  1.00  0.00     0.002 A 
HETATM    3  C4  UNL     1      26.107   2.564  50.782  1.00  0.00     0.070 A 
HETATM    4  C5  UNL     1      24.645   2.597  50.836  1.00  0.00    -0.019 A 
HETATM    5  C6  UNL     1      23.952   3.369  50.013  1.00  0.00     0.075 C 
HETATM    6  C15 UNL     1      23.872   1.798  51.781  1.00  0.00     0.048 A 
HETATM    7  C16 UNL     1      24.490   0.994  52.644  1.00  0.00     0.087 A 
ENDROOT
BRANCH   5   8
HETATM    8  S2  UNL     1      22.147   3.450  50.034  1.00  0.00    -0.125 SA
HETATM    9  H7  UNL     1      21.702   3.288  51.366  1.00  0.00     0.108 HD
ENDBRANCH   5   8
BRANCH   5  10
HETATM   10  N1  UNL     1      24.469   4.224  49.021  1.00  0.00    -0.334 N 
HETATM   11  H8  UNL     1      24.381   3.937  48.022  1.00  0.00     0.168 HD
BRANCH  10  12
HETATM   12  C7  UNL     1      25.095   5.447  49.346  1.00  0.00     0.146 A 
HETATM   13  C8  UNL     1      24.539   6.305  50.274  1.00  0.00     0.167 A 
HETATM   14  N2  UNL     1      25.181   7.452  50.541  1.00  0.00    -0.255 NA
HETATM   15  C9  UNL     1      26.336   7.778  49.933  1.00  0.00     0.085 A 
HETATM   16  C10 UNL     1      26.980   8.967  50.225  1.00  0.00     0.034 A 
HETATM   17  C14 UNL     1      26.917   6.938  48.999  1.00  0.00     0.087 A 
HETATM   18  C11 UNL     1      28.162   9.282  49.591  1.00  0.00     0.002 A 
HETATM   19  C12 UNL     1      28.718   8.428  48.665  1.00  0.00     0.002 A 
HETATM   20  C13 UNL     1      28.097   7.227  48.350  1.00  0.00     0.034 A 
HETATM   21  N3  UNL     1      26.250   5.806  48.759  1.00  0.00    -0.228 NA
ENDBRANCH  10  12
ENDBRANCH   5  10
BRANCH   7  22
HETATM   22  O2  UNL     1      23.681   0.270  53.508  1.00  0.00    -0.355 OA
HETATM   23  C17 UNL     1      22.718  -0.667  53.136  1.00  0.00     0.210 C 
ENDBRANCH   7  22
BRANCH   1  24
HETATM   24  S1  UNL     1      26.762  -0.161  53.800  1.00  0.00     0.030 SA
BRANCH  24  25
HETATM   25  O1  UNL     1      27.639   0.783  54.935  1.00  0.00    -0.320 OA
HETATM   26  C1  UNL     1      28.982   0.701  54.618  1.00  0.00     0.220 C 
ENDBRANCH  24  25
ENDBRANCH   1  24
TORSDOF 6
ENDMDL
MODEL 7
REMARK VINA RESULT:      -6.5      2.044      2.861
REMARK  6 active torsions:
REMARK  status: ('A' for Active; 'I' for Inactive)
REMARK    1  A    between atoms: O1_2  and  S1_3 
REMARK    2  A    between atoms: S1_3  and  C2_4 
REMARK    3  A    between atoms: C6_8  and  S2_9 
REMARK    4  A    between atoms: C6_8  and  N1_10 
REMARK    5  A    between atoms: N1_10  and  C7_11 
REMARK    6  A    between atoms: C16_22  and  O2_23 
ROOT
HETATM    1  C2  UNL     1      29.774   6.684  48.121  1.00  0.00     0.058 A 
HETATM    2  C3  UNL     1      29.260   5.468  48.131  1.00  0.00     0.002 A 
HETATM    3  C4  UNL     1      27.848   5.153  48.388  1.00  0.00     0.070 A 
HETATM    4  C5  UNL     1      27.059   6.360  48.638  1.00  0.00    -0.019 A 
HETATM    5  C6  UNL     1      25.762   6.284  48.892  1.00  0.00     0.075 C 
HETATM    6  C15 UNL     1      27.639   7.698  48.625  1.00  0.00     0.048 A 
HETATM    7  C16 UNL     1      28.938   7.866  48.379  1.00  0.00     0.087 A 
ENDROOT
BRANCH   5   8
HETATM    8  S2  UNL     1      24.738   7.738  49.208  1.00  0.00    -0.125 SA
HETATM    9  H7  UNL     1      25.507   8.687  49.921  1.00  0.00     0.108 HD
ENDBRANCH   5   8
BRANCH   5  10
HETATM   10  N1  UNL     1      24.982   5.113  48.958  1.00  0.00    -0.334 N 
HETATM   11  H8  UNL     1      24.444   4.826  48.112  1.00  0.00     0.168 HD
BRANCH  10  12
HETATM   12  C7  UNL     1      24.914   4.329  50.131  1.00  0.00     0.146 A 
HETATM   13  C8  UNL     1      23.997   4.613  51.123  1.00  0.00     0.167 A 
HETATM   14  N2  UNL     1      23.981   3.833  52.213  1.00  0.00    -0.255 NA
HETATM   15  C9  UNL     1      24.828   2.796  52.358  1.00  0.00     0.085 A 
HETATM   16  C10 UNL     1      24.793   2.006  53.492  1.00  0.00     0.034 A 
HETATM   17  C14 UNL     1      25.758   2.488  51.381  1.00  0.00     0.087 A 
HETATM   18  C11 UNL     1      25.668   0.950  53.622  1.00  0.00     0.002 A 
HETATM   19  C12 UNL     1      26.584   0.666  52.634  1.00  0.00     0.002 A 
HETATM   20  C13 UNL     1      26.645   1.439  51.483  1.00  0.00     0.034 A 
HETATM   21  N3  UNL     1      25.744   3.286  50.310  1.00  0.00    -0.228 NA
ENDBRANCH  10  12
ENDBRANCH   5  10
BRANCH   7  22
HETATM   22  O2  UNL     1      29.407   9.172  48.385  1.00  0.00    -0.355 OA
HETATM   23  C17 UNL     1      29.967   9.836  49.475  1.00  0.00     0.210 C 
ENDBRANCH   7  22
BRANCH   1  24
HETATM   24  S1  UNL     1      31.512   6.939  47.794  1.00  0.00     0.030 SA
BRANCH  24  25
HETATM   25  O1  UNL     1      32.194   5.477  47.204  1.00  0.00    -0.320 OA
HETATM   26  C1  UNL     1      33.127   5.034  48.123  1.00  0.00     0.220 C 
ENDBRANCH  24  25
ENDBRANCH   1  24
TORSDOF 6
ENDMDL
MODEL 8
REMARK VINA RESULT:      -6.5      6.467      8.803
REMARK  6 active torsions:
REMARK  status: ('A' for Active; 'I' for Inactive)
REMARK    1  A    between atoms: O1_2  and  S1_3 
REMARK    2  A    between atoms: S1_3  and  C2_4 
REMARK    3  A    between atoms: C6_8  and  S2_9 
REMARK    4  A    between atoms: C6_8  and  N1_10 
REMARK    5  A    between atoms: N1_10  and  C7_11 
REMARK    6  A    between atoms: C16_22  and  O2_23 
ROOT
HETATM    1  C2  UNL     1      18.409   0.056  51.498  1.00  0.00     0.058 A 
HETATM    2  C3  UNL     1      19.332   0.801  50.919  1.00  0.00     0.002 A 
HETATM    3  C4  UNL     1      20.673   1.054  51.462  1.00  0.00     0.070 A 
HETATM    4  C5  UNL     1      20.877   0.375  52.743  1.00  0.00    -0.019 A 
HETATM    5  C6  UNL     1      22.025   0.482  53.393  1.00  0.00     0.075 C 
HETATM    6  C15 UNL     1      19.849  -0.445  53.373  1.00  0.00     0.048 A 
HETATM    7  C16 UNL     1      18.663  -0.605  52.788  1.00  0.00     0.087 A 
ENDROOT
BRANCH   5   8
HETATM    8  S2  UNL     1      22.334  -0.333  54.976  1.00  0.00    -0.125 SA
HETATM    9  H7  UNL     1      23.560   0.141  55.498  1.00  0.00     0.108 HD
ENDBRANCH   5   8
BRANCH   5  10
HETATM   10  N1  UNL     1      23.160   1.212  52.990  1.00  0.00    -0.334 N 
HETATM   11  H8  UNL     1      23.022   2.169  52.598  1.00  0.00     0.168 HD
BRANCH  10  12
HETATM   12  C7  UNL     1      24.464   0.683  53.103  1.00  0.00     0.146 A 
HETATM   13  C8  UNL     1      24.696  -0.671  52.967  1.00  0.00     0.167 A 
HETATM   14  N2  UNL     1      25.956  -1.114  53.084  1.00  0.00    -0.255 NA
HETATM   15  C9  UNL     1      26.983  -0.279  53.328  1.00  0.00     0.085 A 
HETATM   16  C10 UNL     1      28.274  -0.759  53.446  1.00  0.00     0.034 A 
HETATM   17  C14 UNL     1      26.782   1.083  53.469  1.00  0.00     0.087 A 
HETATM   18  C11 UNL     1      29.312   0.113  53.696  1.00  0.00     0.002 A 
HETATM   19  C12 UNL     1      29.083   1.463  53.832  1.00  0.00     0.002 A 
HETATM   20  C13 UNL     1      27.798   1.978  53.719  1.00  0.00     0.034 A 
HETATM   21  N3  UNL     1      25.514   1.487  53.346  1.00  0.00    -0.228 NA
ENDBRANCH  10  12
ENDBRANCH   5  10
BRANCH   7  22
HETATM   22  O2  UNL     1      17.743  -1.401  53.454  1.00  0.00    -0.355 OA
HETATM   23  C17 UNL     1      17.823  -2.783  53.618  1.00  0.00     0.210 C 
ENDBRANCH   7  22
BRANCH   1  24
HETATM   24  S1  UNL     1      16.810  -0.176  50.735  1.00  0.00     0.030 SA
BRANCH  24  25
HETATM   25  O1  UNL     1      15.874   1.247  50.945  1.00  0.00    -0.320 OA
HETATM   26  C1  UNL     1      15.149   1.118  52.116  1.00  0.00     0.220 C 
ENDBRANCH  24  25
ENDBRANCH   1  24
TORSDOF 6
ENDMDL
MODEL 9
REMARK VINA RESULT:      -6.5      4.521      8.045
REMARK  6 active torsions:
REMARK  status: ('A' for Active; 'I' for Inactive)
REMARK    1  A    between atoms: O1_2  and  S1_3 
REMARK    2  A    between atoms: S1_3  and  C2_4 
REMARK    3  A    between atoms: C6_8  and  S2_9 
REMARK    4  A    between atoms: C6_8  and  N1_10 
REMARK    5  A    between atoms: N1_10  and  C7_11 
REMARK    6  A    between atoms: C16_22  and  O2_23 
ROOT
HETATM    1  C2  UNL     1      26.012   0.600  52.298  1.00  0.00     0.058 A 
HETATM    2  C3  UNL     1      26.581   1.545  51.572  1.00  0.00     0.002 A 
HETATM    3  C4  UNL     1      25.945   2.813  51.192  1.00  0.00     0.070 A 
HETATM    4  C5  UNL     1      24.584   2.917  51.719  1.00  0.00    -0.019 A 
HETATM    5  C6  UNL     1      23.844   3.990  51.484  1.00  0.00     0.075 C 
HETATM    6  C15 UNL     1      23.965   1.867  52.520  1.00  0.00     0.048 A 
HETATM    7  C16 UNL     1      24.639   0.753  52.803  1.00  0.00     0.087 A 
ENDROOT
BRANCH   5   8
HETATM    8  S2  UNL     1      22.159   4.174  52.108  1.00  0.00    -0.125 SA
HETATM    9  H7  UNL     1      21.511   2.919  52.038  1.00  0.00     0.108 HD
ENDBRANCH   5   8
BRANCH   5  10
HETATM   10  N1  UNL     1      24.218   5.128  50.742  1.00  0.00    -0.334 N 
HETATM   11  H8  UNL     1      24.917   5.783  51.155  1.00  0.00     0.168 HD
BRANCH  10  12
HETATM   12  C7  UNL     1      23.673   5.396  49.468  1.00  0.00     0.146 A 
HETATM   13  C8  UNL     1      23.684   6.674  48.944  1.00  0.00     0.167 A 
HETATM   14  N2  UNL     1      23.152   6.866  47.729  1.00  0.00    -0.255 NA
HETATM   15  C9  UNL     1      22.615   5.855  47.020  1.00  0.00     0.085 A 
HETATM   16  C10 UNL     1      22.072   6.078  45.769  1.00  0.00     0.034 A 
HETATM   17  C14 UNL     1      22.590   4.564  47.518  1.00  0.00     0.087 A 
HETATM   18  C11 UNL     1      21.527   5.029  45.059  1.00  0.00     0.002 A 
HETATM   19  C12 UNL     1      21.515   3.755  45.578  1.00  0.00     0.002 A 
HETATM   20  C13 UNL     1      22.053   3.497  46.832  1.00  0.00     0.034 A 
HETATM   21  N3  UNL     1      23.129   4.411  48.731  1.00  0.00    -0.228 NA
ENDBRANCH  10  12
ENDBRANCH   5  10
BRANCH   7  22
HETATM   22  O2  UNL     1      23.977  -0.195  53.571  1.00  0.00    -0.355 OA
HETATM   23  C17 UNL     1      22.596  -0.355  53.663  1.00  0.00     0.210 C 
ENDBRANCH   7  22
BRANCH   1  24
HETATM   24  S1  UNL     1      26.891  -0.903  52.693  1.00  0.00     0.030 SA
BRANCH  24  25
HETATM   25  O1  UNL     1      27.320  -0.884  54.356  1.00  0.00    -0.320 OA
HETATM   26  C1  UNL     1      28.108   0.229  54.586  1.00  0.00     0.220 C 
ENDBRANCH  24  25
ENDBRANCH   1  24
TORSDOF 6
ENDMDL
