MODEL 1
REMARK VINA RESULT:      -8.8      0.000      0.000
REMARK  6 active torsions:
REMARK  status: ('A' for Active; 'I' for Inactive)
REMARK    1  A    between atoms: C2_2  and  O1_3 
REMARK    2  A    between atoms: O1_3  and  C3_4 
REMARK    3  A    between atoms: C3_4  and  C4_6 
REMARK    4  A    between atoms: N3_15  and  C11_16 
REMARK    5  A    between atoms: C14_19  and  O3_20 
REMARK    6  A    between atoms: O3_20  and  C15_21 
ROOT
HETATM    1  C4  UNL     1      26.699   1.263  53.611  1.00  0.00     0.044 A 
HETATM    2  C5  UNL     1      26.182   2.486  53.524  1.00  0.00     0.023 A 
HETATM    3  C6  UNL     1      24.772   2.336  53.108  1.00  0.00     0.168 A 
HETATM    4  C7  UNL     1      24.617   0.860  52.993  1.00  0.00    -0.004 A 
HETATM    5  C8  UNL     1      25.721   0.235  53.280  1.00  0.00    -0.036 A 
HETATM    6  C9  UNL     1      25.851  -1.241  53.244  1.00  0.00     0.050 C 
HETATM    7  C10 UNL     1      23.256   0.443  52.589  1.00  0.00     0.150 C 
HETATM    8  N1  UNL     1      22.542   1.232  51.823  1.00  0.00    -0.171 NA
HETATM    9  N2  UNL     1      23.160   2.450  51.439  1.00  0.00    -0.217 N 
HETATM   10  N3  UNL     1      24.465   2.875  51.810  1.00  0.00    -0.264 N 
HETATM   11  H12 UNL     1      22.465   2.963  50.826  1.00  0.00     0.210 HD
ENDROOT
BRANCH  10  12
HETATM   12  C11 UNL     1      25.125   3.698  50.869  1.00  0.00     0.055 A 
HETATM   13  C12 UNL     1      26.165   3.185  50.140  1.00  0.00     0.034 A 
HETATM   14  C13 UNL     1      26.836   3.965  49.226  1.00  0.00     0.041 A 
HETATM   15  C14 UNL     1      26.497   5.281  49.002  1.00  0.00     0.098 A 
HETATM   16  C21 UNL     1      25.452   5.829  49.720  1.00  0.00     0.070 A 
HETATM   17 CL1  UNL     1      24.990   7.506  49.464  1.00  0.00    -0.081 Cl
HETATM   18  C22 UNL     1      24.816   5.015  50.618  1.00  0.00     0.058 A 
BRANCH  15  19
HETATM   19  O3  UNL     1      27.168   6.093  48.074  1.00  0.00    -0.309 OA
BRANCH  19  20
HETATM   20  C15 UNL     1      28.481   6.476  48.308  1.00  0.00     0.079 A 
HETATM   21  C16 UNL     1      29.598   5.672  48.178  1.00  0.00     0.037 A 
HETATM   22  C17 UNL     1      30.859   6.135  48.431  1.00  0.00     0.006 A 
HETATM   23  C18 UNL     1      31.000   7.446  48.827  1.00  0.00     0.042 A 
HETATM   24  C19 UNL     1      29.892   8.273  48.965  1.00  0.00     0.119 A 
HETATM   25  F1  UNL     1      30.118   9.545  49.359  1.00  0.00    -0.206 F 
HETATM   26  C20 UNL     1      28.615   7.809  48.710  1.00  0.00     0.079 A 
ENDBRANCH  19  20
ENDBRANCH  15  19
ENDBRANCH  10  12
BRANCH   1  27
HETATM   27  C3  UNL     1      28.081   0.999  53.997  1.00  0.00     0.293 C 
HETATM   28  O2  UNL     1      28.553   1.306  55.099  1.00  0.00    -0.259 OA
BRANCH  27  29
HETATM   29  O1  UNL     1      28.965   0.373  53.130  1.00  0.00    -0.318 OA
BRANCH  29  30
HETATM   30  C2  UNL     1      29.975  -0.523  53.489  1.00  0.00     0.174 C 
HETATM   31  C1  UNL     1      29.411  -1.934  53.354  1.00  0.00     0.034 C 
ENDBRANCH  29  30
ENDBRANCH  27  29
ENDBRANCH   1  27
TORSDOF 6
ENDMDL
MODEL 2
REMARK VINA RESULT:      -8.7      1.602      1.936
REMARK  6 active torsions:
REMARK  status: ('A' for Active; 'I' for Inactive)
REMARK    1  A    between atoms: C2_2  and  O1_3 
REMARK    2  A    between atoms: O1_3  and  C3_4 
REMARK    3  A    between atoms: C3_4  and  C4_6 
REMARK    4  A    between atoms: N3_15  and  C11_16 
REMARK    5  A    between atoms: C14_19  and  O3_20 
REMARK    6  A    between atoms: O3_20  and  C15_21 
ROOT
HETATM    1  C4  UNL     1      26.503   1.322  53.358  1.00  0.00     0.044 A 
HETATM    2  C5  UNL     1      25.737   2.396  53.531  1.00  0.00     0.023 A 
HETATM    3  C6  UNL     1      24.332   1.956  53.404  1.00  0.00     0.168 A 
HETATM    4  C7  UNL     1      24.466   0.496  53.144  1.00  0.00    -0.004 A 
HETATM    5  C8  UNL     1      25.711   0.124  53.116  1.00  0.00    -0.036 A 
HETATM    6  C9  UNL     1      26.134  -1.277  52.874  1.00  0.00     0.050 C 
HETATM    7  C10 UNL     1      23.166  -0.192  52.985  1.00  0.00     0.150 C 
HETATM    8  N1  UNL     1      22.146   0.464  52.487  1.00  0.00    -0.171 NA
HETATM    9  N2  UNL     1      22.392   1.816  52.134  1.00  0.00    -0.217 N 
HETATM   10  N3  UNL     1      23.629   2.502  52.274  1.00  0.00    -0.264 N 
HETATM   11  H12 UNL     1      21.482   2.198  51.747  1.00  0.00     0.210 HD
ENDROOT
BRANCH  10  12
HETATM   12  C11 UNL     1      23.868   3.521  51.323  1.00  0.00     0.055 A 
HETATM   13  C12 UNL     1      24.188   3.178  50.036  1.00  0.00     0.034 A 
HETATM   14  C13 UNL     1      24.439   4.146  49.091  1.00  0.00     0.041 A 
HETATM   15  C14 UNL     1      24.380   5.490  49.390  1.00  0.00     0.098 A 
HETATM   16  C21 UNL     1      24.060   5.870  50.679  1.00  0.00     0.070 A 
HETATM   17 CL1  UNL     1      23.976   7.575  51.100  1.00  0.00    -0.081 Cl
HETATM   18  C22 UNL     1      23.819   4.871  51.584  1.00  0.00     0.058 A 
BRANCH  15  19
HETATM   19  O3  UNL     1      24.632   6.493  48.441  1.00  0.00    -0.309 OA
BRANCH  19  20
HETATM   20  C15 UNL     1      25.938   6.797  48.082  1.00  0.00     0.079 A 
HETATM   21  C16 UNL     1      27.073   6.130  48.502  1.00  0.00     0.037 A 
HETATM   22  C17 UNL     1      28.324   6.500  48.096  1.00  0.00     0.006 A 
HETATM   23  C18 UNL     1      28.437   7.575  47.243  1.00  0.00     0.042 A 
HETATM   24  C19 UNL     1      27.310   8.261  46.808  1.00  0.00     0.119 A 
HETATM   25  F1  UNL     1      27.509   9.304  45.972  1.00  0.00    -0.206 F 
HETATM   26  C20 UNL     1      26.042   7.890  47.215  1.00  0.00     0.079 A 
ENDBRANCH  19  20
ENDBRANCH  15  19
ENDBRANCH  10  12
BRANCH   1  27
HETATM   27  C3  UNL     1      27.961   1.355  53.412  1.00  0.00     0.293 C 
HETATM   28  O2  UNL     1      28.648   2.194  52.813  1.00  0.00    -0.259 OA
BRANCH  27  29
HETATM   29  O1  UNL     1      28.677   0.427  54.155  1.00  0.00    -0.318 OA
BRANCH  29  30
HETATM   30  C2  UNL     1      29.877  -0.179  53.777  1.00  0.00     0.174 C 
HETATM   31  C1  UNL     1      29.568  -1.627  53.409  1.00  0.00     0.034 C 
ENDBRANCH  29  30
ENDBRANCH  27  29
ENDBRANCH   1  27
TORSDOF 6
ENDMDL
MODEL 3
REMARK VINA RESULT:      -8.6      3.604      7.162
REMARK  6 active torsions:
REMARK  status: ('A' for Active; 'I' for Inactive)
REMARK    1  A    between atoms: C2_2  and  O1_3 
REMARK    2  A    between atoms: O1_3  and  C3_4 
REMARK    3  A    between atoms: C3_4  and  C4_6 
REMARK    4  A    between atoms: N3_15  and  C11_16 
REMARK    5  A    between atoms: C14_19  and  O3_20 
REMARK    6  A    between atoms: O3_20  and  C15_21 
ROOT
HETATM    1  C4  UNL     1      23.029   4.270  49.934  1.00  0.00     0.044 A 
HETATM    2  C5  UNL     1      22.893   2.949  49.872  1.00  0.00     0.023 A 
HETATM    3  C6  UNL     1      21.612   2.609  50.527  1.00  0.00     0.168 A 
HETATM    4  C7  UNL     1      21.090   3.941  50.939  1.00  0.00    -0.004 A 
HETATM    5  C8  UNL     1      21.899   4.902  50.602  1.00  0.00    -0.036 A 
HETATM    6  C9  UNL     1      21.628   6.330  50.892  1.00  0.00     0.050 C 
HETATM    7  C10 UNL     1      19.781   3.870  51.625  1.00  0.00     0.150 C 
HETATM    8  N1  UNL     1      19.482   2.808  52.334  1.00  0.00    -0.171 NA
HETATM    9  N2  UNL     1      20.473   1.794  52.380  1.00  0.00    -0.217 N 
HETATM   10  N3  UNL     1      21.738   1.836  51.734  1.00  0.00    -0.264 N 
HETATM   11  H12 UNL     1      20.085   1.019  52.990  1.00  0.00     0.210 HD
ENDROOT
BRANCH  10  12
HETATM   12  C11 UNL     1      22.777   1.133  52.388  1.00  0.00     0.055 A 
HETATM   13  C12 UNL     1      24.062   1.257  51.932  1.00  0.00     0.034 A 
HETATM   14  C13 UNL     1      25.093   0.576  52.540  1.00  0.00     0.041 A 
HETATM   15  C14 UNL     1      24.883  -0.251  53.621  1.00  0.00     0.098 A 
HETATM   16  C21 UNL     1      23.597  -0.398  54.105  1.00  0.00     0.070 A 
HETATM   17 CL1  UNL     1      23.288  -1.446  55.483  1.00  0.00    -0.081 Cl
HETATM   18  C22 UNL     1      22.606   0.299  53.468  1.00  0.00     0.058 A 
BRANCH  15  19
HETATM   19  O3  UNL     1      25.919  -0.954  54.255  1.00  0.00    -0.309 OA
BRANCH  19  20
HETATM   20  C15 UNL     1      27.242  -0.628  53.991  1.00  0.00     0.079 A 
HETATM   21  C16 UNL     1      28.137  -1.388  53.261  1.00  0.00     0.037 A 
HETATM   22  C17 UNL     1      29.426  -0.989  53.051  1.00  0.00     0.006 A 
HETATM   23  C18 UNL     1      29.829   0.212  53.592  1.00  0.00     0.042 A 
HETATM   24  C19 UNL     1      28.947   0.993  54.330  1.00  0.00     0.119 A 
HETATM   25  F1  UNL     1      29.423   2.156  54.827  1.00  0.00    -0.206 F 
HETATM   26  C20 UNL     1      27.642   0.593  54.545  1.00  0.00     0.079 A 
ENDBRANCH  19  20
ENDBRANCH  15  19
ENDBRANCH  10  12
BRANCH   1  27
HETATM   27  C3  UNL     1      24.177   4.988  49.389  1.00  0.00     0.293 C 
HETATM   28  O2  UNL     1      24.139   5.638  48.336  1.00  0.00    -0.259 OA
BRANCH  27  29
HETATM   29  O1  UNL     1      25.404   4.983  50.036  1.00  0.00    -0.318 OA
BRANCH  29  30
HETATM   30  C2  UNL     1      26.608   4.508  49.511  1.00  0.00     0.174 C 
HETATM   31  C1  UNL     1      26.580   2.985  49.591  1.00  0.00     0.034 C 
ENDBRANCH  29  30
ENDBRANCH  27  29
ENDBRANCH   1  27
TORSDOF 6
ENDMDL
MODEL 4
REMARK VINA RESULT:      -8.2      3.679      7.712
REMARK  6 active torsions:
REMARK  status: ('A' for Active; 'I' for Inactive)
REMARK    1  A    between atoms: C2_2  and  O1_3 
REMARK    2  A    between atoms: O1_3  and  C3_4 
REMARK    3  A    between atoms: C3_4  and  C4_6 
REMARK    4  A    between atoms: N3_15  and  C11_16 
REMARK    5  A    between atoms: C14_19  and  O3_20 
REMARK    6  A    between atoms: O3_20  and  C15_21 
ROOT
HETATM    1  C4  UNL     1      30.066   6.791  48.491  1.00  0.00     0.044 A 
HETATM    2  C5  UNL     1      29.128   6.058  47.897  1.00  0.00     0.023 A 
HETATM    3  C6  UNL     1      27.953   6.932  47.695  1.00  0.00     0.168 A 
HETATM    4  C7  UNL     1      28.408   8.231  48.261  1.00  0.00    -0.004 A 
HETATM    5  C8  UNL     1      29.622   8.159  48.722  1.00  0.00    -0.036 A 
HETATM    6  C9  UNL     1      30.324   9.307  49.344  1.00  0.00     0.050 C 
HETATM    7  C10 UNL     1      27.388   9.299  48.168  1.00  0.00     0.150 C 
HETATM    8  N1  UNL     1      26.117   8.982  48.211  1.00  0.00    -0.171 NA
HETATM    9  N2  UNL     1      25.827   7.600  48.349  1.00  0.00    -0.217 N 
HETATM   10  N3  UNL     1      26.784   6.553  48.443  1.00  0.00    -0.264 N 
HETATM   11  H12 UNL     1      24.771   7.513  48.374  1.00  0.00     0.210 HD
ENDROOT
BRANCH  10  12
HETATM   12  C11 UNL     1      26.383   5.432  49.205  1.00  0.00     0.055 A 
HETATM   13  C12 UNL     1      27.026   4.235  49.029  1.00  0.00     0.034 A 
HETATM   14  C13 UNL     1      26.650   3.122  49.746  1.00  0.00     0.041 A 
HETATM   15  C14 UNL     1      25.623   3.158  50.663  1.00  0.00     0.098 A 
HETATM   16  C21 UNL     1      24.954   4.350  50.865  1.00  0.00     0.070 A 
HETATM   17 CL1  UNL     1      23.636   4.436  52.026  1.00  0.00    -0.081 Cl
HETATM   18  C22 UNL     1      25.363   5.429  50.128  1.00  0.00     0.058 A 
BRANCH  15  19
HETATM   19  O3  UNL     1      25.225   2.035  51.405  1.00  0.00    -0.309 OA
BRANCH  19  20
HETATM   20  C15 UNL     1      26.138   1.380  52.219  1.00  0.00     0.079 A 
HETATM   21  C16 UNL     1      26.926   1.965  53.192  1.00  0.00     0.037 A 
HETATM   22  C17 UNL     1      27.802   1.241  53.949  1.00  0.00     0.006 A 
HETATM   23  C18 UNL     1      27.890  -0.114  53.720  1.00  0.00     0.042 A 
HETATM   24  C19 UNL     1      27.109  -0.725  52.745  1.00  0.00     0.119 A 
HETATM   25  F1  UNL     1      27.257  -2.058  52.583  1.00  0.00    -0.206 F 
HETATM   26  C20 UNL     1      26.220   0.005  51.978  1.00  0.00     0.079 A 
ENDBRANCH  19  20
ENDBRANCH  15  19
ENDBRANCH  10  12
BRANCH   1  27
HETATM   27  C3  UNL     1      31.381   6.274  48.856  1.00  0.00     0.293 C 
HETATM   28  O2  UNL     1      31.801   6.237  50.020  1.00  0.00    -0.259 OA
BRANCH  27  29
HETATM   29  O1  UNL     1      32.256   5.784  47.896  1.00  0.00    -0.318 OA
BRANCH  29  30
HETATM   30  C2  UNL     1      32.786   4.492  47.850  1.00  0.00     0.174 C 
HETATM   31  C1  UNL     1      31.939   3.678  46.876  1.00  0.00     0.034 C 
ENDBRANCH  29  30
ENDBRANCH  27  29
ENDBRANCH   1  27
TORSDOF 6
ENDMDL
MODEL 5
REMARK VINA RESULT:      -8.2      1.933      2.511
REMARK  6 active torsions:
REMARK  status: ('A' for Active; 'I' for Inactive)
REMARK    1  A    between atoms: C2_2  and  O1_3 
REMARK    2  A    between atoms: O1_3  and  C3_4 
REMARK    3  A    between atoms: C3_4  and  C4_6 
REMARK    4  A    between atoms: N3_15  and  C11_16 
REMARK    5  A    between atoms: C14_19  and  O3_20 
REMARK    6  A    between atoms: O3_20  and  C15_21 
ROOT
HETATM    1  C4  UNL     1      24.446   1.688  52.421  1.00  0.00     0.044 A 
HETATM    2  C5  UNL     1      24.721   2.951  52.738  1.00  0.00     0.023 A 
HETATM    3  C6  UNL     1      23.445   3.697  52.706  1.00  0.00     0.168 A 
HETATM    4  C7  UNL     1      22.459   2.647  52.333  1.00  0.00    -0.004 A 
HETATM    5  C8  UNL     1      23.026   1.489  52.166  1.00  0.00    -0.036 A 
HETATM    6  C9  UNL     1      22.279   0.265  51.788  1.00  0.00     0.050 C 
HETATM    7  C10 UNL     1      21.071   3.152  52.242  1.00  0.00     0.150 C 
HETATM    8  N1  UNL     1      20.861   4.396  51.886  1.00  0.00    -0.171 NA
HETATM    9  N2  UNL     1      22.020   5.167  51.610  1.00  0.00    -0.217 N 
HETATM   10  N3  UNL     1      23.363   4.708  51.686  1.00  0.00    -0.264 N 
HETATM   11  H12 UNL     1      21.683   6.133  51.334  1.00  0.00     0.210 HD
ENDROOT
BRANCH  10  12
HETATM   12  C11 UNL     1      24.267   5.327  50.793  1.00  0.00     0.055 A 
HETATM   13  C12 UNL     1      24.868   4.577  49.818  1.00  0.00     0.034 A 
HETATM   14  C13 UNL     1      25.763   5.148  48.941  1.00  0.00     0.041 A 
HETATM   15  C14 UNL     1      26.091   6.485  49.002  1.00  0.00     0.098 A 
HETATM   16  C21 UNL     1      25.502   7.270  49.974  1.00  0.00     0.070 A 
HETATM   17 CL1  UNL     1      25.896   8.980  50.085  1.00  0.00    -0.081 Cl
HETATM   18  C22 UNL     1      24.620   6.656  50.823  1.00  0.00     0.058 A 
BRANCH  15  19
HETATM   19  O3  UNL     1      27.000   7.087  48.118  1.00  0.00    -0.309 OA
BRANCH  19  20
HETATM   20  C15 UNL     1      28.365   6.911  48.299  1.00  0.00     0.079 A 
HETATM   21  C16 UNL     1      29.057   5.723  48.160  1.00  0.00     0.037 A 
HETATM   22  C17 UNL     1      30.406   5.642  48.358  1.00  0.00     0.006 A 
HETATM   23  C18 UNL     1      31.080   6.791  48.709  1.00  0.00     0.042 A 
HETATM   24  C19 UNL     1      30.405   7.997  48.856  1.00  0.00     0.119 A 
HETATM   25  F1  UNL     1      31.140   9.076  49.203  1.00  0.00    -0.206 F 
HETATM   26  C20 UNL     1      29.040   8.083  48.655  1.00  0.00     0.079 A 
ENDBRANCH  19  20
ENDBRANCH  15  19
ENDBRANCH  10  12
BRANCH   1  27
HETATM   27  C3  UNL     1      25.458   0.639  52.346  1.00  0.00     0.293 C 
HETATM   28  O2  UNL     1      26.448   0.696  51.605  1.00  0.00    -0.259 OA
BRANCH  27  29
HETATM   29  O1  UNL     1      25.364  -0.509  53.119  1.00  0.00    -0.318 OA
BRANCH  29  30
HETATM   30  C2  UNL     1      25.374  -0.564  54.515  1.00  0.00     0.174 C 
HETATM   31  C1  UNL     1      26.600   0.203  55.000  1.00  0.00     0.034 C 
ENDBRANCH  29  30
ENDBRANCH  27  29
ENDBRANCH   1  27
TORSDOF 6
ENDMDL
MODEL 6
REMARK VINA RESULT:      -8.0      5.906     10.153
REMARK  6 active torsions:
REMARK  status: ('A' for Active; 'I' for Inactive)
REMARK    1  A    between atoms: C2_2  and  O1_3 
REMARK    2  A    between atoms: O1_3  and  C3_4 
REMARK    3  A    between atoms: C3_4  and  C4_6 
REMARK    4  A    between atoms: N3_15  and  C11_16 
REMARK    5  A    between atoms: C14_19  and  O3_20 
REMARK    6  A    between atoms: O3_20  and  C15_21 
ROOT
HETATM    1  C4  UNL     1      24.455   3.669  51.614  1.00  0.00     0.044 A 
HETATM    2  C5  UNL     1      23.877   3.248  52.736  1.00  0.00     0.023 A 
HETATM    3  C6  UNL     1      24.512   1.964  53.100  1.00  0.00     0.168 A 
HETATM    4  C7  UNL     1      25.511   1.771  52.014  1.00  0.00    -0.004 A 
HETATM    5  C8  UNL     1      25.485   2.747  51.155  1.00  0.00    -0.036 A 
HETATM    6  C9  UNL     1      26.374   2.811  49.970  1.00  0.00     0.050 C 
HETATM    7  C10 UNL     1      26.303   0.530  52.159  1.00  0.00     0.150 C 
HETATM    8  N1  UNL     1      25.761  -0.516  52.735  1.00  0.00    -0.171 NA
HETATM    9  N2  UNL     1      24.423  -0.356  53.177  1.00  0.00    -0.217 N 
HETATM   10  N3  UNL     1      23.638   0.822  53.049  1.00  0.00    -0.264 N 
HETATM   11  H12 UNL     1      24.134  -1.280  53.608  1.00  0.00     0.210 HD
ENDROOT
BRANCH  10  12
HETATM   12  C11 UNL     1      22.246   0.612  52.918  1.00  0.00     0.055 A 
HETATM   13  C12 UNL     1      21.515   0.246  54.017  1.00  0.00     0.034 A 
HETATM   14  C13 UNL     1      20.160   0.022  53.918  1.00  0.00     0.041 A 
HETATM   15  C14 UNL     1      19.485   0.153  52.725  1.00  0.00     0.098 A 
HETATM   16  C21 UNL     1      20.193   0.522  51.597  1.00  0.00     0.070 A 
HETATM   17 CL1  UNL     1      19.366   0.699  50.055  1.00  0.00    -0.081 Cl
HETATM   18  C22 UNL     1      21.537   0.733  51.745  1.00  0.00     0.058 A 
BRANCH  15  19
HETATM   19  O3  UNL     1      18.104  -0.070  52.603  1.00  0.00    -0.309 OA
BRANCH  19  20
HETATM   20  C15 UNL     1      17.581  -1.333  52.844  1.00  0.00     0.079 A 
HETATM   21  C16 UNL     1      18.186  -2.338  53.575  1.00  0.00     0.037 A 
HETATM   22  C17 UNL     1      17.596  -3.556  53.761  1.00  0.00     0.006 A 
HETATM   23  C18 UNL     1      16.360  -3.770  53.194  1.00  0.00     0.042 A 
HETATM   24  C19 UNL     1      15.732  -2.775  52.454  1.00  0.00     0.119 A 
HETATM   25  F1  UNL     1      14.521  -3.068  51.932  1.00  0.00    -0.206 F 
HETATM   26  C20 UNL     1      16.325  -1.541  52.264  1.00  0.00     0.079 A 
ENDBRANCH  19  20
ENDBRANCH  15  19
ENDBRANCH  10  12
BRANCH   1  27
HETATM   27  C3  UNL     1      24.093   4.912  50.939  1.00  0.00     0.293 C 
HETATM   28  O2  UNL     1      24.185   6.027  51.467  1.00  0.00    -0.259 OA
BRANCH  27  29
HETATM   29  O1  UNL     1      23.612   4.912  49.638  1.00  0.00    -0.318 OA
BRANCH  29  30
HETATM   30  C2  UNL     1      22.743   3.971  49.081  1.00  0.00     0.174 C 
HETATM   31  C1  UNL     1      21.372   4.171  49.721  1.00  0.00     0.034 C 
ENDBRANCH  29  30
ENDBRANCH  27  29
ENDBRANCH   1  27
TORSDOF 6
ENDMDL
MODEL 7
REMARK VINA RESULT:      -7.9      4.028      5.797
REMARK  6 active torsions:
REMARK  status: ('A' for Active; 'I' for Inactive)
REMARK    1  A    between atoms: C2_2  and  O1_3 
REMARK    2  A    between atoms: O1_3  and  C3_4 
REMARK    3  A    between atoms: C3_4  and  C4_6 
REMARK    4  A    between atoms: N3_15  and  C11_16 
REMARK    5  A    between atoms: C14_19  and  O3_20 
REMARK    6  A    between atoms: O3_20  and  C15_21 
ROOT
HETATM    1  C4  UNL     1      25.915   1.834  52.547  1.00  0.00     0.044 A 
HETATM    2  C5  UNL     1      24.904   2.554  53.026  1.00  0.00     0.023 A 
HETATM    3  C6  UNL     1      23.837   1.607  53.413  1.00  0.00     0.168 A 
HETATM    4  C7  UNL     1      24.432   0.285  53.075  1.00  0.00    -0.004 A 
HETATM    5  C8  UNL     1      25.626   0.407  52.575  1.00  0.00    -0.036 A 
HETATM    6  C9  UNL     1      26.450  -0.750  52.148  1.00  0.00     0.050 C 
HETATM    7  C10 UNL     1      23.541  -0.854  53.385  1.00  0.00     0.150 C 
HETATM    8  N1  UNL     1      22.242  -0.692  53.321  1.00  0.00    -0.171 NA
HETATM    9  N2  UNL     1      21.796   0.602  52.947  1.00  0.00    -0.217 N 
HETATM   10  N3  UNL     1      22.627   1.713  52.642  1.00  0.00    -0.264 N 
HETATM   11  H12 UNL     1      20.737   0.566  52.937  1.00  0.00     0.210 HD
ENDROOT
BRANCH  10  12
HETATM   12  C11 UNL     1      22.096   2.628  51.704  1.00  0.00     0.055 A 
HETATM   13  C12 UNL     1      21.199   3.575  52.123  1.00  0.00     0.034 A 
HETATM   14  C13 UNL     1      20.655   4.471  51.231  1.00  0.00     0.041 A 
HETATM   15  C14 UNL     1      20.982   4.460  49.893  1.00  0.00     0.098 A 
HETATM   16  C21 UNL     1      21.884   3.517  49.439  1.00  0.00     0.070 A 
HETATM   17 CL1  UNL     1      22.327   3.469  47.738  1.00  0.00    -0.081 Cl
HETATM   18  C22 UNL     1      22.398   2.647  50.363  1.00  0.00     0.058 A 
BRANCH  15  19
HETATM   19  O3  UNL     1      20.439   5.365  48.968  1.00  0.00    -0.309 OA
BRANCH  19  20
HETATM   20  C15 UNL     1      20.709   6.721  49.082  1.00  0.00     0.079 A 
HETATM   21  C16 UNL     1      21.943   7.321  48.913  1.00  0.00     0.037 A 
HETATM   22  C17 UNL     1      22.118   8.670  49.046  1.00  0.00     0.006 A 
HETATM   23  C18 UNL     1      21.020   9.438  49.359  1.00  0.00     0.042 A 
HETATM   24  C19 UNL     1      19.769   8.857  49.535  1.00  0.00     0.119 A 
HETATM   25  F1  UNL     1      18.745   9.682  49.842  1.00  0.00    -0.206 F 
HETATM   26  C20 UNL     1      19.587   7.493  49.401  1.00  0.00     0.079 A 
ENDBRANCH  19  20
ENDBRANCH  15  19
ENDBRANCH  10  12
BRANCH   1  27
HETATM   27  C3  UNL     1      27.160   2.419  52.059  1.00  0.00     0.293 C 
HETATM   28  O2  UNL     1      28.252   2.268  52.622  1.00  0.00    -0.259 OA
BRANCH  27  29
HETATM   29  O1  UNL     1      27.190   3.197  50.910  1.00  0.00    -0.318 OA
BRANCH  29  30
HETATM   30  C2  UNL     1      26.405   3.011  49.770  1.00  0.00     0.174 C 
HETATM   31  C1  UNL     1      25.693   4.327  49.477  1.00  0.00     0.034 C 
ENDBRANCH  29  30
ENDBRANCH  27  29
ENDBRANCH   1  27
TORSDOF 6
ENDMDL
MODEL 8
REMARK VINA RESULT:      -7.9      4.697      8.154
REMARK  6 active torsions:
REMARK  status: ('A' for Active; 'I' for Inactive)
REMARK    1  A    between atoms: C2_2  and  O1_3 
REMARK    2  A    between atoms: O1_3  and  C3_4 
REMARK    3  A    between atoms: C3_4  and  C4_6 
REMARK    4  A    between atoms: N3_15  and  C11_16 
REMARK    5  A    between atoms: C14_19  and  O3_20 
REMARK    6  A    between atoms: O3_20  and  C15_21 
ROOT
HETATM    1  C4  UNL     1      30.382   6.537  48.502  1.00  0.00     0.044 A 
HETATM    2  C5  UNL     1      29.349   6.011  47.850  1.00  0.00     0.023 A 
HETATM    3  C6  UNL     1      28.408   7.113  47.559  1.00  0.00     0.168 A 
HETATM    4  C7  UNL     1      29.096   8.296  48.146  1.00  0.00    -0.004 A 
HETATM    5  C8  UNL     1      30.231   7.973  48.691  1.00  0.00    -0.036 A 
HETATM    6  C9  UNL     1      31.123   8.956  49.352  1.00  0.00     0.050 C 
HETATM    7  C10 UNL     1      28.342   9.557  47.972  1.00  0.00     0.150 C 
HETATM    8  N1  UNL     1      27.032   9.523  47.928  1.00  0.00    -0.171 NA
HETATM    9  N2  UNL     1      26.439   8.241  48.057  1.00  0.00    -0.217 N 
HETATM   10  N3  UNL     1      27.137   7.014  48.226  1.00  0.00    -0.264 N 
HETATM   11  H12 UNL     1      25.391   8.385  48.008  1.00  0.00     0.210 HD
ENDROOT
BRANCH  10  12
HETATM   12  C11 UNL     1      26.452   6.023  48.966  1.00  0.00     0.055 A 
HETATM   13  C12 UNL     1      26.881   4.724  48.908  1.00  0.00     0.034 A 
HETATM   14  C13 UNL     1      26.227   3.735  49.608  1.00  0.00     0.041 A 
HETATM   15  C14 UNL     1      25.124   4.002  50.389  1.00  0.00     0.098 A 
HETATM   16  C21 UNL     1      24.666   5.303  50.469  1.00  0.00     0.070 A 
HETATM   17 CL1  UNL     1      23.261   5.684  51.455  1.00  0.00    -0.081 Cl
HETATM   18  C22 UNL     1      25.349   6.251  49.756  1.00  0.00     0.058 A 
BRANCH  15  19
HETATM   19  O3  UNL     1      24.443   3.009  51.110  1.00  0.00    -0.309 OA
BRANCH  19  20
HETATM   20  C15 UNL     1      23.383   2.329  50.525  1.00  0.00     0.079 A 
HETATM   21  C16 UNL     1      22.947   2.470  49.221  1.00  0.00     0.037 A 
HETATM   22  C17 UNL     1      21.891   1.758  48.728  1.00  0.00     0.006 A 
HETATM   23  C18 UNL     1      21.252   0.878  49.573  1.00  0.00     0.042 A 
HETATM   24  C19 UNL     1      21.672   0.720  50.889  1.00  0.00     0.119 A 
HETATM   25  F1  UNL     1      20.990  -0.163  51.651  1.00  0.00    -0.206 F 
HETATM   26  C20 UNL     1      22.741   1.438  51.391  1.00  0.00     0.079 A 
ENDBRANCH  19  20
ENDBRANCH  15  19
ENDBRANCH  10  12
BRANCH   1  27
HETATM   27  C3  UNL     1      31.525   5.755  48.963  1.00  0.00     0.293 C 
HETATM   28  O2  UNL     1      31.734   5.487  50.154  1.00  0.00    -0.259 OA
BRANCH  27  29
HETATM   29  O1  UNL     1      32.466   5.259  48.072  1.00  0.00    -0.318 OA
BRANCH  29  30
HETATM   30  C2  UNL     1      32.534   3.949  47.592  1.00  0.00     0.174 C 
HETATM   31  C1  UNL     1      32.787   4.018  46.090  1.00  0.00     0.034 C 
ENDBRANCH  29  30
ENDBRANCH  27  29
ENDBRANCH   1  27
TORSDOF 6
ENDMDL
MODEL 9
REMARK VINA RESULT:      -7.6      4.171      8.323
REMARK  6 active torsions:
REMARK  status: ('A' for Active; 'I' for Inactive)
REMARK    1  A    between atoms: C2_2  and  O1_3 
REMARK    2  A    between atoms: O1_3  and  C3_4 
REMARK    3  A    between atoms: C3_4  and  C4_6 
REMARK    4  A    between atoms: N3_15  and  C11_16 
REMARK    5  A    between atoms: C14_19  and  O3_20 
REMARK    6  A    between atoms: O3_20  and  C15_21 
ROOT
HETATM    1  C4  UNL     1      31.728   6.838  46.831  1.00  0.00     0.044 A 
HETATM    2  C5  UNL     1      30.473   7.110  46.485  1.00  0.00     0.023 A 
HETATM    3  C6  UNL     1      30.064   8.317  47.234  1.00  0.00     0.168 A 
HETATM    4  C7  UNL     1      31.285   8.645  48.021  1.00  0.00    -0.004 A 
HETATM    5  C8  UNL     1      32.246   7.799  47.795  1.00  0.00    -0.036 A 
HETATM    6  C9  UNL     1      33.575   7.887  48.447  1.00  0.00     0.050 C 
HETATM    7  C10 UNL     1      31.130   9.849  48.867  1.00  0.00     0.150 C 
HETATM    8  N1  UNL     1      29.948  10.152  49.347  1.00  0.00    -0.171 NA
HETATM    9  N2  UNL     1      28.894   9.268  49.002  1.00  0.00    -0.217 N 
HETATM   10  N3  UNL     1      29.013   8.104  48.194  1.00  0.00    -0.264 N 
HETATM   11  H12 UNL     1      28.019   9.643  49.467  1.00  0.00     0.210 HD
ENDROOT
BRANCH  10  12
HETATM   12  C11 UNL     1      28.109   7.060  48.496  1.00  0.00     0.055 A 
HETATM   13  C12 UNL     1      28.517   5.759  48.368  1.00  0.00     0.034 A 
HETATM   14  C13 UNL     1      27.656   4.721  48.643  1.00  0.00     0.041 A 
HETATM   15  C14 UNL     1      26.360   4.939  49.055  1.00  0.00     0.098 A 
HETATM   16  C21 UNL     1      25.916   6.240  49.196  1.00  0.00     0.070 A 
HETATM   17 CL1  UNL     1      24.269   6.559  49.719  1.00  0.00    -0.081 Cl
HETATM   18  C22 UNL     1      26.809   7.238  48.910  1.00  0.00     0.058 A 
BRANCH  15  19
HETATM   19  O3  UNL     1      25.466   3.895  49.341  1.00  0.00    -0.309 OA
BRANCH  19  20
HETATM   20  C15 UNL     1      25.443   3.326  50.607  1.00  0.00     0.079 A 
HETATM   21  C16 UNL     1      24.451   3.491  51.555  1.00  0.00     0.037 A 
HETATM   22  C17 UNL     1      24.512   2.891  52.781  1.00  0.00     0.006 A 
HETATM   23  C18 UNL     1      25.605   2.102  53.063  1.00  0.00     0.042 A 
HETATM   24  C19 UNL     1      26.615   1.923  52.126  1.00  0.00     0.119 A 
HETATM   25  F1  UNL     1      27.653   1.134  52.483  1.00  0.00    -0.206 F 
HETATM   26  C20 UNL     1      26.557   2.527  50.884  1.00  0.00     0.079 A 
ENDBRANCH  19  20
ENDBRANCH  15  19
ENDBRANCH  10  12
BRANCH   1  27
HETATM   27  C3  UNL     1      32.485   5.711  46.296  1.00  0.00     0.293 C 
HETATM   28  O2  UNL     1      33.341   5.822  45.409  1.00  0.00    -0.259 OA
BRANCH  27  29
HETATM   29  O1  UNL     1      32.281   4.420  46.762  1.00  0.00    -0.318 OA
BRANCH  29  30
HETATM   30  C2  UNL     1      32.803   3.878  47.939  1.00  0.00     0.174 C 
HETATM   31  C1  UNL     1      34.217   3.389  47.637  1.00  0.00     0.034 C 
ENDBRANCH  29  30
ENDBRANCH  27  29
ENDBRANCH   1  27
TORSDOF 6
ENDMDL
