MODEL 1
REMARK VINA RESULT:      -8.8      0.000      0.000
REMARK  5 active torsions:
REMARK  status: ('A' for Active; 'I' for Inactive)
REMARK    1  A    between atoms: C9_9  and  N1_10 
REMARK    2  A    between atoms: N1_10  and  N2_11 
REMARK    3  A    between atoms: N1_10  and  C17_19 
REMARK    4  A    between atoms: C10_12  and  C11_13 
REMARK    5  A    between atoms: C18_21  and  O1_22 
ROOT
HETATM    1  N1  UNL     1      24.237   1.694  51.733  1.00  0.00    -0.237 N 
ENDROOT
BRANCH   1   2
HETATM    2  C9  UNL     1      24.711   1.312  53.065  1.00  0.00     0.150 A 
HETATM    3  C5  UNL     1      25.818   0.377  53.025  1.00  0.00    -0.027 A 
HETATM    4  C4  UNL     1      26.222  -0.876  52.636  1.00  0.00     0.010 A 
HETATM    5  C6  UNL     1      26.652   1.262  53.647  1.00  0.00    -0.047 A 
HETATM    6  C3  UNL     1      27.498  -1.309  52.853  1.00  0.00     0.007 A 
HETATM    7  C2  UNL     1      28.370  -0.448  53.477  1.00  0.00    -0.061 A 
HETATM    8  C1  UNL     1      29.782  -0.866  53.744  1.00  0.00     0.048 C 
HETATM    9  C7  UNL     1      27.954   0.815  53.868  1.00  0.00     0.014 A 
HETATM   10  C8  UNL     1      25.596   2.282  53.738  1.00  0.00     0.071 A 
ENDBRANCH   1   2
BRANCH   1  11
HETATM   11  N2  UNL     1      25.127   2.440  50.923  1.00  0.00    -0.181 NA
HETATM   12  C10 UNL     1      24.861   3.681  50.725  1.00  0.00     0.150 C 
BRANCH  12  13
HETATM   13  C11 UNL     1      25.673   4.585  49.919  1.00  0.00    -0.017 A 
HETATM   14  C12 UNL     1      25.392   5.904  49.635  1.00  0.00     0.013 A 
HETATM   15  C13 UNL     1      26.191   6.699  48.874  1.00  0.00     0.001 A 
HETATM   16  C14 UNL     1      27.330   6.119  48.380  1.00  0.00     0.000 A 
HETATM   17  C15 UNL     1      27.697   4.809  48.608  1.00  0.00     0.001 A 
HETATM   18  C16 UNL     1      26.845   4.030  49.395  1.00  0.00     0.013 A 
ENDBRANCH  12  13
ENDBRANCH   1  11
BRANCH   1  19
HETATM   19  C17 UNL     1      22.947   1.396  51.126  1.00  0.00     0.192 A 
HETATM   20  N3  UNL     1      22.351   1.455  50.152  1.00  0.00    -0.198 NA
HETATM   21  C18 UNL     1      21.090   1.044  49.978  1.00  0.00     0.171 A 
HETATM   22  C19 UNL     1      20.438   0.453  51.226  1.00  0.00     0.111 A 
HETATM   23  S1  UNL     1      21.822   0.615  52.435  1.00  0.00    -0.058 SA
BRANCH  21  24
HETATM   24  O1  UNL     1      20.633   1.251  48.660  1.00  0.00    -0.344 OA
HETATM   25  H16 UNL     1      20.818   2.123  48.179  1.00  0.00     0.219 HD
ENDBRANCH  21  24
ENDBRANCH   1  19
TORSDOF 5
ENDMDL
MODEL 2
REMARK VINA RESULT:      -8.7      2.123      5.552
REMARK  5 active torsions:
REMARK  status: ('A' for Active; 'I' for Inactive)
REMARK    1  A    between atoms: C9_9  and  N1_10 
REMARK    2  A    between atoms: N1_10  and  N2_11 
REMARK    3  A    between atoms: N1_10  and  C17_19 
REMARK    4  A    between atoms: C10_12  and  C11_13 
REMARK    5  A    between atoms: C18_21  and  O1_22 
ROOT
HETATM    1  N1  UNL     1      24.386   1.803  52.027  1.00  0.00    -0.237 N 
ENDROOT
BRANCH   1   2
HETATM    2  C9  UNL     1      24.916   1.316  53.303  1.00  0.00     0.150 A 
HETATM    3  C5  UNL     1      25.947   0.311  53.139  1.00  0.00    -0.027 A 
HETATM    4  C4  UNL     1      26.233  -0.943  52.660  1.00  0.00     0.010 A 
HETATM    5  C6  UNL     1      26.881   1.099  53.747  1.00  0.00    -0.047 A 
HETATM    6  C3  UNL     1      27.486  -1.475  52.768  1.00  0.00     0.007 A 
HETATM    7  C2  UNL     1      28.457  -0.713  53.374  1.00  0.00    -0.061 A 
HETATM    8  C1  UNL     1      29.848  -1.241  53.522  1.00  0.00     0.048 C 
HETATM    9  C7  UNL     1      28.159   0.552  53.856  1.00  0.00     0.014 A 
HETATM   10  C8  UNL     1      25.910   2.183  53.962  1.00  0.00     0.071 A 
ENDBRANCH   1   2
BRANCH   1  11
HETATM   11  N2  UNL     1      23.111   1.327  51.636  1.00  0.00    -0.181 NA
HETATM   12  C10 UNL     1      22.272   1.030  52.563  1.00  0.00     0.150 C 
BRANCH  12  13
HETATM   13  C11 UNL     1      20.922   0.529  52.329  1.00  0.00    -0.017 A 
HETATM   14  C12 UNL     1      20.166   0.716  51.192  1.00  0.00     0.013 A 
HETATM   15  C13 UNL     1      18.909   0.224  51.032  1.00  0.00     0.001 A 
HETATM   16  C14 UNL     1      18.400  -0.494  52.084  1.00  0.00     0.000 A 
HETATM   17  C15 UNL     1      19.078  -0.734  53.261  1.00  0.00     0.001 A 
HETATM   18  C16 UNL     1      20.367  -0.208  53.380  1.00  0.00     0.013 A 
ENDBRANCH  12  13
ENDBRANCH   1  11
BRANCH   1  19
HETATM   19  C17 UNL     1      25.015   2.731  51.096  1.00  0.00     0.192 A 
HETATM   20  N3  UNL     1      26.023   3.107  50.709  1.00  0.00    -0.198 NA
HETATM   21  C18 UNL     1      26.204   4.046  49.773  1.00  0.00     0.171 A 
HETATM   22  C19 UNL     1      24.912   4.633  49.208  1.00  0.00     0.111 A 
HETATM   23  S1  UNL     1      23.661   3.680  50.173  1.00  0.00    -0.058 SA
BRANCH  21  24
HETATM   24  O1  UNL     1      27.568   4.290  49.511  1.00  0.00    -0.344 OA
HETATM   25  H16 UNL     1      27.848   5.016  48.862  1.00  0.00     0.219 HD
ENDBRANCH  21  24
ENDBRANCH   1  19
TORSDOF 5
ENDMDL
MODEL 3
REMARK VINA RESULT:      -8.6      3.200      5.608
REMARK  5 active torsions:
REMARK  status: ('A' for Active; 'I' for Inactive)
REMARK    1  A    between atoms: C9_9  and  N1_10 
REMARK    2  A    between atoms: N1_10  and  N2_11 
REMARK    3  A    between atoms: N1_10  and  C17_19 
REMARK    4  A    between atoms: C10_12  and  C11_13 
REMARK    5  A    between atoms: C18_21  and  O1_22 
ROOT
HETATM    1  N1  UNL     1      25.353   0.027  53.272  1.00  0.00    -0.237 N 
ENDROOT
BRANCH   1   2
HETATM    2  C9  UNL     1      24.345   0.102  54.331  1.00  0.00     0.150 A 
HETATM    3  C5  UNL     1      22.994   0.215  53.818  1.00  0.00    -0.027 A 
HETATM    4  C4  UNL     1      22.129   0.985  53.082  1.00  0.00     0.010 A 
HETATM    5  C6  UNL     1      22.626  -0.970  54.388  1.00  0.00    -0.047 A 
HETATM    6  C3  UNL     1      20.835   0.600  52.878  1.00  0.00     0.007 A 
HETATM    7  C2  UNL     1      20.423  -0.588  53.435  1.00  0.00    -0.061 A 
HETATM    8  C1  UNL     1      19.017  -1.063  53.247  1.00  0.00     0.048 C 
HETATM    9  C7  UNL     1      21.303  -1.359  54.178  1.00  0.00     0.014 A 
HETATM   10  C8  UNL     1      23.967  -1.180  54.955  1.00  0.00     0.071 A 
ENDBRANCH   1   2
BRANCH   1  11
HETATM   11  N2  UNL     1      25.138   0.822  52.121  1.00  0.00    -0.181 NA
HETATM   12  C10 UNL     1      25.559   2.036  52.143  1.00  0.00     0.150 C 
BRANCH  12  13
HETATM   13  C11 UNL     1      25.417   2.983  51.043  1.00  0.00    -0.017 A 
HETATM   14  C12 UNL     1      24.244   3.552  50.600  1.00  0.00     0.013 A 
HETATM   15  C13 UNL     1      24.174   4.431  49.565  1.00  0.00     0.001 A 
HETATM   16  C14 UNL     1      25.361   4.744  48.954  1.00  0.00     0.000 A 
HETATM   17  C15 UNL     1      26.585   4.227  49.324  1.00  0.00     0.001 A 
HETATM   18  C16 UNL     1      26.607   3.327  50.393  1.00  0.00     0.013 A 
ENDBRANCH  12  13
ENDBRANCH   1  11
BRANCH   1  19
HETATM   19  C17 UNL     1      26.570  -0.774  53.255  1.00  0.00     0.192 A 
HETATM   20  N3  UNL     1      26.985  -1.817  53.033  1.00  0.00    -0.198 NA
HETATM   21  C18 UNL     1      28.263  -2.193  53.144  1.00  0.00     0.171 A 
HETATM   22  C19 UNL     1      29.210  -1.090  53.613  1.00  0.00     0.111 A 
HETATM   23  S1  UNL     1      28.022   0.310  53.803  1.00  0.00    -0.058 SA
BRANCH  21  24
HETATM   24  O1  UNL     1      28.459  -3.546  52.799  1.00  0.00    -0.344 OA
HETATM   25  H16 UNL     1      29.392  -3.940  52.760  1.00  0.00     0.219 HD
ENDBRANCH  21  24
ENDBRANCH   1  19
TORSDOF 5
ENDMDL
MODEL 4
REMARK VINA RESULT:      -8.5      3.302      7.051
REMARK  5 active torsions:
REMARK  status: ('A' for Active; 'I' for Inactive)
REMARK    1  A    between atoms: C9_9  and  N1_10 
REMARK    2  A    between atoms: N1_10  and  N2_11 
REMARK    3  A    between atoms: N1_10  and  C17_19 
REMARK    4  A    between atoms: C10_12  and  C11_13 
REMARK    5  A    between atoms: C18_21  and  O1_22 
ROOT
HETATM    1  N1  UNL     1      26.050   0.655  53.615  1.00  0.00    -0.237 N 
ENDROOT
BRANCH   1   2
HETATM    2  C9  UNL     1      26.172   2.102  53.428  1.00  0.00     0.150 A 
HETATM    3  C5  UNL     1      26.039   2.505  52.042  1.00  0.00    -0.027 A 
HETATM    4  C4  UNL     1      26.571   2.401  50.781  1.00  0.00     0.010 A 
HETATM    5  C6  UNL     1      24.925   3.247  52.313  1.00  0.00    -0.047 A 
HETATM    6  C3  UNL     1      26.006   3.042  49.717  1.00  0.00     0.007 A 
HETATM    7  C2  UNL     1      24.882   3.800  49.947  1.00  0.00    -0.061 A 
HETATM    8  C1  UNL     1      24.218   4.527  48.821  1.00  0.00     0.048 C 
HETATM    9  C7  UNL     1      24.351   3.901  51.224  1.00  0.00     0.014 A 
HETATM   10  C8  UNL     1      24.970   2.897  53.741  1.00  0.00     0.071 A 
ENDBRANCH   1   2
BRANCH   1  11
HETATM   11  N2  UNL     1      24.779   0.160  53.996  1.00  0.00    -0.181 NA
HETATM   12  C10 UNL     1      23.868   0.091  53.092  1.00  0.00     0.150 C 
BRANCH  12  13
HETATM   13  C11 UNL     1      22.512  -0.395  53.319  1.00  0.00    -0.017 A 
HETATM   14  C12 UNL     1      22.135  -1.395  54.188  1.00  0.00     0.013 A 
HETATM   15  C13 UNL     1      20.850  -1.806  54.356  1.00  0.00     0.001 A 
HETATM   16  C14 UNL     1      19.904  -1.163  53.600  1.00  0.00     0.000 A 
HETATM   17  C15 UNL     1      20.182  -0.152  52.704  1.00  0.00     0.001 A 
HETATM   18  C16 UNL     1      21.516   0.236  52.564  1.00  0.00     0.013 A 
ENDBRANCH  12  13
ENDBRANCH   1  11
BRANCH   1  19
HETATM   19  C17 UNL     1      27.087  -0.356  53.456  1.00  0.00     0.192 A 
HETATM   20  N3  UNL     1      27.270  -1.459  53.213  1.00  0.00    -0.198 NA
HETATM   21  C18 UNL     1      28.463  -2.062  53.158  1.00  0.00     0.171 A 
HETATM   22  C19 UNL     1      29.650  -1.148  53.455  1.00  0.00     0.111 A 
HETATM   23  S1  UNL     1      28.775   0.447  53.762  1.00  0.00    -0.058 SA
BRANCH  21  24
HETATM   24  O1  UNL     1      28.360  -3.431  52.834  1.00  0.00    -0.344 OA
HETATM   25  H16 UNL     1      28.451  -4.141  53.551  1.00  0.00     0.219 HD
ENDBRANCH  21  24
ENDBRANCH   1  19
TORSDOF 5
ENDMDL
MODEL 5
REMARK VINA RESULT:      -8.2      1.999      5.877
REMARK  5 active torsions:
REMARK  status: ('A' for Active; 'I' for Inactive)
REMARK    1  A    between atoms: C9_9  and  N1_10 
REMARK    2  A    between atoms: N1_10  and  N2_11 
REMARK    3  A    between atoms: N1_10  and  C17_19 
REMARK    4  A    between atoms: C10_12  and  C11_13 
REMARK    5  A    between atoms: C18_21  and  O1_22 
ROOT
HETATM    1  N1  UNL     1      24.146   1.429  52.827  1.00  0.00    -0.237 N 
ENDROOT
BRANCH   1   2
HETATM    2  C9  UNL     1      24.612   2.817  52.859  1.00  0.00     0.150 A 
HETATM    3  C5  UNL     1      24.860   3.360  51.538  1.00  0.00    -0.027 A 
HETATM    4  C4  UNL     1      25.609   3.243  50.393  1.00  0.00     0.010 A 
HETATM    5  C6  UNL     1      23.900   4.318  51.697  1.00  0.00    -0.047 A 
HETATM    6  C3  UNL     1      25.429   4.091  49.339  1.00  0.00     0.007 A 
HETATM    7  C2  UNL     1      24.471   5.070  49.458  1.00  0.00    -0.061 A 
HETATM    8  C1  UNL     1      24.229   6.029  48.336  1.00  0.00     0.048 C 
HETATM    9  C7  UNL     1      23.720   5.182  50.617  1.00  0.00     0.014 A 
HETATM   10  C8  UNL     1      23.571   3.844  53.050  1.00  0.00     0.071 A 
ENDBRANCH   1   2
BRANCH   1  11
HETATM   11  N2  UNL     1      25.133   0.421  52.706  1.00  0.00    -0.181 NA
HETATM   12  C10 UNL     1      26.248   0.596  53.322  1.00  0.00     0.150 C 
BRANCH  12  13
HETATM   13  C11 UNL     1      27.362  -0.343  53.301  1.00  0.00    -0.017 A 
HETATM   14  C12 UNL     1      28.658  -0.085  53.692  1.00  0.00     0.013 A 
HETATM   15  C13 UNL     1      29.658  -1.005  53.648  1.00  0.00     0.001 A 
HETATM   16  C14 UNL     1      29.318  -2.248  53.182  1.00  0.00     0.000 A 
HETATM   17  C15 UNL     1      28.051  -2.603  52.768  1.00  0.00     0.001 A 
HETATM   18  C16 UNL     1      27.056  -1.625  52.831  1.00  0.00     0.013 A 
ENDBRANCH  12  13
ENDBRANCH   1  11
BRANCH   1  19
HETATM   19  C17 UNL     1      22.774   0.947  52.908  1.00  0.00     0.192 A 
HETATM   20  N3  UNL     1      21.977   0.550  53.627  1.00  0.00    -0.198 NA
HETATM   21  C18 UNL     1      20.734   0.186  53.294  1.00  0.00     0.171 A 
HETATM   22  C19 UNL     1      20.405   0.333  51.810  1.00  0.00     0.111 A 
HETATM   23  S1  UNL     1      22.009   0.990  51.177  1.00  0.00    -0.058 SA
BRANCH  21  24
HETATM   24  O1  UNL     1      19.989  -0.262  54.405  1.00  0.00    -0.344 OA
HETATM   25  H16 UNL     1      20.286  -0.045  55.349  1.00  0.00     0.219 HD
ENDBRANCH  21  24
ENDBRANCH   1  19
TORSDOF 5
ENDMDL
MODEL 6
REMARK VINA RESULT:      -8.2      2.609      5.968
REMARK  5 active torsions:
REMARK  status: ('A' for Active; 'I' for Inactive)
REMARK    1  A    between atoms: C9_9  and  N1_10 
REMARK    2  A    between atoms: N1_10  and  N2_11 
REMARK    3  A    between atoms: N1_10  and  C17_19 
REMARK    4  A    between atoms: C10_12  and  C11_13 
REMARK    5  A    between atoms: C18_21  and  O1_22 
ROOT
HETATM    1  N1  UNL     1      23.894   2.580  51.475  1.00  0.00    -0.237 N 
ENDROOT
BRANCH   1   2
HETATM    2  C9  UNL     1      23.229   1.426  50.864  1.00  0.00     0.150 A 
HETATM    3  C5  UNL     1      22.364   0.719  51.787  1.00  0.00    -0.027 A 
HETATM    4  C4  UNL     1      22.310   0.000  52.956  1.00  0.00     0.010 A 
HETATM    5  C6  UNL     1      21.257   0.987  51.034  1.00  0.00    -0.047 A 
HETATM    6  C3  UNL     1      21.129  -0.490  53.433  1.00  0.00     0.007 A 
HETATM    7  C2  UNL     1      19.990  -0.242  52.704  1.00  0.00    -0.061 A 
HETATM    8  C1  UNL     1      18.666  -0.753  53.176  1.00  0.00     0.048 C 
HETATM    9  C7  UNL     1      20.053   0.484  51.525  1.00  0.00     0.014 A 
HETATM   10  C8  UNL     1      22.045   1.727  50.037  1.00  0.00     0.071 A 
ENDBRANCH   1   2
BRANCH   1  11
HETATM   11  N2  UNL     1      24.968   2.310  52.358  1.00  0.00    -0.181 NA
HETATM   12  C10 UNL     1      25.957   1.624  51.907  1.00  0.00     0.150 C 
BRANCH  12  13
HETATM   13  C11 UNL     1      27.136   1.262  52.684  1.00  0.00    -0.017 A 
HETATM   14  C12 UNL     1      27.982   2.130  53.338  1.00  0.00     0.013 A 
HETATM   15  C13 UNL     1      29.071   1.732  54.049  1.00  0.00     0.001 A 
HETATM   16  C14 UNL     1      29.306   0.382  54.094  1.00  0.00     0.000 A 
HETATM   17  C15 UNL     1      28.518  -0.565  53.472  1.00  0.00     0.001 A 
HETATM   18  C16 UNL     1      27.410  -0.108  52.753  1.00  0.00     0.013 A 
ENDBRANCH  12  13
ENDBRANCH   1  11
BRANCH   1  19
HETATM   19  C17 UNL     1      23.586   3.991  51.284  1.00  0.00     0.192 A 
HETATM   20  N3  UNL     1      22.845   4.818  51.556  1.00  0.00    -0.198 NA
HETATM   21  C18 UNL     1      22.907   6.091  51.152  1.00  0.00     0.171 A 
HETATM   22  C19 UNL     1      24.095   6.412  50.247  1.00  0.00     0.111 A 
HETATM   23  S1  UNL     1      24.906   4.756  50.162  1.00  0.00    -0.058 SA
BRANCH  21  24
HETATM   24  O1  UNL     1      21.845   6.870  51.658  1.00  0.00    -0.344 OA
HETATM   25  H16 UNL     1      20.885   6.567  51.550  1.00  0.00     0.219 HD
ENDBRANCH  21  24
ENDBRANCH   1  19
TORSDOF 5
ENDMDL
MODEL 7
REMARK VINA RESULT:      -8.2      2.774      6.295
REMARK  5 active torsions:
REMARK  status: ('A' for Active; 'I' for Inactive)
REMARK    1  A    between atoms: C9_9  and  N1_10 
REMARK    2  A    between atoms: N1_10  and  N2_11 
REMARK    3  A    between atoms: N1_10  and  C17_19 
REMARK    4  A    between atoms: C10_12  and  C11_13 
REMARK    5  A    between atoms: C18_21  and  O1_22 
ROOT
HETATM    1  N1  UNL     1      22.669   1.262  52.532  1.00  0.00    -0.237 N 
ENDROOT
BRANCH   1   2
HETATM    2  C9  UNL     1      23.516   0.077  52.686  1.00  0.00     0.150 A 
HETATM    3  C5  UNL     1      24.928   0.398  52.768  1.00  0.00    -0.027 A 
HETATM    4  C4  UNL     1      25.998   0.952  52.111  1.00  0.00     0.010 A 
HETATM    5  C6  UNL     1      25.022  -0.119  54.028  1.00  0.00    -0.047 A 
HETATM    6  C3  UNL     1      27.232   1.015  52.692  1.00  0.00     0.007 A 
HETATM    7  C2  UNL     1      27.370   0.505  53.961  1.00  0.00    -0.061 A 
HETATM    8  C1  UNL     1      28.697   0.545  54.650  1.00  0.00     0.048 C 
HETATM    9  C7  UNL     1      26.284  -0.052  54.618  1.00  0.00     0.014 A 
HETATM   10  C8  UNL     1      23.598  -0.486  54.046  1.00  0.00     0.071 A 
ENDBRANCH   1   2
BRANCH   1  11
HETATM   11  N2  UNL     1      21.274   1.080  52.689  1.00  0.00    -0.181 NA
HETATM   12  C10 UNL     1      20.699   0.190  51.962  1.00  0.00     0.150 C 
BRANCH  12  13
HETATM   13  C11 UNL     1      19.275  -0.120  52.003  1.00  0.00    -0.017 A 
HETATM   14  C12 UNL     1      18.332   0.244  51.067  1.00  0.00     0.013 A 
HETATM   15  C13 UNL     1      17.013  -0.074  51.160  1.00  0.00     0.001 A 
HETATM   16  C14 UNL     1      16.641  -0.800  52.262  1.00  0.00     0.000 A 
HETATM   17  C15 UNL     1      17.510  -1.211  53.251  1.00  0.00     0.001 A 
HETATM   18  C16 UNL     1      18.854  -0.860  53.113  1.00  0.00     0.013 A 
ENDBRANCH  12  13
ENDBRANCH   1  11
BRANCH   1  19
HETATM   19  C17 UNL     1      23.088   2.625  52.235  1.00  0.00     0.192 A 
HETATM   20  N3  UNL     1      23.385   3.622  52.710  1.00  0.00    -0.198 NA
HETATM   21  C18 UNL     1      23.732   4.733  52.050  1.00  0.00     0.171 A 
HETATM   22  C19 UNL     1      23.712   4.599  50.529  1.00  0.00     0.111 A 
HETATM   23  S1  UNL     1      23.179   2.840  50.356  1.00  0.00    -0.058 SA
BRANCH  21  24
HETATM   24  O1  UNL     1      24.045   5.800  52.918  1.00  0.00    -0.344 OA
HETATM   25  H16 UNL     1      23.315   6.394  53.292  1.00  0.00     0.219 HD
ENDBRANCH  21  24
ENDBRANCH   1  19
TORSDOF 5
ENDMDL
MODEL 8
REMARK VINA RESULT:      -8.1      2.750      7.164
REMARK  5 active torsions:
REMARK  status: ('A' for Active; 'I' for Inactive)
REMARK    1  A    between atoms: C9_9  and  N1_10 
REMARK    2  A    between atoms: N1_10  and  N2_11 
REMARK    3  A    between atoms: N1_10  and  C17_19 
REMARK    4  A    between atoms: C10_12  and  C11_13 
REMARK    5  A    between atoms: C18_21  and  O1_22 
ROOT
HETATM    1  N1  UNL     1      25.100   2.163  51.591  1.00  0.00    -0.237 N 
ENDROOT
BRANCH   1   2
HETATM    2  C9  UNL     1      24.836   2.907  50.357  1.00  0.00     0.150 A 
HETATM    3  C5  UNL     1      24.690   4.332  50.577  1.00  0.00    -0.027 A 
HETATM    4  C4  UNL     1      23.950   5.306  51.200  1.00  0.00     0.010 A 
HETATM    5  C6  UNL     1      25.774   4.614  49.797  1.00  0.00    -0.047 A 
HETATM    6  C3  UNL     1      24.266   6.628  51.070  1.00  0.00     0.007 A 
HETATM    7  C2  UNL     1      25.352   6.955  50.293  1.00  0.00    -0.061 A 
HETATM    8  C1  UNL     1      25.747   8.387  50.112  1.00  0.00     0.048 C 
HETATM    9  C7  UNL     1      26.093   5.965  49.666  1.00  0.00     0.014 A 
HETATM   10  C8  UNL     1      26.011   3.191  49.511  1.00  0.00     0.071 A 
ENDBRANCH   1   2
BRANCH   1  11
HETATM   11  N2  UNL     1      23.981   1.616  52.265  1.00  0.00    -0.181 NA
HETATM   12  C10 UNL     1      22.972   1.256  51.555  1.00  0.00     0.150 C 
BRANCH  12  13
HETATM   13  C11 UNL     1      21.746   0.676  52.093  1.00  0.00    -0.017 A 
HETATM   14  C12 UNL     1      20.560   0.498  51.415  1.00  0.00     0.013 A 
HETATM   15  C13 UNL     1      19.447  -0.050  51.972  1.00  0.00     0.001 A 
HETATM   16  C14 UNL     1      19.551  -0.433  53.284  1.00  0.00     0.000 A 
HETATM   17  C15 UNL     1      20.693  -0.295  54.046  1.00  0.00     0.001 A 
HETATM   18  C16 UNL     1      21.811   0.273  53.431  1.00  0.00     0.013 A 
ENDBRANCH  12  13
ENDBRANCH   1  11
BRANCH   1  19
HETATM   19  C17 UNL     1      26.389   1.909  52.221  1.00  0.00     0.192 A 
HETATM   20  N3  UNL     1      27.344   2.411  52.600  1.00  0.00    -0.198 NA
HETATM   21  C18 UNL     1      28.386   1.789  53.164  1.00  0.00     0.171 A 
HETATM   22  C19 UNL     1      28.230   0.275  53.286  1.00  0.00     0.111 A 
HETATM   23  S1  UNL     1      26.558   0.051  52.538  1.00  0.00    -0.058 SA
BRANCH  21  24
HETATM   24  O1  UNL     1      29.415   2.683  53.527  1.00  0.00    -0.344 OA
HETATM   25  H16 UNL     1      29.469   3.054  54.468  1.00  0.00     0.219 HD
ENDBRANCH  21  24
ENDBRANCH   1  19
TORSDOF 5
ENDMDL
MODEL 9
REMARK VINA RESULT:      -8.0      0.912      5.705
REMARK  5 active torsions:
REMARK  status: ('A' for Active; 'I' for Inactive)
REMARK    1  A    between atoms: C9_9  and  N1_10 
REMARK    2  A    between atoms: N1_10  and  N2_11 
REMARK    3  A    between atoms: N1_10  and  C17_19 
REMARK    4  A    between atoms: C10_12  and  C11_13 
REMARK    5  A    between atoms: C18_21  and  O1_22 
ROOT
HETATM    1  N1  UNL     1      24.367   1.853  51.471  1.00  0.00    -0.237 N 
ENDROOT
BRANCH   1   2
HETATM    2  C9  UNL     1      24.838   3.188  51.847  1.00  0.00     0.150 A 
HETATM    3  C5  UNL     1      25.493   3.883  50.756  1.00  0.00    -0.027 A 
HETATM    4  C4  UNL     1      26.553   3.867  49.884  1.00  0.00     0.010 A 
HETATM    5  C6  UNL     1      24.557   4.876  50.762  1.00  0.00    -0.047 A 
HETATM    6  C3  UNL     1      26.727   4.858  48.962  1.00  0.00     0.007 A 
HETATM    7  C2  UNL     1      25.806   5.878  48.934  1.00  0.00    -0.061 A 
HETATM    8  C1  UNL     1      25.944   6.993  47.947  1.00  0.00     0.048 C 
HETATM    9  C7  UNL     1      24.739   5.887  49.819  1.00  0.00     0.014 A 
HETATM   10  C8  UNL     1      23.817   4.251  51.869  1.00  0.00     0.071 A 
ENDBRANCH   1   2
BRANCH   1  11
HETATM   11  N2  UNL     1      25.307   0.796  51.537  1.00  0.00    -0.181 NA
HETATM   12  C10 UNL     1      26.047   0.716  52.585  1.00  0.00     0.150 C 
BRANCH  12  13
HETATM   13  C11 UNL     1      27.060  -0.310  52.807  1.00  0.00    -0.017 A 
HETATM   14  C12 UNL     1      26.917  -1.662  52.585  1.00  0.00     0.013 A 
HETATM   15  C13 UNL     1      27.901  -2.573  52.813  1.00  0.00     0.001 A 
HETATM   16  C14 UNL     1      29.087  -2.077  53.290  1.00  0.00     0.000 A 
HETATM   17  C15 UNL     1      29.326  -0.743  53.543  1.00  0.00     0.001 A 
HETATM   18  C16 UNL     1      28.285   0.155  53.294  1.00  0.00     0.013 A 
ENDBRANCH  12  13
ENDBRANCH   1  11
BRANCH   1  19
HETATM   19  C17 UNL     1      23.031   1.469  51.034  1.00  0.00     0.192 A 
HETATM   20  N3  UNL     1      22.318   1.469  50.140  1.00  0.00    -0.198 NA
HETATM   21  C18 UNL     1      21.071   0.986  50.131  1.00  0.00     0.171 A 
HETATM   22  C19 UNL     1      20.610   0.397  51.462  1.00  0.00     0.111 A 
HETATM   23  S1  UNL     1      22.120   0.668  52.488  1.00  0.00    -0.058 SA
BRANCH  21  24
HETATM   24  O1  UNL     1      20.446   1.131  48.875  1.00  0.00    -0.344 OA
HETATM   25  H16 UNL     1      20.970   0.997  48.018  1.00  0.00     0.219 HD
ENDBRANCH  21  24
ENDBRANCH   1  19
TORSDOF 5
ENDMDL
