MODEL 1
REMARK VINA RESULT:      -9.0      0.000      0.000
REMARK  4 active torsions:
REMARK  status: ('A' for Active; 'I' for Inactive)
REMARK    1  A    between atoms: N1_1  and  C1_2 
REMARK    2  A    between atoms: C2_4  and  N3_5 
REMARK    3  A    between atoms: N3_5  and  C3_6 
REMARK    4  A    between atoms: C11_16  and  C12_17 
ROOT
HETATM    1  C1  UNL     1      23.369  -0.977  54.660  1.00  0.00     0.201 A 
HETATM    2  N2  UNL     1      22.572  -0.633  53.629  1.00  0.00    -0.200 NA
HETATM    3  C2  UNL     1      23.035   0.132  52.598  1.00  0.00     0.143 A 
HETATM    4  C9  UNL     1      24.346   0.548  52.634  1.00  0.00     0.035 A 
HETATM    5  C10 UNL     1      25.160   0.197  53.687  1.00  0.00     0.064 A 
HETATM    6  N4  UNL     1      24.678  -0.569  54.713  1.00  0.00    -0.221 NA
HETATM    7  C11 UNL     1      26.510   0.797  53.435  1.00  0.00     0.096 A 
HETATM    8  C18 UNL     1      26.291   1.486  52.139  1.00  0.00    -0.010 A 
HETATM    9  C19 UNL     1      25.048   1.359  51.653  1.00  0.00     0.014 A 
ENDROOT
BRANCH   3  10
HETATM   10  N3  UNL     1      22.059   0.394  51.608  1.00  0.00    -0.340 N 
HETATM   11  H3  UNL     1      21.507  -0.261  51.035  1.00  0.00     0.167 HD
BRANCH  10  12
HETATM   12  C3  UNL     1      21.850   1.793  51.416  1.00  0.00     0.035 A 
HETATM   13  C4  UNL     1      21.338   2.614  52.388  1.00  0.00     0.029 A 
HETATM   14  C5  UNL     1      21.109   3.980  52.241  1.00  0.00     0.004 A 
HETATM   15  C6  UNL     1      21.435   4.522  51.001  1.00  0.00     0.019 A 
HETATM   16  C7  UNL     1      21.951   3.751  49.984  1.00  0.00     0.013 A 
HETATM   17 BR1  UNL     1      22.369   4.585  48.300  1.00  0.00    -0.051 Br
HETATM   18  C8  UNL     1      22.152   2.407  50.198  1.00  0.00     0.048 A 
ENDBRANCH  10  12
ENDBRANCH   3  10
BRANCH   1  19
HETATM   19  N1  UNL     1      22.790  -1.789  55.705  1.00  0.00    -0.271 NA
HETATM   20  H1  UNL     1      23.062  -2.705  55.325  1.00  0.00     0.127 HD
HETATM   21  H2  UNL     1      23.049  -2.759  55.352  1.00  0.00     0.127 HD
ENDBRANCH   1  19
BRANCH   7  22
HETATM   22  C12 UNL     1      27.558  -0.249  53.384  1.00  0.00    -0.023 A 
HETATM   23  C13 UNL     1      27.171  -1.473  52.873  1.00  0.00     0.010 A 
HETATM   24  C14 UNL     1      28.142  -2.467  52.820  1.00  0.00     0.001 A 
HETATM   25  C15 UNL     1      29.455  -2.286  53.250  1.00  0.00     0.002 A 
HETATM   26  C16 UNL     1      29.777  -1.023  53.756  1.00  0.00     0.024 A 
HETATM   27  C17 UNL     1      28.843  -0.011  53.826  1.00  0.00     0.041 A 
HETATM   28 CL1  UNL     1      29.302   1.554  54.468  1.00  0.00    -0.084 Cl
ENDBRANCH   7  22
TORSDOF 4
ENDMDL
MODEL 2
REMARK VINA RESULT:      -8.7      2.890      3.900
REMARK  4 active torsions:
REMARK  status: ('A' for Active; 'I' for Inactive)
REMARK    1  A    between atoms: N1_1  and  C1_2 
REMARK    2  A    between atoms: C2_4  and  N3_5 
REMARK    3  A    between atoms: N3_5  and  C3_6 
REMARK    4  A    between atoms: C11_16  and  C12_17 
ROOT
HETATM    1  C1  UNL     1      26.494   3.765  50.019  1.00  0.00     0.201 A 
HETATM    2  N2  UNL     1      25.421   4.431  50.488  1.00  0.00    -0.200 NA
HETATM    3  C2  UNL     1      24.579   3.866  51.402  1.00  0.00     0.143 A 
HETATM    4  C9  UNL     1      24.854   2.590  51.839  1.00  0.00     0.035 A 
HETATM    5  C10 UNL     1      25.951   1.910  51.360  1.00  0.00     0.064 A 
HETATM    6  N4  UNL     1      26.782   2.492  50.442  1.00  0.00    -0.221 NA
HETATM    7  C11 UNL     1      25.974   0.565  52.019  1.00  0.00     0.096 A 
HETATM    8  C18 UNL     1      24.771   0.639  52.886  1.00  0.00    -0.010 A 
HETATM    9  C19 UNL     1      24.105   1.799  52.802  1.00  0.00     0.014 A 
ENDROOT
BRANCH   3  10
HETATM   10  N3  UNL     1      23.507   4.709  51.778  1.00  0.00    -0.340 N 
HETATM   11  H3  UNL     1      23.517   5.594  52.306  1.00  0.00     0.167 HD
BRANCH  10  12
HETATM   12  C3  UNL     1      22.246   4.208  51.333  1.00  0.00     0.035 A 
HETATM   13  C4  UNL     1      21.202   3.950  52.184  1.00  0.00     0.029 A 
HETATM   14  C5  UNL     1      19.959   3.453  51.795  1.00  0.00     0.004 A 
HETATM   15  C6  UNL     1      19.799   3.211  50.435  1.00  0.00     0.019 A 
HETATM   16  C7  UNL     1      20.810   3.448  49.530  1.00  0.00     0.013 A 
HETATM   17 BR1  UNL     1      20.500   3.079  47.666  1.00  0.00    -0.051 Br
HETATM   18  C8  UNL     1      22.012   3.939  49.982  1.00  0.00     0.048 A 
ENDBRANCH  10  12
ENDBRANCH   3  10
BRANCH   1  19
HETATM   19  N1  UNL     1      27.327   4.444  49.054  1.00  0.00    -0.271 NA
HETATM   20  H1  UNL     1      27.732   5.139  49.695  1.00  0.00     0.127 HD
HETATM   21  H2  UNL     1      27.772   5.182  49.678  1.00  0.00     0.127 HD
ENDBRANCH   1  19
BRANCH   7  22
HETATM   22  C12 UNL     1      27.236   0.359  52.766  1.00  0.00    -0.023 A 
HETATM   23  C13 UNL     1      27.839   1.496  53.268  1.00  0.00     0.010 A 
HETATM   24  C14 UNL     1      29.026   1.320  53.970  1.00  0.00     0.001 A 
HETATM   25  C15 UNL     1      29.619   0.077  54.184  1.00  0.00     0.002 A 
HETATM   26  C16 UNL     1      28.955  -1.031  53.649  1.00  0.00     0.024 A 
HETATM   27  C17 UNL     1      27.776  -0.899  52.946  1.00  0.00     0.041 A 
HETATM   28 CL1  UNL     1      26.984  -2.322  52.297  1.00  0.00    -0.084 Cl
ENDBRANCH   7  22
TORSDOF 4
ENDMDL
MODEL 3
REMARK VINA RESULT:      -8.4      3.589      5.138
REMARK  4 active torsions:
REMARK  status: ('A' for Active; 'I' for Inactive)
REMARK    1  A    between atoms: N1_1  and  C1_2 
REMARK    2  A    between atoms: C2_4  and  N3_5 
REMARK    3  A    between atoms: N3_5  and  C3_6 
REMARK    4  A    between atoms: C11_16  and  C12_17 
ROOT
HETATM    1  C1  UNL     1      22.286   1.918  49.203  1.00  0.00     0.201 A 
HETATM    2  N2  UNL     1      22.557   3.206  48.916  1.00  0.00    -0.200 NA
HETATM    3  C2  UNL     1      23.134   4.031  49.838  1.00  0.00     0.143 A 
HETATM    4  C9  UNL     1      23.436   3.515  51.077  1.00  0.00     0.035 A 
HETATM    5  C10 UNL     1      23.158   2.198  51.369  1.00  0.00     0.064 A 
HETATM    6  N4  UNL     1      22.578   1.386  50.433  1.00  0.00    -0.221 NA
HETATM    7  C11 UNL     1      23.598   1.945  52.779  1.00  0.00     0.096 A 
HETATM    8  C18 UNL     1      24.131   3.275  53.167  1.00  0.00    -0.010 A 
HETATM    9  C19 UNL     1      24.049   4.201  52.202  1.00  0.00     0.014 A 
ENDROOT
BRANCH   3  10
HETATM   10  N3  UNL     1      23.342   5.347  49.363  1.00  0.00    -0.340 N 
HETATM   11  H3  UNL     1      22.673   6.122  49.246  1.00  0.00     0.167 HD
BRANCH  10  12
HETATM   12  C3  UNL     1      24.705   5.581  49.005  1.00  0.00     0.035 A 
HETATM   13  C4  UNL     1      25.699   4.658  49.206  1.00  0.00     0.029 A 
HETATM   14  C5  UNL     1      27.042   4.847  48.881  1.00  0.00     0.004 A 
HETATM   15  C6  UNL     1      27.363   6.075  48.312  1.00  0.00     0.019 A 
HETATM   16  C7  UNL     1      26.411   7.043  48.086  1.00  0.00     0.013 A 
HETATM   17 BR1  UNL     1      26.948   8.715  47.297  1.00  0.00    -0.051 Br
HETATM   18  C8  UNL     1      25.104   6.790  48.431  1.00  0.00     0.048 A 
ENDBRANCH  10  12
ENDBRANCH   3  10
BRANCH   1  19
HETATM   19  N1  UNL     1      21.674   1.121  48.164  1.00  0.00    -0.271 NA
HETATM   20  H1  UNL     1      22.167   1.545  47.367  1.00  0.00     0.127 HD
HETATM   21  H2  UNL     1      22.158   1.528  47.308  1.00  0.00     0.127 HD
ENDBRANCH   1  19
BRANCH   7  22
HETATM   22  C12 UNL     1      24.604   0.859  52.837  1.00  0.00    -0.023 A 
HETATM   23  C13 UNL     1      25.794   1.097  52.176  1.00  0.00     0.010 A 
HETATM   24  C14 UNL     1      26.749   0.087  52.218  1.00  0.00     0.001 A 
HETATM   25  C15 UNL     1      26.561  -1.124  52.882  1.00  0.00     0.002 A 
HETATM   26  C16 UNL     1      25.334  -1.298  53.529  1.00  0.00     0.024 A 
HETATM   27  C17 UNL     1      24.361  -0.321  53.510  1.00  0.00     0.041 A 
HETATM   28 CL1  UNL     1      22.841  -0.590  54.339  1.00  0.00    -0.084 Cl
ENDBRANCH   7  22
TORSDOF 4
ENDMDL
MODEL 4
REMARK VINA RESULT:      -8.3      3.246      4.390
REMARK  4 active torsions:
REMARK  status: ('A' for Active; 'I' for Inactive)
REMARK    1  A    between atoms: N1_1  and  C1_2 
REMARK    2  A    between atoms: C2_4  and  N3_5 
REMARK    3  A    between atoms: N3_5  and  C3_6 
REMARK    4  A    between atoms: C11_16  and  C12_17 
ROOT
HETATM    1  C1  UNL     1      26.485   3.748  50.041  1.00  0.00     0.201 A 
HETATM    2  N2  UNL     1      25.425   4.423  50.528  1.00  0.00    -0.200 NA
HETATM    3  C2  UNL     1      24.591   3.862  51.452  1.00  0.00     0.143 A 
HETATM    4  C9  UNL     1      24.859   2.582  51.880  1.00  0.00     0.035 A 
HETATM    5  C10 UNL     1      25.942   1.894  51.382  1.00  0.00     0.064 A 
HETATM    6  N4  UNL     1      26.766   2.471  50.455  1.00  0.00    -0.221 NA
HETATM    7  C11 UNL     1      25.961   0.545  52.036  1.00  0.00     0.096 A 
HETATM    8  C18 UNL     1      24.772   0.628  52.921  1.00  0.00    -0.010 A 
HETATM    9  C19 UNL     1      24.116   1.795  52.851  1.00  0.00     0.014 A 
ENDROOT
BRANCH   3  10
HETATM   10  N3  UNL     1      23.533   4.715  51.847  1.00  0.00    -0.340 N 
HETATM   11  H3  UNL     1      22.857   4.615  52.618  1.00  0.00     0.167 HD
BRANCH  10  12
HETATM   12  C3  UNL     1      23.435   5.871  51.015  1.00  0.00     0.035 A 
HETATM   13  C4  UNL     1      24.171   7.009  51.226  1.00  0.00     0.029 A 
HETATM   14  C5  UNL     1      24.100   8.162  50.446  1.00  0.00     0.004 A 
HETATM   15  C6  UNL     1      23.205   8.123  49.382  1.00  0.00     0.019 A 
HETATM   16  C7  UNL     1      22.437   7.011  49.119  1.00  0.00     0.013 A 
HETATM   17 BR1  UNL     1      21.221   7.049  47.626  1.00  0.00    -0.051 Br
HETATM   18  C8  UNL     1      22.557   5.906  49.929  1.00  0.00     0.048 A 
ENDBRANCH  10  12
ENDBRANCH   3  10
BRANCH   1  19
HETATM   19  N1  UNL     1      27.310   4.423  49.066  1.00  0.00    -0.271 NA
HETATM   20  H1  UNL     1      27.605   5.207  49.664  1.00  0.00     0.127 HD
HETATM   21  H2  UNL     1      27.642   5.252  49.645  1.00  0.00     0.127 HD
ENDBRANCH   1  19
BRANCH   7  22
HETATM   22  C12 UNL     1      27.232   0.324  52.764  1.00  0.00    -0.023 A 
HETATM   23  C13 UNL     1      27.849   1.452  53.269  1.00  0.00     0.010 A 
HETATM   24  C14 UNL     1      29.044   1.262  53.953  1.00  0.00     0.001 A 
HETATM   25  C15 UNL     1      29.632   0.013  54.146  1.00  0.00     0.002 A 
HETATM   26  C16 UNL     1      28.954  -1.085  53.609  1.00  0.00     0.024 A 
HETATM   27  C17 UNL     1      27.767  -0.939  52.923  1.00  0.00     0.041 A 
HETATM   28 CL1  UNL     1      26.958  -2.350  52.271  1.00  0.00    -0.084 Cl
ENDBRANCH   7  22
TORSDOF 4
ENDMDL
MODEL 5
REMARK VINA RESULT:      -8.3      4.472      6.116
REMARK  4 active torsions:
REMARK  status: ('A' for Active; 'I' for Inactive)
REMARK    1  A    between atoms: N1_1  and  C1_2 
REMARK    2  A    between atoms: C2_4  and  N3_5 
REMARK    3  A    between atoms: N3_5  and  C3_6 
REMARK    4  A    between atoms: C11_16  and  C12_17 
ROOT
HETATM    1  C1  UNL     1      20.202   0.443  50.811  1.00  0.00     0.201 A 
HETATM    2  N2  UNL     1      19.221   0.238  51.712  1.00  0.00    -0.200 NA
HETATM    3  C2  UNL     1      19.493  -0.245  52.959  1.00  0.00     0.143 A 
HETATM    4  C9  UNL     1      20.803  -0.521  53.279  1.00  0.00     0.035 A 
HETATM    5  C10 UNL     1      21.804  -0.312  52.358  1.00  0.00     0.064 A 
HETATM    6  N4  UNL     1      21.512   0.172  51.112  1.00  0.00    -0.221 NA
HETATM    7  C11 UNL     1      23.101  -0.703  53.000  1.00  0.00     0.096 A 
HETATM    8  C18 UNL     1      22.646  -1.129  54.348  1.00  0.00    -0.010 A 
HETATM    9  C19 UNL     1      21.322  -1.035  54.536  1.00  0.00     0.014 A 
ENDROOT
BRANCH   3  10
HETATM   10  N3  UNL     1      18.343  -0.398  53.768  1.00  0.00    -0.340 N 
HETATM   11  H3  UNL     1      18.001   0.185  54.546  1.00  0.00     0.167 HD
BRANCH  10  12
HETATM   12  C3  UNL     1      17.580  -1.550  53.408  1.00  0.00     0.035 A 
HETATM   13  C4  UNL     1      17.922  -2.822  53.789  1.00  0.00     0.029 A 
HETATM   14  C5  UNL     1      17.213  -3.974  53.454  1.00  0.00     0.004 A 
HETATM   15  C6  UNL     1      16.078  -3.784  52.672  1.00  0.00     0.019 A 
HETATM   16  C7  UNL     1      15.683  -2.532  52.256  1.00  0.00     0.013 A 
HETATM   17 BR1  UNL     1      14.100  -2.365  51.173  1.00  0.00    -0.051 Br
HETATM   18  C8  UNL     1      16.429  -1.437  52.624  1.00  0.00     0.048 A 
ENDBRANCH  10  12
ENDBRANCH   3  10
BRANCH   1  19
HETATM   19  N1  UNL     1      19.817   0.957  49.516  1.00  0.00    -0.271 NA
HETATM   20  H1  UNL     1      19.537   1.897  49.827  1.00  0.00     0.127 HD
HETATM   21  H2  UNL     1      19.516   1.940  49.789  1.00  0.00     0.127 HD
ENDBRANCH   1  19
BRANCH   7  22
HETATM   22  C12 UNL     1      24.049   0.434  53.024  1.00  0.00    -0.023 A 
HETATM   23  C13 UNL     1      23.487   1.694  53.101  1.00  0.00     0.010 A 
HETATM   24  C14 UNL     1      24.364   2.773  53.121  1.00  0.00     0.001 A 
HETATM   25  C15 UNL     1      25.750   2.641  53.068  1.00  0.00     0.002 A 
HETATM   26  C16 UNL     1      26.250   1.338  52.990  1.00  0.00     0.024 A 
HETATM   27  C17 UNL     1      25.414   0.242  52.968  1.00  0.00     0.041 A 
HETATM   28 CL1  UNL     1      26.096  -1.371  52.871  1.00  0.00    -0.084 Cl
ENDBRANCH   7  22
TORSDOF 4
ENDMDL
MODEL 6
REMARK VINA RESULT:      -8.2      4.041      5.477
REMARK  4 active torsions:
REMARK  status: ('A' for Active; 'I' for Inactive)
REMARK    1  A    between atoms: N1_1  and  C1_2 
REMARK    2  A    between atoms: C2_4  and  N3_5 
REMARK    3  A    between atoms: N3_5  and  C3_6 
REMARK    4  A    between atoms: C11_16  and  C12_17 
ROOT
HETATM    1  C1  UNL     1      23.422   4.722  52.082  1.00  0.00     0.201 A 
HETATM    2  N2  UNL     1      23.826   4.883  50.806  1.00  0.00    -0.200 NA
HETATM    3  C2  UNL     1      24.834   4.127  50.281  1.00  0.00     0.143 A 
HETATM    4  C9  UNL     1      25.434   3.189  51.090  1.00  0.00     0.035 A 
HETATM    5  C10 UNL     1      25.021   3.026  52.393  1.00  0.00     0.064 A 
HETATM    6  N4  UNL     1      24.010   3.794  52.903  1.00  0.00    -0.221 NA
HETATM    7  C11 UNL     1      25.860   1.943  53.002  1.00  0.00     0.096 A 
HETATM    8  C18 UNL     1      26.739   1.575  51.864  1.00  0.00    -0.010 A 
HETATM    9  C19 UNL     1      26.515   2.280  50.746  1.00  0.00     0.014 A 
ENDROOT
BRANCH   3  10
HETATM   10  N3  UNL     1      25.124   4.434  48.931  1.00  0.00    -0.340 N 
HETATM   11  H3  UNL     1      24.722   4.048  48.065  1.00  0.00     0.167 HD
BRANCH  10  12
HETATM   12  C3  UNL     1      26.135   5.435  48.811  1.00  0.00     0.035 A 
HETATM   13  C4  UNL     1      25.879   6.776  48.944  1.00  0.00     0.029 A 
HETATM   14  C5  UNL     1      26.831   7.787  48.827  1.00  0.00     0.004 A 
HETATM   15  C6  UNL     1      28.130   7.371  48.553  1.00  0.00     0.019 A 
HETATM   16  C7  UNL     1      28.451   6.040  48.407  1.00  0.00     0.013 A 
HETATM   17 BR1  UNL     1      30.275   5.556  48.025  1.00  0.00    -0.051 Br
HETATM   18  C8  UNL     1      27.461   5.093  48.536  1.00  0.00     0.048 A 
ENDBRANCH  10  12
ENDBRANCH   3  10
BRANCH   1  19
HETATM   19  N1  UNL     1      22.347   5.568  52.549  1.00  0.00    -0.271 NA
HETATM   20  H1  UNL     1      21.762   5.515  51.704  1.00  0.00     0.127 HD
HETATM   21  H2  UNL     1      21.708   5.544  51.698  1.00  0.00     0.127 HD
ENDBRANCH   1  19
BRANCH   7  22
HETATM   22  C12 UNL     1      25.017   0.827  53.490  1.00  0.00    -0.023 A 
HETATM   23  C13 UNL     1      23.758   0.727  52.932  1.00  0.00     0.010 A 
HETATM   24  C14 UNL     1      22.953  -0.314  53.381  1.00  0.00     0.001 A 
HETATM   25  C15 UNL     1      23.353  -1.237  54.346  1.00  0.00     0.002 A 
HETATM   26  C16 UNL     1      24.640  -1.076  54.868  1.00  0.00     0.024 A 
HETATM   27  C17 UNL     1      25.468  -0.057  54.449  1.00  0.00     0.041 A 
HETATM   28 CL1  UNL     1      27.074   0.099  55.137  1.00  0.00    -0.084 Cl
ENDBRANCH   7  22
TORSDOF 4
ENDMDL
MODEL 7
REMARK VINA RESULT:      -8.1      4.601      6.878
REMARK  4 active torsions:
REMARK  status: ('A' for Active; 'I' for Inactive)
REMARK    1  A    between atoms: N1_1  and  C1_2 
REMARK    2  A    between atoms: C2_4  and  N3_5 
REMARK    3  A    between atoms: N3_5  and  C3_6 
REMARK    4  A    between atoms: C11_16  and  C12_17 
ROOT
HETATM    1  C1  UNL     1      23.688   4.636  52.760  1.00  0.00     0.201 A 
HETATM    2  N2  UNL     1      23.725   3.289  52.798  1.00  0.00    -0.200 NA
HETATM    3  C2  UNL     1      23.602   2.544  51.662  1.00  0.00     0.143 A 
HETATM    4  C9  UNL     1      23.439   3.203  50.465  1.00  0.00     0.035 A 
HETATM    5  C10 UNL     1      23.401   4.579  50.426  1.00  0.00     0.064 A 
HETATM    6  N4  UNL     1      23.524   5.309  51.576  1.00  0.00    -0.221 NA
HETATM    7  C11 UNL     1      23.214   4.987  48.997  1.00  0.00     0.096 A 
HETATM    8  C18 UNL     1      23.165   3.669  48.316  1.00  0.00    -0.010 A 
HETATM    9  C19 UNL     1      23.292   2.620  49.141  1.00  0.00     0.014 A 
ENDROOT
BRANCH   3  10
HETATM   10  N3  UNL     1      23.663   1.150  51.893  1.00  0.00    -0.340 N 
HETATM   11  H3  UNL     1      24.428   0.483  51.714  1.00  0.00     0.167 HD
BRANCH  10  12
HETATM   12  C3  UNL     1      22.453   0.645  52.459  1.00  0.00     0.035 A 
HETATM   13  C4  UNL     1      22.385   0.103  53.717  1.00  0.00     0.029 A 
HETATM   14  C5  UNL     1      21.230  -0.409  54.305  1.00  0.00     0.004 A 
HETATM   15  C6  UNL     1      20.076  -0.352  53.530  1.00  0.00     0.019 A 
HETATM   16  C7  UNL     1      20.080   0.178  52.259  1.00  0.00     0.013 A 
HETATM   17 BR1  UNL     1      18.435   0.213  51.257  1.00  0.00    -0.051 Br
HETATM   18  C8  UNL     1      21.256   0.667  51.740  1.00  0.00     0.048 A 
ENDBRANCH  10  12
ENDBRANCH   3  10
BRANCH   1  19
HETATM   19  N1  UNL     1      23.826   5.340  54.014  1.00  0.00    -0.271 NA
HETATM   20  H1  UNL     1      23.969   6.280  53.622  1.00  0.00     0.127 HD
HETATM   21  H2  UNL     1      23.978   6.331  53.656  1.00  0.00     0.127 HD
ENDBRANCH   1  19
BRANCH   7  22
HETATM   22  C12 UNL     1      24.326   5.853  48.540  1.00  0.00    -0.023 A 
HETATM   23  C13 UNL     1      25.597   5.452  48.901  1.00  0.00     0.010 A 
HETATM   24  C14 UNL     1      26.652   6.256  48.482  1.00  0.00     0.001 A 
HETATM   25  C15 UNL     1      26.485   7.418  47.732  1.00  0.00     0.002 A 
HETATM   26  C16 UNL     1      25.171   7.764  47.401  1.00  0.00     0.024 A 
HETATM   27  C17 UNL     1      24.098   6.994  47.798  1.00  0.00     0.041 A 
HETATM   28 CL1  UNL     1      22.472   7.474  47.355  1.00  0.00    -0.084 Cl
ENDBRANCH   7  22
TORSDOF 4
ENDMDL
MODEL 8
REMARK VINA RESULT:      -8.0      6.100      8.292
REMARK  4 active torsions:
REMARK  status: ('A' for Active; 'I' for Inactive)
REMARK    1  A    between atoms: N1_1  and  C1_2 
REMARK    2  A    between atoms: C2_4  and  N3_5 
REMARK    3  A    between atoms: N3_5  and  C3_6 
REMARK    4  A    between atoms: C11_16  and  C12_17 
ROOT
HETATM    1  C1  UNL     1      24.431   7.361  49.795  1.00  0.00     0.201 A 
HETATM    2  N2  UNL     1      25.394   7.615  48.886  1.00  0.00    -0.200 NA
HETATM    3  C2  UNL     1      26.316   6.668  48.548  1.00  0.00     0.143 A 
HETATM    4  C9  UNL     1      26.241   5.437  49.159  1.00  0.00     0.035 A 
HETATM    5  C10 UNL     1      25.257   5.179  50.086  1.00  0.00     0.064 A 
HETATM    6  N4  UNL     1      24.342   6.141  50.415  1.00  0.00    -0.221 NA
HETATM    7  C11 UNL     1      25.442   3.770  50.563  1.00  0.00     0.096 A 
HETATM    8  C18 UNL     1      26.624   3.343  49.773  1.00  0.00    -0.010 A 
HETATM    9  C19 UNL     1      27.107   4.288  48.953  1.00  0.00     0.014 A 
ENDROOT
BRANCH   3  10
HETATM   10  N3  UNL     1      27.250   7.111  47.582  1.00  0.00    -0.340 N 
HETATM   11  H3  UNL     1      27.166   7.160  46.556  1.00  0.00     0.167 HD
BRANCH  10  12
HETATM   12  C3  UNL     1      28.475   7.542  48.175  1.00  0.00     0.035 A 
HETATM   13  C4  UNL     1      28.638   8.782  48.737  1.00  0.00     0.029 A 
HETATM   14  C5  UNL     1      29.816   9.247  49.318  1.00  0.00     0.004 A 
HETATM   15  C6  UNL     1      30.890   8.362  49.310  1.00  0.00     0.019 A 
HETATM   16  C7  UNL     1      30.790   7.104  48.759  1.00  0.00     0.013 A 
HETATM   17 BR1  UNL     1      32.329   5.948  48.790  1.00  0.00    -0.051 Br
HETATM   18  C8  UNL     1      29.596   6.709  48.203  1.00  0.00     0.048 A 
ENDBRANCH  10  12
ENDBRANCH   3  10
BRANCH   1  19
HETATM   19  N1  UNL     1      23.499   8.426  50.089  1.00  0.00    -0.271 NA
HETATM   20  H1  UNL     1      23.074   8.490  49.154  1.00  0.00     0.127 HD
HETATM   21  H2  UNL     1      23.029   8.529  49.139  1.00  0.00     0.127 HD
ENDBRANCH   1  19
BRANCH   7  22
HETATM   22  C12 UNL     1      24.230   2.958  50.309  1.00  0.00    -0.023 A 
HETATM   23  C13 UNL     1      23.677   3.069  49.048  1.00  0.00     0.010 A 
HETATM   24  C14 UNL     1      22.537   2.314  48.794  1.00  0.00     0.001 A 
HETATM   25  C15 UNL     1      21.944   1.472  49.733  1.00  0.00     0.002 A 
HETATM   26  C16 UNL     1      22.557   1.408  50.988  1.00  0.00     0.024 A 
HETATM   27  C17 UNL     1      23.688   2.140  51.279  1.00  0.00     0.041 A 
HETATM   28 CL1  UNL     1      24.416   2.021  52.870  1.00  0.00    -0.084 Cl
ENDBRANCH   7  22
TORSDOF 4
ENDMDL
MODEL 9
REMARK VINA RESULT:      -7.9      3.343      5.056
REMARK  4 active torsions:
REMARK  status: ('A' for Active; 'I' for Inactive)
REMARK    1  A    between atoms: N1_1  and  C1_2 
REMARK    2  A    between atoms: C2_4  and  N3_5 
REMARK    3  A    between atoms: N3_5  and  C3_6 
REMARK    4  A    between atoms: C11_16  and  C12_17 
ROOT
HETATM    1  C1  UNL     1      23.078   4.543  52.539  1.00  0.00     0.201 A 
HETATM    2  N2  UNL     1      21.928   4.959  51.973  1.00  0.00    -0.200 NA
HETATM    3  C2  UNL     1      21.096   4.086  51.333  1.00  0.00     0.143 A 
HETATM    4  C9  UNL     1      21.460   2.760  51.280  1.00  0.00     0.035 A 
HETATM    5  C10 UNL     1      22.634   2.335  51.859  1.00  0.00     0.064 A 
HETATM    6  N4  UNL     1      23.457   3.225  52.495  1.00  0.00    -0.221 NA
HETATM    7  C11 UNL     1      22.744   0.858  51.633  1.00  0.00     0.096 A 
HETATM    8  C18 UNL     1      21.495   0.581  50.879  1.00  0.00    -0.010 A 
HETATM    9  C19 UNL     1      20.734   1.663  50.661  1.00  0.00     0.014 A 
ENDROOT
BRANCH   3  10
HETATM   10  N3  UNL     1      19.939   4.699  50.799  1.00  0.00    -0.340 N 
HETATM   11  H3  UNL     1      18.964   4.670  51.129  1.00  0.00     0.167 HD
BRANCH  10  12
HETATM   12  C3  UNL     1      20.226   5.460  49.625  1.00  0.00     0.035 A 
HETATM   13  C4  UNL     1      19.978   6.805  49.526  1.00  0.00     0.029 A 
HETATM   14  C5  UNL     1      20.233   7.583  48.398  1.00  0.00     0.004 A 
HETATM   15  C6  UNL     1      20.782   6.915  47.308  1.00  0.00     0.019 A 
HETATM   16  C7  UNL     1      21.053   5.566  47.345  1.00  0.00     0.013 A 
HETATM   17 BR1  UNL     1      21.809   4.723  45.787  1.00  0.00    -0.051 Br
HETATM   18  C8  UNL     1      20.776   4.857  48.491  1.00  0.00     0.048 A 
ENDBRANCH  10  12
ENDBRANCH   3  10
BRANCH   1  19
HETATM   19  N1  UNL     1      23.894   5.540  53.194  1.00  0.00    -0.271 NA
HETATM   20  H1  UNL     1      23.416   6.369  52.816  1.00  0.00     0.127 HD
HETATM   21  H2  UNL     1      23.432   6.427  52.829  1.00  0.00     0.127 HD
ENDBRANCH   1  19
BRANCH   7  22
HETATM   22  C12 UNL     1      22.839   0.127  52.918  1.00  0.00    -0.023 A 
HETATM   23  C13 UNL     1      21.643  -0.148  53.551  1.00  0.00     0.010 A 
HETATM   24  C14 UNL     1      21.715  -0.831  54.760  1.00  0.00     0.001 A 
HETATM   25  C15 UNL     1      22.912  -1.241  55.345  1.00  0.00     0.002 A 
HETATM   26  C16 UNL     1      24.084  -0.929  54.649  1.00  0.00     0.024 A 
HETATM   27  C17 UNL     1      24.055  -0.252  53.448  1.00  0.00     0.041 A 
HETATM   28 CL1  UNL     1      25.556   0.111  52.617  1.00  0.00    -0.084 Cl
ENDBRANCH   7  22
TORSDOF 4
ENDMDL
