MODEL 1
REMARK VINA RESULT:     -10.8      0.000      0.000
REMARK  2 active torsions:
REMARK  status: ('A' for Active; 'I' for Inactive)
REMARK    1  A    between atoms: C8_9  and  C9_10 
REMARK    2  A    between atoms: C9_10  and  C10_11 
ROOT
HETATM    1 BR1  UNL     1      20.003   0.941  50.906  1.00  0.00    -0.051 Br
HETATM    2  C1  UNL     1      21.484   0.392  51.981  1.00  0.00     0.011 A 
HETATM    3  C2  UNL     1      21.253  -0.650  52.836  1.00  0.00     0.019 A 
HETATM    4  C3  UNL     1      22.324  -1.058  53.624  1.00  0.00     0.002 A 
HETATM    5  C4  UNL     1      23.546  -0.458  53.557  1.00  0.00     0.014 A 
HETATM    6  C5  UNL     1      23.794   0.592  52.702  1.00  0.00    -0.005 A 
HETATM    7  C6  UNL     1      24.975   1.372  52.459  1.00  0.00     0.081 C 
HETATM    8  C7  UNL     1      25.995   1.204  51.691  1.00  0.00     0.031 C 
HETATM    9  C8  UNL     1      26.624   2.231  51.155  1.00  0.00     0.028 C 
HETATM   10  N1  UNL     1      27.288   2.764  52.286  1.00  0.00    -0.352 N 
HETATM   11  C20 UNL     1      28.233   2.047  53.098  1.00  0.00     0.229 C 
HETATM   12  N2  UNL     1      27.954   1.417  54.205  1.00  0.00    -0.169 NA
HETATM   13  N3  UNL     1      26.600   1.475  54.596  1.00  0.00    -0.271 N 
HETATM   14  C21 UNL     1      25.829   2.608  54.220  1.00  0.00     0.226 C 
HETATM   15  N4  UNL     1      25.048   2.576  53.201  1.00  0.00    -0.241 NA
HETATM   16  C22 UNL     1      22.730   1.014  51.904  1.00  0.00     0.032 A 
HETATM   17  H13 UNL     1      26.854   3.704  52.230  1.00  0.00     0.166 HD
HETATM   18  H15 UNL     1      26.171   0.702  55.148  1.00  0.00     0.190 HD
ENDROOT
BRANCH   9  19
HETATM   19  C9  UNL     1      26.518   2.552  49.710  1.00  0.00     0.097 C 
BRANCH  19  20
HETATM   20  C10 UNL     1      25.915   3.863  49.441  1.00  0.00    -0.041 A 
HETATM   21  C11 UNL     1      24.562   4.131  49.687  1.00  0.00     0.008 A 
HETATM   22  C12 UNL     1      23.946   5.346  49.462  1.00  0.00     0.001 A 
HETATM   23  C13 UNL     1      24.692   6.385  48.961  1.00  0.00     0.012 A 
HETATM   24  C14 UNL     1      26.023   6.185  48.699  1.00  0.00    -0.025 A 
HETATM   25  C15 UNL     1      26.738   7.258  48.190  1.00  0.00     0.012 A 
HETATM   26  C19 UNL     1      26.586   4.958  48.939  1.00  0.00    -0.019 A 
HETATM   27  C16 UNL     1      28.069   7.083  47.916  1.00  0.00     0.001 A 
HETATM   28  C17 UNL     1      28.689   5.866  48.139  1.00  0.00     0.001 A 
HETATM   29  C18 UNL     1      27.923   4.833  48.648  1.00  0.00     0.013 A 
ENDBRANCH  19  20
ENDBRANCH   9  19
TORSDOF 2
ENDMDL
MODEL 2
REMARK VINA RESULT:     -10.3      0.712      2.288
REMARK  2 active torsions:
REMARK  status: ('A' for Active; 'I' for Inactive)
REMARK    1  A    between atoms: C8_9  and  C9_10 
REMARK    2  A    between atoms: C9_10  and  C10_11 
ROOT
HETATM    1 BR1  UNL     1      19.953   0.711  51.181  1.00  0.00    -0.051 Br
HETATM    2  C1  UNL     1      21.447   0.222  52.267  1.00  0.00     0.011 A 
HETATM    3  C2  UNL     1      21.221  -0.755  53.196  1.00  0.00     0.019 A 
HETATM    4  C3  UNL     1      22.301  -1.118  53.994  1.00  0.00     0.002 A 
HETATM    5  C4  UNL     1      23.527  -0.539  53.864  1.00  0.00     0.014 A 
HETATM    6  C5  UNL     1      23.771   0.446  52.934  1.00  0.00    -0.005 A 
HETATM    7  C6  UNL     1      24.956   1.194  52.617  1.00  0.00     0.081 C 
HETATM    8  C7  UNL     1      25.961   0.961  51.847  1.00  0.00     0.031 C 
HETATM    9  C8  UNL     1      26.590   1.941  51.229  1.00  0.00     0.028 C 
HETATM   10  N1  UNL     1      27.279   2.544  52.309  1.00  0.00    -0.352 N 
HETATM   11  C20 UNL     1      28.231   1.875  53.154  1.00  0.00     0.229 C 
HETATM   12  N2  UNL     1      27.965   1.328  54.307  1.00  0.00    -0.169 NA
HETATM   13  N3  UNL     1      26.618   1.428  54.715  1.00  0.00    -0.271 N 
HETATM   14  C21 UNL     1      25.852   2.540  54.274  1.00  0.00     0.226 C 
HETATM   15  N4  UNL     1      25.053   2.446  53.273  1.00  0.00    -0.241 NA
HETATM   16  C22 UNL     1      22.698   0.824  52.126  1.00  0.00     0.032 A 
HETATM   17  H13 UNL     1      26.854   3.483  52.195  1.00  0.00     0.166 HD
HETATM   18  H15 UNL     1      26.191   0.700  55.327  1.00  0.00     0.190 HD
ENDROOT
BRANCH   9  19
HETATM   19  C9  UNL     1      26.462   2.162  49.767  1.00  0.00     0.097 C 
BRANCH  19  20
HETATM   20  C10 UNL     1      26.196   3.558  49.404  1.00  0.00    -0.041 A 
HETATM   21  C11 UNL     1      27.218   4.450  49.052  1.00  0.00     0.008 A 
HETATM   22  C12 UNL     1      27.024   5.769  48.693  1.00  0.00     0.001 A 
HETATM   23  C13 UNL     1      25.745   6.269  48.670  1.00  0.00     0.012 A 
HETATM   24  C14 UNL     1      24.701   5.445  49.004  1.00  0.00    -0.025 A 
HETATM   25  C15 UNL     1      23.427   5.990  48.972  1.00  0.00     0.012 A 
HETATM   26  C19 UNL     1      24.947   4.143  49.355  1.00  0.00    -0.019 A 
HETATM   27  C16 UNL     1      22.366   5.189  49.306  1.00  0.00     0.001 A 
HETATM   28  C17 UNL     1      22.557   3.867  49.668  1.00  0.00     0.001 A 
HETATM   29  C18 UNL     1      23.852   3.380  49.681  1.00  0.00     0.013 A 
ENDBRANCH  19  20
ENDBRANCH   9  19
TORSDOF 2
ENDMDL
MODEL 3
REMARK VINA RESULT:      -9.4      3.554      4.970
REMARK  2 active torsions:
REMARK  status: ('A' for Active; 'I' for Inactive)
REMARK    1  A    between atoms: C8_9  and  C9_10 
REMARK    2  A    between atoms: C9_10  and  C10_11 
ROOT
HETATM    1 BR1  UNL     1      18.524   3.953  49.063  1.00  0.00    -0.051 Br
HETATM    2  C1  UNL     1      18.572   2.279  49.982  1.00  0.00     0.011 A 
HETATM    3  C2  UNL     1      17.519   1.437  49.753  1.00  0.00     0.019 A 
HETATM    4  C3  UNL     1      17.543   0.215  50.418  1.00  0.00     0.002 A 
HETATM    5  C4  UNL     1      18.559  -0.137  51.255  1.00  0.00     0.014 A 
HETATM    6  C5  UNL     1      19.625   0.699  51.495  1.00  0.00    -0.005 A 
HETATM    7  C6  UNL     1      20.791   0.552  52.322  1.00  0.00     0.081 C 
HETATM    8  C7  UNL     1      21.944   0.014  52.126  1.00  0.00     0.031 C 
HETATM    9  C8  UNL     1      23.028   0.488  52.707  1.00  0.00     0.028 C 
HETATM   10  N1  UNL     1      22.820   0.078  54.046  1.00  0.00    -0.352 N 
HETATM   11  C20 UNL     1      22.655  -1.285  54.472  1.00  0.00     0.229 C 
HETATM   12  N2  UNL     1      21.514  -1.887  54.657  1.00  0.00    -0.169 NA
HETATM   13  N3  UNL     1      20.376  -1.091  54.405  1.00  0.00    -0.271 N 
HETATM   14  C21 UNL     1      20.468   0.313  54.602  1.00  0.00     0.226 C 
HETATM   15  N4  UNL     1      20.666   1.113  53.617  1.00  0.00    -0.241 NA
HETATM   16  C22 UNL     1      19.618   1.929  50.837  1.00  0.00     0.032 A 
HETATM   17  H13 UNL     1      22.851   1.031  54.455  1.00  0.00     0.166 HD
HETATM   18  H15 UNL     1      19.485  -1.524  54.081  1.00  0.00     0.190 HD
ENDROOT
BRANCH   9  19
HETATM   19  C9  UNL     1      24.067   1.230  51.950  1.00  0.00     0.097 C 
BRANCH  19  20
HETATM   20  C10 UNL     1      23.710   2.626  51.673  1.00  0.00    -0.041 A 
HETATM   21  C11 UNL     1      23.826   3.636  52.638  1.00  0.00     0.008 A 
HETATM   22  C12 UNL     1      23.514   4.965  52.430  1.00  0.00     0.001 A 
HETATM   23  C13 UNL     1      23.055   5.352  51.195  1.00  0.00     0.012 A 
HETATM   24  C14 UNL     1      22.919   4.410  50.208  1.00  0.00    -0.025 A 
HETATM   25  C15 UNL     1      22.449   4.842  48.978  1.00  0.00     0.012 A 
HETATM   26  C19 UNL     1      23.241   3.103  50.466  1.00  0.00    -0.019 A 
HETATM   27  C16 UNL     1      22.300   3.919  47.975  1.00  0.00     0.001 A 
HETATM   28  C17 UNL     1      22.610   2.587  48.181  1.00  0.00     0.001 A 
HETATM   29  C18 UNL     1      23.075   2.216  49.430  1.00  0.00     0.013 A 
ENDBRANCH  19  20
ENDBRANCH   9  19
TORSDOF 2
ENDMDL
MODEL 4
REMARK VINA RESULT:      -9.4      3.051      4.689
REMARK  2 active torsions:
REMARK  status: ('A' for Active; 'I' for Inactive)
REMARK    1  A    between atoms: C8_9  and  C9_10 
REMARK    2  A    between atoms: C9_10  and  C10_11 
ROOT
HETATM    1 BR1  UNL     1      25.574  -0.084  53.878  1.00  0.00    -0.051 Br
HETATM    2  C1  UNL     1      23.804   0.073  53.179  1.00  0.00     0.011 A 
HETATM    3  C2  UNL     1      22.866  -0.761  53.723  1.00  0.00     0.019 A 
HETATM    4  C3  UNL     1      21.573  -0.657  53.221  1.00  0.00     0.002 A 
HETATM    5  C4  UNL     1      21.245   0.228  52.238  1.00  0.00     0.014 A 
HETATM    6  C5  UNL     1      22.176   1.074  51.680  1.00  0.00    -0.005 A 
HETATM    7  C6  UNL     1      22.072   2.070  50.651  1.00  0.00     0.081 C 
HETATM    8  C7  UNL     1      21.738   3.313  50.664  1.00  0.00     0.031 C 
HETATM    9  C8  UNL     1      22.267   4.173  49.816  1.00  0.00     0.028 C 
HETATM   10  N1  UNL     1      21.633   3.789  48.610  1.00  0.00    -0.352 N 
HETATM   11  C20 UNL     1      20.210   3.780  48.395  1.00  0.00     0.229 C 
HETATM   12  N2  UNL     1      19.433   2.742  48.528  1.00  0.00    -0.169 NA
HETATM   13  N3  UNL     1      20.089   1.554  48.915  1.00  0.00    -0.271 N 
HETATM   14  C21 UNL     1      21.446   1.369  48.535  1.00  0.00     0.226 C 
HETATM   15  N4  UNL     1      22.406   1.612  49.353  1.00  0.00    -0.241 NA
HETATM   16  C22 UNL     1      23.479   0.982  52.172  1.00  0.00     0.032 A 
HETATM   17  H13 UNL     1      22.506   3.581  48.092  1.00  0.00     0.166 HD
HETATM   18  H15 UNL     1      19.589   0.826  49.468  1.00  0.00     0.190 HD
ENDROOT
BRANCH   9  19
HETATM   19  C9  UNL     1      23.254   5.195  50.243  1.00  0.00     0.097 C 
BRANCH  19  20
HETATM   20  C10 UNL     1      24.629   4.897  49.826  1.00  0.00    -0.041 A 
HETATM   21  C11 UNL     1      25.240   3.663  50.084  1.00  0.00     0.008 A 
HETATM   22  C12 UNL     1      26.524   3.325  49.707  1.00  0.00     0.001 A 
HETATM   23  C13 UNL     1      27.280   4.248  49.027  1.00  0.00     0.012 A 
HETATM   24  C14 UNL     1      26.738   5.475  48.744  1.00  0.00    -0.025 A 
HETATM   25  C15 UNL     1      27.535   6.379  48.060  1.00  0.00     0.012 A 
HETATM   26  C19 UNL     1      25.457   5.762  49.142  1.00  0.00    -0.019 A 
HETATM   27  C16 UNL     1      27.018   7.615  47.768  1.00  0.00     0.001 A 
HETATM   28  C17 UNL     1      25.733   7.956  48.146  1.00  0.00     0.001 A 
HETATM   29  C18 UNL     1      24.985   7.012  48.827  1.00  0.00     0.013 A 
ENDBRANCH  19  20
ENDBRANCH   9  19
TORSDOF 2
ENDMDL
MODEL 5
REMARK VINA RESULT:      -9.4      3.308      7.813
REMARK  2 active torsions:
REMARK  status: ('A' for Active; 'I' for Inactive)
REMARK    1  A    between atoms: C8_9  and  C9_10 
REMARK    2  A    between atoms: C9_10  and  C10_11 
ROOT
HETATM    1 BR1  UNL     1      29.968   5.480  48.046  1.00  0.00    -0.051 Br
HETATM    2  C1  UNL     1      28.360   6.507  47.936  1.00  0.00     0.011 A 
HETATM    3  C2  UNL     1      28.437   7.669  47.219  1.00  0.00     0.019 A 
HETATM    4  C3  UNL     1      27.273   8.426  47.132  1.00  0.00     0.002 A 
HETATM    5  C4  UNL     1      26.110   8.039  47.726  1.00  0.00     0.014 A 
HETATM    6  C5  UNL     1      26.016   6.872  48.451  1.00  0.00    -0.005 A 
HETATM    7  C6  UNL     1      24.921   6.267  49.156  1.00  0.00     0.081 C 
HETATM    8  C7  UNL     1      23.964   5.488  48.789  1.00  0.00     0.031 C 
HETATM    9  C8  UNL     1      23.462   4.587  49.611  1.00  0.00     0.028 C 
HETATM   10  N1  UNL     1      22.740   5.411  50.508  1.00  0.00    -0.352 N 
HETATM   11  C20 UNL     1      21.677   6.302  50.132  1.00  0.00     0.229 C 
HETATM   12  N2  UNL     1      21.809   7.575  49.885  1.00  0.00    -0.169 NA
HETATM   13  N3  UNL     1      23.124   8.071  50.012  1.00  0.00    -0.271 N 
HETATM   14  C21 UNL     1      24.006   7.440  50.930  1.00  0.00     0.226 C 
HETATM   15  N4  UNL     1      24.870   6.575  50.538  1.00  0.00    -0.241 NA
HETATM   16  C22 UNL     1      27.174   6.101  48.549  1.00  0.00     0.032 A 
HETATM   17  H13 UNL     1      23.245   5.105  51.361  1.00  0.00     0.166 HD
HETATM   18  H15 UNL     1      23.444   8.884  49.444  1.00  0.00     0.190 HD
ENDROOT
BRANCH   9  19
HETATM   19  C9  UNL     1      23.721   3.136  49.442  1.00  0.00     0.097 C 
BRANCH  19  20
HETATM   20  C10 UNL     1      24.575   2.563  50.488  1.00  0.00    -0.041 A 
HETATM   21  C11 UNL     1      25.935   2.879  50.601  1.00  0.00     0.008 A 
HETATM   22  C12 UNL     1      26.783   2.379  51.570  1.00  0.00     0.001 A 
HETATM   23  C13 UNL     1      26.280   1.506  52.504  1.00  0.00     0.012 A 
HETATM   24  C14 UNL     1      24.955   1.158  52.446  1.00  0.00    -0.025 A 
HETATM   25  C15 UNL     1      24.489   0.272  53.404  1.00  0.00     0.012 A 
HETATM   26  C19 UNL     1      24.156   1.682  51.463  1.00  0.00    -0.019 A 
HETATM   27  C16 UNL     1      23.169  -0.095  53.366  1.00  0.00     0.001 A 
HETATM   28  C17 UNL     1      22.318   0.403  52.396  1.00  0.00     0.001 A 
HETATM   29  C18 UNL     1      22.841   1.284  51.466  1.00  0.00     0.013 A 
ENDBRANCH  19  20
ENDBRANCH   9  19
TORSDOF 2
ENDMDL
MODEL 6
REMARK VINA RESULT:      -9.3      1.590      2.193
REMARK  2 active torsions:
REMARK  status: ('A' for Active; 'I' for Inactive)
REMARK    1  A    between atoms: C8_9  and  C9_10 
REMARK    2  A    between atoms: C9_10  and  C10_11 
ROOT
HETATM    1 BR1  UNL     1      19.639   1.624  51.620  1.00  0.00    -0.051 Br
HETATM    2  C1  UNL     1      21.210   0.831  52.361  1.00  0.00     0.011 A 
HETATM    3  C2  UNL     1      21.024  -0.327  53.065  1.00  0.00     0.019 A 
HETATM    4  C3  UNL     1      22.161  -0.914  53.611  1.00  0.00     0.002 A 
HETATM    5  C4  UNL     1      23.402  -0.372  53.458  1.00  0.00     0.014 A 
HETATM    6  C5  UNL     1      23.606   0.792  52.753  1.00  0.00    -0.005 A 
HETATM    7  C6  UNL     1      24.796   1.542  52.464  1.00  0.00     0.081 C 
HETATM    8  C7  UNL     1      25.685   1.454  51.536  1.00  0.00     0.031 C 
HETATM    9  C8  UNL     1      26.307   2.524  51.082  1.00  0.00     0.028 C 
HETATM   10  N1  UNL     1      27.158   2.827  52.171  1.00  0.00    -0.352 N 
HETATM   11  C20 UNL     1      28.152   1.937  52.710  1.00  0.00     0.229 C 
HETATM   12  N2  UNL     1      27.984   1.146  53.733  1.00  0.00    -0.169 NA
HETATM   13  N3  UNL     1      26.704   1.205  54.325  1.00  0.00    -0.271 N 
HETATM   14  C21 UNL     1      25.974   2.422  54.252  1.00  0.00     0.226 C 
HETATM   15  N4  UNL     1      25.059   2.599  53.369  1.00  0.00    -0.241 NA
HETATM   16  C22 UNL     1      22.476   1.394  52.199  1.00  0.00     0.032 A 
HETATM   17  H13 UNL     1      26.791   3.783  52.330  1.00  0.00     0.166 HD
HETATM   18  H15 UNL     1      26.301   0.373  54.805  1.00  0.00     0.190 HD
ENDROOT
BRANCH   9  19
HETATM   19  C9  UNL     1      26.025   3.087  49.738  1.00  0.00     0.097 C 
BRANCH  19  20
HETATM   20  C10 UNL     1      24.655   3.590  49.585  1.00  0.00    -0.041 A 
HETATM   21  C11 UNL     1      23.617   2.797  49.078  1.00  0.00     0.008 A 
HETATM   22  C12 UNL     1      22.310   3.214  48.922  1.00  0.00     0.001 A 
HETATM   23  C13 UNL     1      21.976   4.497  49.284  1.00  0.00     0.012 A 
HETATM   24  C14 UNL     1      22.949   5.322  49.787  1.00  0.00    -0.025 A 
HETATM   25  C15 UNL     1      22.570   6.609  50.136  1.00  0.00     0.012 A 
HETATM   26  C19 UNL     1      24.232   4.859  49.921  1.00  0.00    -0.019 A 
HETATM   27  C16 UNL     1      23.524   7.456  50.638  1.00  0.00     0.001 A 
HETATM   28  C17 UNL     1      24.834   7.041  50.794  1.00  0.00     0.001 A 
HETATM   29  C18 UNL     1      25.152   5.745  50.428  1.00  0.00     0.013 A 
ENDBRANCH  19  20
ENDBRANCH   9  19
TORSDOF 2
ENDMDL
MODEL 7
REMARK VINA RESULT:      -9.2      3.469      5.599
REMARK  2 active torsions:
REMARK  status: ('A' for Active; 'I' for Inactive)
REMARK    1  A    between atoms: C8_9  and  C9_10 
REMARK    2  A    between atoms: C9_10  and  C10_11 
ROOT
HETATM    1 BR1  UNL     1      25.023  -1.021  53.680  1.00  0.00    -0.051 Br
HETATM    2  C1  UNL     1      23.141  -0.698  53.745  1.00  0.00     0.011 A 
HETATM    3  C2  UNL     1      22.408  -1.569  54.502  1.00  0.00     0.019 A 
HETATM    4  C3  UNL     1      21.036  -1.345  54.556  1.00  0.00     0.002 A 
HETATM    5  C4  UNL     1      20.442  -0.313  53.894  1.00  0.00     0.014 A 
HETATM    6  C5  UNL     1      21.167   0.572  53.128  1.00  0.00    -0.005 A 
HETATM    7  C6  UNL     1      20.772   1.713  52.350  1.00  0.00     0.081 C 
HETATM    8  C7  UNL     1      20.581   2.952  52.644  1.00  0.00     0.031 C 
HETATM    9  C8  UNL     1      20.826   3.908  51.770  1.00  0.00     0.028 C 
HETATM   10  N1  UNL     1      19.751   3.731  50.866  1.00  0.00    -0.352 N 
HETATM   11  C20 UNL     1      18.359   3.805  51.218  1.00  0.00     0.229 C 
HETATM   12  N2  UNL     1      17.598   2.788  51.513  1.00  0.00    -0.169 NA
HETATM   13  N3  UNL     1      18.241   1.533  51.467  1.00  0.00    -0.271 N 
HETATM   14  C21 UNL     1      19.332   1.358  50.572  1.00  0.00     0.226 C 
HETATM   15  N4  UNL     1      20.547   1.441  50.978  1.00  0.00    -0.241 NA
HETATM   16  C22 UNL     1      22.544   0.362  53.062  1.00  0.00     0.032 A 
HETATM   17  H13 UNL     1      20.342   3.571  50.029  1.00  0.00     0.166 HD
HETATM   18  H15 UNL     1      17.925   0.749  52.076  1.00  0.00     0.190 HD
ENDROOT
BRANCH   9  19
HETATM   19  C9  UNL     1      21.989   4.820  51.904  1.00  0.00     0.097 C 
BRANCH  19  20
HETATM   20  C10 UNL     1      23.151   4.413  51.106  1.00  0.00    -0.041 A 
HETATM   21  C11 UNL     1      23.272   4.725  49.745  1.00  0.00     0.008 A 
HETATM   22  C12 UNL     1      24.345   4.377  48.949  1.00  0.00     0.001 A 
HETATM   23  C13 UNL     1      25.384   3.673  49.507  1.00  0.00     0.012 A 
HETATM   24  C14 UNL     1      25.324   3.338  50.835  1.00  0.00    -0.025 A 
HETATM   25  C15 UNL     1      26.391   2.624  51.358  1.00  0.00     0.012 A 
HETATM   26  C19 UNL     1      24.235   3.707  51.582  1.00  0.00    -0.019 A 
HETATM   27  C16 UNL     1      26.355   2.273  52.682  1.00  0.00     0.001 A 
HETATM   28  C17 UNL     1      25.281   2.619  53.482  1.00  0.00     0.001 A 
HETATM   29  C18 UNL     1      24.245   3.331  52.903  1.00  0.00     0.013 A 
ENDBRANCH  19  20
ENDBRANCH   9  19
TORSDOF 2
ENDMDL
MODEL 8
REMARK VINA RESULT:      -9.1      3.287      7.654
REMARK  2 active torsions:
REMARK  status: ('A' for Active; 'I' for Inactive)
REMARK    1  A    between atoms: C8_9  and  C9_10 
REMARK    2  A    between atoms: C9_10  and  C10_11 
ROOT
HETATM    1 BR1  UNL     1      29.961   5.972  47.921  1.00  0.00    -0.051 Br
HETATM    2  C1  UNL     1      28.190   6.686  47.853  1.00  0.00     0.011 A 
HETATM    3  C2  UNL     1      28.005   7.757  47.022  1.00  0.00     0.019 A 
HETATM    4  C3  UNL     1      26.719   8.285  46.966  1.00  0.00     0.002 A 
HETATM    5  C4  UNL     1      25.690   7.771  47.695  1.00  0.00     0.014 A 
HETATM    6  C5  UNL     1      25.860   6.695  48.535  1.00  0.00    -0.005 A 
HETATM    7  C6  UNL     1      24.945   5.991  49.390  1.00  0.00     0.081 C 
HETATM    8  C7  UNL     1      24.123   5.022  49.187  1.00  0.00     0.031 C 
HETATM    9  C8  UNL     1      23.851   4.145  50.133  1.00  0.00     0.028 C 
HETATM   10  N1  UNL     1      23.056   4.926  51.006  1.00  0.00    -0.352 N 
HETATM   11  C20 UNL     1      21.824   5.572  50.640  1.00  0.00     0.229 C 
HETATM   12  N2  UNL     1      21.706   6.813  50.260  1.00  0.00    -0.169 NA
HETATM   13  N3  UNL     1      22.914   7.541  50.222  1.00  0.00    -0.271 N 
HETATM   14  C21 UNL     1      23.958   7.178  51.116  1.00  0.00     0.226 C 
HETATM   15  N4  UNL     1      24.935   6.438  50.734  1.00  0.00    -0.241 NA
HETATM   16  C22 UNL     1      27.144   6.152  48.605  1.00  0.00     0.032 A 
HETATM   17  H13 UNL     1      23.666   4.810  51.837  1.00  0.00     0.166 HD
HETATM   18  H15 UNL     1      23.041   8.328  49.551  1.00  0.00     0.190 HD
ENDROOT
BRANCH   9  19
HETATM   19  C9  UNL     1      24.357   2.751  50.084  1.00  0.00     0.097 C 
BRANCH  19  20
HETATM   20  C10 UNL     1      23.876   1.911  51.187  1.00  0.00    -0.041 A 
HETATM   21  C11 UNL     1      22.512   1.744  51.462  1.00  0.00     0.008 A 
HETATM   22  C12 UNL     1      22.003   0.959  52.478  1.00  0.00     0.001 A 
HETATM   23  C13 UNL     1      22.877   0.282  53.294  1.00  0.00     0.012 A 
HETATM   24  C14 UNL     1      24.225   0.405  53.074  1.00  0.00    -0.025 A 
HETATM   25  C15 UNL     1      25.072  -0.292  53.922  1.00  0.00     0.012 A 
HETATM   26  C19 UNL     1      24.679   1.198  52.052  1.00  0.00    -0.019 A 
HETATM   27  C16 UNL     1      26.424  -0.183  53.726  1.00  0.00     0.001 A 
HETATM   28  C17 UNL     1      26.937   0.603  52.710  1.00  0.00     0.001 A 
HETATM   29  C18 UNL     1      26.041   1.275  51.897  1.00  0.00     0.013 A 
ENDBRANCH  19  20
ENDBRANCH   9  19
TORSDOF 2
ENDMDL
MODEL 9
REMARK VINA RESULT:      -9.0      3.425      8.091
REMARK  2 active torsions:
REMARK  status: ('A' for Active; 'I' for Inactive)
REMARK    1  A    between atoms: C8_9  and  C9_10 
REMARK    2  A    between atoms: C9_10  and  C10_11 
ROOT
HETATM    1 BR1  UNL     1      26.070  -0.886  53.039  1.00  0.00    -0.051 Br
HETATM    2  C1  UNL     1      25.807   0.786  52.152  1.00  0.00     0.011 A 
HETATM    3  C2  UNL     1      26.941   1.465  51.800  1.00  0.00     0.019 A 
HETATM    4  C3  UNL     1      26.761   2.684  51.154  1.00  0.00     0.002 A 
HETATM    5  C4  UNL     1      25.524   3.186  50.880  1.00  0.00     0.014 A 
HETATM    6  C5  UNL     1      24.374   2.514  51.227  1.00  0.00    -0.005 A 
HETATM    7  C6  UNL     1      22.986   2.835  51.049  1.00  0.00     0.081 C 
HETATM    8  C7  UNL     1      22.160   2.655  50.078  1.00  0.00     0.031 C 
HETATM    9  C8  UNL     1      20.878   2.446  50.299  1.00  0.00     0.028 C 
HETATM   10  N1  UNL     1      20.458   3.735  50.705  1.00  0.00    -0.352 N 
HETATM   11  C20 UNL     1      20.577   4.927  49.908  1.00  0.00     0.229 C 
HETATM   12  N2  UNL     1      21.552   5.789  49.979  1.00  0.00    -0.169 NA
HETATM   13  N3  UNL     1      22.548   5.483  50.930  1.00  0.00    -0.271 N 
HETATM   14  C21 UNL     1      22.182   4.743  52.087  1.00  0.00     0.226 C 
HETATM   15  N4  UNL     1      22.384   3.477  52.160  1.00  0.00    -0.241 NA
HETATM   16  C22 UNL     1      24.535   1.290  51.876  1.00  0.00     0.032 A 
HETATM   17  H13 UNL     1      20.103   3.444  51.634  1.00  0.00     0.166 HD
HETATM   18  H15 UNL     1      23.533   5.792  50.789  1.00  0.00     0.190 HD
ENDROOT
BRANCH   9  19
HETATM   19  C9  UNL     1      20.252   1.114  50.104  1.00  0.00     0.097 C 
BRANCH  19  20
HETATM   20  C10 UNL     1      20.080   0.356  51.349  1.00  0.00    -0.041 A 
HETATM   21  C11 UNL     1      21.134   0.139  52.246  1.00  0.00     0.008 A 
HETATM   22  C12 UNL     1      21.029  -0.558  53.433  1.00  0.00     0.001 A 
HETATM   23  C13 UNL     1      19.810  -1.087  53.785  1.00  0.00     0.012 A 
HETATM   24  C14 UNL     1      18.739  -0.908  52.948  1.00  0.00    -0.025 A 
HETATM   25  C15 UNL     1      17.530  -1.460  53.338  1.00  0.00     0.012 A 
HETATM   26  C19 UNL     1      18.898  -0.209  51.779  1.00  0.00    -0.019 A 
HETATM   27  C16 UNL     1      16.444  -1.300  52.517  1.00  0.00     0.001 A 
HETATM   28  C17 UNL     1      16.548  -0.604  51.326  1.00  0.00     0.001 A 
HETATM   29  C18 UNL     1      17.781  -0.075  50.990  1.00  0.00     0.013 A 
ENDBRANCH  19  20
ENDBRANCH   9  19
TORSDOF 2
ENDMDL
