MODEL 1
REMARK VINA RESULT:      -9.5      0.000      0.000
REMARK  2 active torsions:
REMARK  status: ('A' for Active; 'I' for Inactive)
REMARK    1  A    between atoms: C13_16  and  N3_17 
REMARK    2  A    between atoms: N3_17  and  C14_18 
ROOT
HETATM    1  C1  UNL     1      20.043  -1.325  54.202  1.00  0.00     0.044 C 
HETATM    2  C2  UNL     1      21.232  -0.537  53.705  1.00  0.00    -0.079 A 
HETATM    3  C3  UNL     1      21.588   0.497  53.004  1.00  0.00     0.010 A 
HETATM    4  C4  UNL     1      23.053   0.776  52.866  1.00  0.00    -0.046 A 
HETATM    5  C5  UNL     1      23.607  -0.232  53.575  1.00  0.00    -0.064 A 
HETATM    6  C6  UNL     1      24.912  -0.819  54.019  1.00  0.00     0.116 C 
HETATM    7  C7  UNL     1      26.058  -0.575  53.105  1.00  0.00     0.360 A 
HETATM    8  O1  UNL     1      25.405   0.434  52.876  1.00  0.00    -0.146 OA
HETATM    9  N1  UNL     1      26.687   0.281  52.119  1.00  0.00     0.109 N 
HETATM   10  C8  UNL     1      26.523   1.574  51.484  1.00  0.00     0.246 C 
HETATM   11  C9  UNL     1      25.614   2.474  51.756  1.00  0.00    -0.009 C 
HETATM   12  C10 UNL     1      24.439   2.816  52.650  1.00  0.00     0.054 C 
HETATM   13  C11 UNL     1      23.256   2.002  52.076  1.00  0.00     0.063 C 
HETATM   14  C12 UNL     1      23.565   1.811  50.604  1.00  0.00     0.096 C 
HETATM   15  N2  UNL     1      24.129   2.855  50.060  1.00  0.00    -0.275 NA
HETATM   16  C13 UNL     1      25.399   3.397  50.606  1.00  0.00     0.236 C 
HETATM   17  C20 UNL     1      22.495  -1.082  54.164  1.00  0.00     0.068 A 
HETATM   18  H7  UNL     1      27.494  -0.375  51.890  1.00  0.00     0.328 HD
ENDROOT
BRANCH  16  19
HETATM   19  N3  UNL     1      26.408   3.426  49.612  1.00  0.00    -0.364 N 
HETATM   20  H14 UNL     1      27.025   2.770  49.046  1.00  0.00     0.162 HD
BRANCH  19  21
HETATM   21  C14 UNL     1      26.725   4.780  49.222  1.00  0.00     0.031 A 
HETATM   22  C15 UNL     1      27.861   5.145  48.510  1.00  0.00     0.029 A 
HETATM   23  C16 UNL     1      28.196   6.402  48.130  1.00  0.00     0.004 A 
HETATM   24  C17 UNL     1      27.370   7.431  48.455  1.00  0.00     0.019 A 
HETATM   25  C18 UNL     1      26.211   7.198  49.161  1.00  0.00     0.013 A 
HETATM   26 BR1  UNL     1      25.033   8.612  49.633  1.00  0.00    -0.051 Br
HETATM   27  C19 UNL     1      25.944   5.899  49.508  1.00  0.00     0.048 A 
ENDBRANCH  19  21
ENDBRANCH  16  19
TORSDOF 2
ENDMDL
MODEL 2
REMARK VINA RESULT:      -9.3      1.247      1.683
REMARK  2 active torsions:
REMARK  status: ('A' for Active; 'I' for Inactive)
REMARK    1  A    between atoms: C13_16  and  N3_17 
REMARK    2  A    between atoms: N3_17  and  C14_18 
ROOT
HETATM    1  C1  UNL     1      17.866  -1.291  53.085  1.00  0.00     0.044 C 
HETATM    2  C2  UNL     1      19.184  -0.573  52.915  1.00  0.00    -0.079 A 
HETATM    3  C3  UNL     1      19.786   0.377  52.265  1.00  0.00     0.010 A 
HETATM    4  C4  UNL     1      21.231   0.624  52.570  1.00  0.00    -0.046 A 
HETATM    5  C5  UNL     1      21.491  -0.308  53.513  1.00  0.00    -0.064 A 
HETATM    6  C6  UNL     1      22.564  -0.858  54.402  1.00  0.00     0.116 C 
HETATM    7  C7  UNL     1      23.949  -0.724  53.878  1.00  0.00     0.360 A 
HETATM    8  O1  UNL     1      23.444   0.261  53.356  1.00  0.00    -0.146 OA
HETATM    9  N1  UNL     1      24.891   0.015  53.062  1.00  0.00     0.109 N 
HETATM   10  C8  UNL     1      24.990   1.234  52.284  1.00  0.00     0.246 C 
HETATM   11  C9  UNL     1      24.082   2.167  52.167  1.00  0.00    -0.009 C 
HETATM   12  C10 UNL     1      22.702   2.615  52.605  1.00  0.00     0.054 C 
HETATM   13  C11 UNL     1      21.724   1.757  51.769  1.00  0.00     0.063 C 
HETATM   14  C12 UNL     1      22.470   1.407  50.496  1.00  0.00     0.096 C 
HETATM   15  N2  UNL     1      23.221   2.381  50.059  1.00  0.00    -0.275 NA
HETATM   16  C13 UNL     1      24.278   2.966  50.923  1.00  0.00     0.236 C 
HETATM   17  C20 UNL     1      20.214  -1.079  53.800  1.00  0.00     0.068 A 
HETATM   18  H7  UNL     1      25.700  -0.670  53.165  1.00  0.00     0.328 HD
ENDROOT
BRANCH  16  19
HETATM   19  N3  UNL     1      25.548   2.877  50.301  1.00  0.00    -0.364 N 
HETATM   20  H14 UNL     1      26.307   2.168  50.074  1.00  0.00     0.162 HD
BRANCH  19  21
HETATM   21  C14 UNL     1      25.981   4.163  49.803  1.00  0.00     0.031 A 
HETATM   22  C15 UNL     1      27.110   4.360  49.018  1.00  0.00     0.029 A 
HETATM   23  C16 UNL     1      27.551   5.547  48.536  1.00  0.00     0.004 A 
HETATM   24  C17 UNL     1      26.851   6.675  48.823  1.00  0.00     0.019 A 
HETATM   25  C18 UNL     1      25.711   6.612  49.592  1.00  0.00     0.013 A 
HETATM   26 BR1  UNL     1      24.707   8.169  50.014  1.00  0.00    -0.051 Br
HETATM   27  C19 UNL     1      25.332   5.373  50.042  1.00  0.00     0.048 A 
ENDBRANCH  19  21
ENDBRANCH  16  19
TORSDOF 2
ENDMDL
MODEL 3
REMARK VINA RESULT:      -8.7      4.033      8.567
REMARK  2 active torsions:
REMARK  status: ('A' for Active; 'I' for Inactive)
REMARK    1  A    between atoms: C13_16  and  N3_17 
REMARK    2  A    between atoms: N3_17  and  C14_18 
ROOT
HETATM    1  C1  UNL     1      25.605   4.917  50.053  1.00  0.00     0.044 C 
HETATM    2  C2  UNL     1      24.729   3.796  50.562  1.00  0.00    -0.079 A 
HETATM    3  C3  UNL     1      23.502   3.379  50.650  1.00  0.00     0.010 A 
HETATM    4  C4  UNL     1      23.257   2.070  51.335  1.00  0.00    -0.046 A 
HETATM    5  C5  UNL     1      24.505   1.690  51.688  1.00  0.00    -0.064 A 
HETATM    6  C6  UNL     1      25.290   0.613  52.371  1.00  0.00     0.116 C 
HETATM    7  C7  UNL     1      24.558  -0.126  53.432  1.00  0.00     0.360 A 
HETATM    8  O1  UNL     1      23.616   0.163  52.706  1.00  0.00    -0.146 OA
HETATM    9  N1  UNL     1      23.293  -0.611  53.947  1.00  0.00     0.109 N 
HETATM   10  C8  UNL     1      21.891  -0.695  53.588  1.00  0.00     0.246 C 
HETATM   11  C9  UNL     1      21.347  -0.331  52.456  1.00  0.00    -0.009 C 
HETATM   12  C10 UNL     1      21.618   0.233  51.076  1.00  0.00     0.054 C 
HETATM   13  C11 UNL     1      21.821   1.750  51.301  1.00  0.00     0.063 C 
HETATM   14  C12 UNL     1      21.026   2.089  52.547  1.00  0.00     0.096 C 
HETATM   15  N2  UNL     1      19.901   1.432  52.631  1.00  0.00    -0.275 NA
HETATM   16  C13 UNL     1      19.891  -0.053  52.615  1.00  0.00     0.236 C 
HETATM   17  C20 UNL     1      25.491   2.734  51.191  1.00  0.00     0.068 A 
HETATM   18  H7  UNL     1      23.676  -0.989  54.866  1.00  0.00     0.328 HD
ENDROOT
BRANCH  16  19
HETATM   19  N3  UNL     1      19.265  -0.568  53.777  1.00  0.00    -0.364 N 
HETATM   20  H14 UNL     1      19.336  -0.527  54.838  1.00  0.00     0.162 HD
BRANCH  19  21
HETATM   21  C14 UNL     1      18.166  -1.443  53.440  1.00  0.00     0.031 A 
HETATM   22  C15 UNL     1      18.074  -2.772  53.832  1.00  0.00     0.029 A 
HETATM   23  C16 UNL     1      17.064  -3.625  53.534  1.00  0.00     0.004 A 
HETATM   24  C17 UNL     1      16.024  -3.177  52.782  1.00  0.00     0.019 A 
HETATM   25  C18 UNL     1      15.998  -1.877  52.332  1.00  0.00     0.013 A 
HETATM   26 BR1  UNL     1      14.560  -1.216  51.280  1.00  0.00    -0.051 Br
HETATM   27  C19 UNL     1      17.058  -1.078  52.678  1.00  0.00     0.048 A 
ENDBRANCH  19  21
ENDBRANCH  16  19
TORSDOF 2
ENDMDL
MODEL 4
REMARK VINA RESULT:      -8.7      1.958      3.231
REMARK  2 active torsions:
REMARK  status: ('A' for Active; 'I' for Inactive)
REMARK    1  A    between atoms: C13_16  and  N3_17 
REMARK    2  A    between atoms: N3_17  and  C14_18 
ROOT
HETATM    1  C1  UNL     1      22.187  -1.668  54.963  1.00  0.00     0.044 C 
HETATM    2  C2  UNL     1      22.376  -0.542  53.972  1.00  0.00    -0.079 A 
HETATM    3  C3  UNL     1      23.240   0.040  53.197  1.00  0.00     0.010 A 
HETATM    4  C4  UNL     1      22.776   1.216  52.394  1.00  0.00    -0.046 A 
HETATM    5  C5  UNL     1      21.479   1.322  52.760  1.00  0.00    -0.064 A 
HETATM    6  C6  UNL     1      20.228   2.118  52.548  1.00  0.00     0.116 C 
HETATM    7  C7  UNL     1      20.440   3.541  52.176  1.00  0.00     0.360 A 
HETATM    8  O1  UNL     1      21.450   3.056  51.685  1.00  0.00    -0.146 OA
HETATM    9  N1  UNL     1      21.276   4.535  51.535  1.00  0.00     0.109 N 
HETATM   10  C8  UNL     1      22.483   4.645  50.740  1.00  0.00     0.246 C 
HETATM   11  C9  UNL     1      23.210   3.663  50.274  1.00  0.00    -0.009 C 
HETATM   12  C10 UNL     1      23.338   2.156  50.174  1.00  0.00     0.054 C 
HETATM   13  C11 UNL     1      23.877   1.712  51.554  1.00  0.00     0.063 C 
HETATM   14  C12 UNL     1      24.652   2.900  52.093  1.00  0.00     0.096 C 
HETATM   15  N2  UNL     1      25.311   3.543  51.167  1.00  0.00    -0.275 NA
HETATM   16  C13 UNL     1      24.605   4.105  49.988  1.00  0.00     0.236 C 
HETATM   17  C20 UNL     1      21.156   0.206  53.738  1.00  0.00     0.068 A 
HETATM   18  H7  UNL     1      20.697   5.381  51.823  1.00  0.00     0.328 HD
ENDROOT
BRANCH  16  19
HETATM   19  N3  UNL     1      24.824   5.500  49.883  1.00  0.00    -0.364 N 
HETATM   20  H14 UNL     1      24.348   6.427  50.093  1.00  0.00     0.162 HD
BRANCH  19  21
HETATM   21  C14 UNL     1      26.113   5.788  49.296  1.00  0.00     0.031 A 
HETATM   22  C15 UNL     1      27.037   4.821  48.920  1.00  0.00     0.029 A 
HETATM   23  C16 UNL     1      28.255   5.049  48.372  1.00  0.00     0.004 A 
HETATM   24  C17 UNL     1      28.649   6.331  48.153  1.00  0.00     0.019 A 
HETATM   25  C18 UNL     1      27.821   7.380  48.484  1.00  0.00     0.013 A 
HETATM   26 BR1  UNL     1      28.338   9.186  48.192  1.00  0.00    -0.051 Br
HETATM   27  C19 UNL     1      26.605   7.065  49.033  1.00  0.00     0.048 A 
ENDBRANCH  19  21
ENDBRANCH  16  19
TORSDOF 2
ENDMDL
MODEL 5
REMARK VINA RESULT:      -8.5      3.457      8.196
REMARK  2 active torsions:
REMARK  status: ('A' for Active; 'I' for Inactive)
REMARK    1  A    between atoms: C13_16  and  N3_17 
REMARK    2  A    between atoms: N3_17  and  C14_18 
ROOT
HETATM    1  C1  UNL     1      27.945   7.017  47.752  1.00  0.00     0.044 C 
HETATM    2  C2  UNL     1      26.895   6.354  48.613  1.00  0.00    -0.079 A 
HETATM    3  C3  UNL     1      26.412   5.207  48.985  1.00  0.00     0.010 A 
HETATM    4  C4  UNL     1      25.262   5.212  49.944  1.00  0.00    -0.046 A 
HETATM    5  C5  UNL     1      25.058   6.533  50.145  1.00  0.00    -0.064 A 
HETATM    6  C6  UNL     1      24.205   7.524  50.875  1.00  0.00     0.116 C 
HETATM    7  C7  UNL     1      22.822   7.069  51.173  1.00  0.00     0.360 A 
HETATM    8  O1  UNL     1      23.394   5.988  51.192  1.00  0.00    -0.146 OA
HETATM    9  N1  UNL     1      21.919   5.970  51.447  1.00  0.00     0.109 N 
HETATM   10  C8  UNL     1      21.928   4.539  51.681  1.00  0.00     0.246 C 
HETATM   11  C9  UNL     1      22.978   3.765  51.777  1.00  0.00    -0.009 C 
HETATM   12  C10 UNL     1      24.492   3.726  51.769  1.00  0.00     0.054 C 
HETATM   13  C11 UNL     1      24.882   3.829  50.275  1.00  0.00     0.063 C 
HETATM   14  C12 UNL     1      23.712   3.250  49.505  1.00  0.00     0.096 C 
HETATM   15  N2  UNL     1      23.165   2.223  50.099  1.00  0.00    -0.275 NA
HETATM   16  C13 UNL     1      22.636   2.344  51.481  1.00  0.00     0.236 C 
HETATM   17  C20 UNL     1      26.092   7.311  49.349  1.00  0.00     0.068 A 
HETATM   18  H7  UNL     1      21.025   6.548  51.447  1.00  0.00     0.328 HD
ENDROOT
BRANCH  16  19
HETATM   19  N3  UNL     1      21.265   1.993  51.532  1.00  0.00    -0.364 N 
HETATM   20  H14 UNL     1      20.326   2.279  51.123  1.00  0.00     0.162 HD
BRANCH  19  21
HETATM   21  C14 UNL     1      21.038   0.883  52.429  1.00  0.00     0.031 A 
HETATM   22  C15 UNL     1      21.996   0.363  53.291  1.00  0.00     0.029 A 
HETATM   23  C16 UNL     1      21.824  -0.676  54.142  1.00  0.00     0.004 A 
HETATM   24  C17 UNL     1      20.617  -1.297  54.189  1.00  0.00     0.019 A 
HETATM   25  C18 UNL     1      19.584  -0.874  53.383  1.00  0.00     0.013 A 
HETATM   26 BR1  UNL     1      17.881  -1.717  53.423  1.00  0.00    -0.051 Br
HETATM   27  C19 UNL     1      19.838   0.184  52.550  1.00  0.00     0.048 A 
ENDBRANCH  19  21
ENDBRANCH  16  19
TORSDOF 2
ENDMDL
MODEL 6
REMARK VINA RESULT:      -8.2      3.291      7.903
REMARK  2 active torsions:
REMARK  status: ('A' for Active; 'I' for Inactive)
REMARK    1  A    between atoms: C13_16  and  N3_17 
REMARK    2  A    between atoms: N3_17  and  C14_18 
ROOT
HETATM    1  C1  UNL     1      25.464   7.548  47.862  1.00  0.00     0.044 C 
HETATM    2  C2  UNL     1      24.930   6.280  48.487  1.00  0.00    -0.079 A 
HETATM    3  C3  UNL     1      23.844   5.636  48.792  1.00  0.00     0.010 A 
HETATM    4  C4  UNL     1      23.987   4.304  49.461  1.00  0.00    -0.046 A 
HETATM    5  C5  UNL     1      25.328   4.170  49.555  1.00  0.00    -0.064 A 
HETATM    6  C6  UNL     1      26.419   3.262  50.034  1.00  0.00     0.116 C 
HETATM    7  C7  UNL     1      26.059   2.396  51.188  1.00  0.00     0.360 A 
HETATM    8  O1  UNL     1      24.956   2.500  50.666  1.00  0.00    -0.146 OA
HETATM    9  N1  UNL     1      25.032   1.679  51.916  1.00  0.00     0.109 N 
HETATM   10  C8  UNL     1      23.628   1.328  51.828  1.00  0.00     0.246 C 
HETATM   11  C9  UNL     1      22.815   1.582  50.835  1.00  0.00    -0.009 C 
HETATM   12  C10 UNL     1      22.702   2.187  49.451  1.00  0.00     0.054 C 
HETATM   13  C11 UNL     1      22.657   3.715  49.690  1.00  0.00     0.063 C 
HETATM   14  C12 UNL     1      22.071   3.896  51.077  1.00  0.00     0.096 C 
HETATM   15  N2  UNL     1      21.128   3.036  51.350  1.00  0.00    -0.275 NA
HETATM   16  C13 UNL     1      21.393   1.576  51.281  1.00  0.00     0.236 C 
HETATM   17  C20 UNL     1      25.984   5.383  48.918  1.00  0.00     0.068 A 
HETATM   18  H7  UNL     1      25.650   1.380  52.730  1.00  0.00     0.328 HD
ENDROOT
BRANCH  16  19
HETATM   19  N3  UNL     1      21.113   0.951  52.521  1.00  0.00    -0.364 N 
HETATM   20  H14 UNL     1      21.522   0.835  53.496  1.00  0.00     0.162 HD
BRANCH  19  21
HETATM   21  C14 UNL     1      19.869   0.219  52.473  1.00  0.00     0.031 A 
HETATM   22  C15 UNL     1      19.455  -0.689  53.440  1.00  0.00     0.029 A 
HETATM   23  C16 UNL     1      18.300  -1.397  53.429  1.00  0.00     0.004 A 
HETATM   24  C17 UNL     1      17.436  -1.232  52.394  1.00  0.00     0.019 A 
HETATM   25  C18 UNL     1      17.731  -0.359  51.371  1.00  0.00     0.013 A 
HETATM   26 BR1  UNL     1      16.547  -0.103  49.907  1.00  0.00    -0.051 Br
HETATM   27  C19 UNL     1      18.920   0.319  51.456  1.00  0.00     0.048 A 
ENDBRANCH  19  21
ENDBRANCH  16  19
TORSDOF 2
ENDMDL
MODEL 7
REMARK VINA RESULT:      -8.1      4.416      6.160
REMARK  2 active torsions:
REMARK  status: ('A' for Active; 'I' for Inactive)
REMARK    1  A    between atoms: C13_16  and  N3_17 
REMARK    2  A    between atoms: N3_17  and  C14_18 
ROOT
HETATM    1  C1  UNL     1      15.272  -0.840  51.858  1.00  0.00     0.044 C 
HETATM    2  C2  UNL     1      16.698  -0.339  51.854  1.00  0.00    -0.079 A 
HETATM    3  C3  UNL     1      17.929  -0.671  52.102  1.00  0.00     0.010 A 
HETATM    4  C4  UNL     1      18.989   0.363  51.883  1.00  0.00    -0.046 A 
HETATM    5  C5  UNL     1      18.271   1.427  51.459  1.00  0.00    -0.064 A 
HETATM    6  C6  UNL     1      18.378   2.853  51.013  1.00  0.00     0.116 C 
HETATM    7  C7  UNL     1      19.524   3.609  51.582  1.00  0.00     0.360 A 
HETATM    8  O1  UNL     1      20.011   2.486  51.576  1.00  0.00    -0.146 OA
HETATM    9  N1  UNL     1      20.875   3.589  52.106  1.00  0.00     0.109 N 
HETATM   10  C8  UNL     1      21.992   2.685  52.300  1.00  0.00     0.246 C 
HETATM   11  C9  UNL     1      22.073   1.440  51.909  1.00  0.00    -0.009 C 
HETATM   12  C10 UNL     1      21.360   0.324  51.172  1.00  0.00     0.054 C 
HETATM   13  C11 UNL     1      20.313  -0.208  52.178  1.00  0.00     0.063 C 
HETATM   14  C12 UNL     1      20.881   0.083  53.554  1.00  0.00     0.096 C 
HETATM   15  N2  UNL     1      22.175  -0.077  53.617  1.00  0.00    -0.275 NA
HETATM   16  C13 UNL     1      23.075   0.681  52.710  1.00  0.00     0.236 C 
HETATM   17  C20 UNL     1      16.807   1.030  51.386  1.00  0.00     0.068 A 
HETATM   18  H7  UNL     1      20.906   4.613  52.394  1.00  0.00     0.328 HD
ENDROOT
BRANCH  16  19
HETATM   19  N3  UNL     1      24.013   1.443  53.448  1.00  0.00    -0.364 N 
HETATM   20  H14 UNL     1      24.068   2.303  54.072  1.00  0.00     0.162 HD
BRANCH  19  21
HETATM   21  C14 UNL     1      25.345   0.897  53.329  1.00  0.00     0.031 A 
HETATM   22  C15 UNL     1      25.635  -0.359  52.811  1.00  0.00     0.029 A 
HETATM   23  C16 UNL     1      26.868  -0.907  52.687  1.00  0.00     0.004 A 
HETATM   24  C17 UNL     1      27.950  -0.195  53.095  1.00  0.00     0.019 A 
HETATM   25  C18 UNL     1      27.795   1.065  53.627  1.00  0.00     0.013 A 
HETATM   26 BR1  UNL     1      29.285   2.091  54.208  1.00  0.00    -0.051 Br
HETATM   27  C19 UNL     1      26.515   1.549  53.718  1.00  0.00     0.048 A 
ENDBRANCH  19  21
ENDBRANCH  16  19
TORSDOF 2
ENDMDL
MODEL 8
REMARK VINA RESULT:      -8.1      3.189      8.213
REMARK  2 active torsions:
REMARK  status: ('A' for Active; 'I' for Inactive)
REMARK    1  A    between atoms: C13_16  and  N3_17 
REMARK    2  A    between atoms: N3_17  and  C14_18 
ROOT
HETATM    1  C1  UNL     1      25.858  11.526  48.118  1.00  0.00     0.044 C 
HETATM    2  C2  UNL     1      25.708  10.042  48.359  1.00  0.00    -0.079 A 
HETATM    3  C3  UNL     1      24.930   9.134  48.865  1.00  0.00     0.010 A 
HETATM    4  C4  UNL     1      25.380   7.708  48.790  1.00  0.00    -0.046 A 
HETATM    5  C5  UNL     1      26.573   7.814  48.162  1.00  0.00    -0.064 A 
HETATM    6  C6  UNL     1      27.740   7.028  47.649  1.00  0.00     0.116 C 
HETATM    7  C7  UNL     1      28.020   5.763  48.379  1.00  0.00     0.360 A 
HETATM    8  O1  UNL     1      26.809   5.824  48.545  1.00  0.00    -0.146 OA
HETATM    9  N1  UNL     1      27.511   4.652  49.158  1.00  0.00     0.109 N 
HETATM   10  C8  UNL     1      26.261   4.087  49.628  1.00  0.00     0.246 C 
HETATM   11  C9  UNL     1      25.055   4.506  49.346  1.00  0.00    -0.009 C 
HETATM   12  C10 UNL     1      24.247   5.518  48.561  1.00  0.00     0.054 C 
HETATM   13  C11 UNL     1      24.356   6.829  49.376  1.00  0.00     0.063 C 
HETATM   14  C12 UNL     1      24.580   6.400  50.813  1.00  0.00     0.096 C 
HETATM   15  N2  UNL     1      23.903   5.332  51.140  1.00  0.00    -0.275 NA
HETATM   16  C13 UNL     1      24.071   4.068  50.378  1.00  0.00     0.236 C 
HETATM   17  C20 UNL     1      26.820   9.276  47.830  1.00  0.00     0.068 A 
HETATM   18  H7  UNL     1      28.458   4.217  49.377  1.00  0.00     0.328 HD
ENDROOT
BRANCH  16  19
HETATM   19  N3  UNL     1      24.469   3.011  51.232  1.00  0.00    -0.364 N 
HETATM   20  H14 UNL     1      25.297   2.692  51.818  1.00  0.00     0.162 HD
BRANCH  19  21
HETATM   21  C14 UNL     1      23.424   2.022  51.367  1.00  0.00     0.031 A 
HETATM   22  C15 UNL     1      22.514   1.701  50.367  1.00  0.00     0.029 A 
HETATM   23  C16 UNL     1      21.520   0.785  50.455  1.00  0.00     0.004 A 
HETATM   24  C17 UNL     1      21.363   0.092  51.614  1.00  0.00     0.019 A 
HETATM   25  C18 UNL     1      22.203   0.319  52.681  1.00  0.00     0.013 A 
HETATM   26 BR1  UNL     1      22.014  -0.630  54.316  1.00  0.00    -0.051 Br
HETATM   27  C19 UNL     1      23.184   1.262  52.511  1.00  0.00     0.048 A 
ENDBRANCH  19  21
ENDBRANCH  16  19
TORSDOF 2
ENDMDL
MODEL 9
REMARK VINA RESULT:      -8.0      2.221      2.806
REMARK  2 active torsions:
REMARK  status: ('A' for Active; 'I' for Inactive)
REMARK    1  A    between atoms: C13_16  and  N3_17 
REMARK    2  A    between atoms: N3_17  and  C14_18 
ROOT
HETATM    1  C1  UNL     1      17.192   0.044  50.200  1.00  0.00     0.044 C 
HETATM    2  C2  UNL     1      18.542   0.690  50.401  1.00  0.00    -0.079 A 
HETATM    3  C3  UNL     1      19.413   1.493  49.867  1.00  0.00     0.010 A 
HETATM    4  C4  UNL     1      20.675   1.760  50.627  1.00  0.00    -0.046 A 
HETATM    5  C5  UNL     1      20.508   1.010  51.739  1.00  0.00    -0.064 A 
HETATM    6  C6  UNL     1      21.150   0.607  53.030  1.00  0.00     0.116 C 
HETATM    7  C7  UNL     1      22.637   0.613  53.025  1.00  0.00     0.360 A 
HETATM    8  O1  UNL     1      22.433   1.498  52.205  1.00  0.00    -0.146 OA
HETATM    9  N1  UNL     1      23.865   1.171  52.495  1.00  0.00     0.109 N 
HETATM   10  C8  UNL     1      24.334   2.226  51.618  1.00  0.00     0.246 C 
HETATM   11  C9  UNL     1      23.607   3.142  51.032  1.00  0.00    -0.009 C 
HETATM   12  C10 UNL     1      22.205   3.692  50.866  1.00  0.00     0.054 C 
HETATM   13  C11 UNL     1      21.511   2.717  49.885  1.00  0.00     0.063 C 
HETATM   14  C12 UNL     1      22.623   2.126  49.040  1.00  0.00     0.096 C 
HETATM   15  N2  UNL     1      23.560   2.988  48.752  1.00  0.00    -0.275 NA
HETATM   16  C13 UNL     1      24.294   3.696  49.831  1.00  0.00     0.236 C 
HETATM   17  C20 UNL     1      19.150   0.331  51.668  1.00  0.00     0.068 A 
HETATM   18  H7  UNL     1      24.524   0.499  52.991  1.00  0.00     0.328 HD
ENDROOT
BRANCH  16  19
HETATM   19  N3  UNL     1      25.688   3.469  49.730  1.00  0.00    -0.364 N 
HETATM   20  H14 UNL     1      26.418   2.723  49.935  1.00  0.00     0.162 HD
BRANCH  19  21
HETATM   21  C14 UNL     1      26.369   4.613  49.169  1.00  0.00     0.031 A 
HETATM   22  C15 UNL     1      27.705   4.620  48.786  1.00  0.00     0.029 A 
HETATM   23  C16 UNL     1      28.380   5.671  48.261  1.00  0.00     0.004 A 
HETATM   24  C17 UNL     1      27.726   6.848  48.075  1.00  0.00     0.019 A 
HETATM   25  C18 UNL     1      26.397   6.968  48.416  1.00  0.00     0.013 A 
HETATM   26 BR1  UNL     1      25.451   8.598  48.170  1.00  0.00    -0.051 Br
HETATM   27  C19 UNL     1      25.787   5.858  48.941  1.00  0.00     0.048 A 
ENDBRANCH  19  21
ENDBRANCH  16  19
TORSDOF 2
ENDMDL
