MODEL 1
REMARK VINA RESULT:      -8.4      0.000      0.000
REMARK  6 active torsions:
REMARK  status: ('A' for Active; 'I' for Inactive)
REMARK    1  A    between atoms: S1_2  and  C2_3 
REMARK    2  A    between atoms: C2_3  and  N1_4 
REMARK       I    between atoms: N1_4  and  C3_5 
REMARK       I    between atoms: C3_5  and  N2_7 
REMARK    3  A    between atoms: N2_7  and  C4_8 
REMARK    4  A    between atoms: C4_8  and  C5_9 
REMARK    5  A    between atoms: C15_19  and  O2_20 
REMARK    6  A    between atoms: C16_21  and  O3_22 
ROOT
HETATM    1  C2  UNL     1      23.186   2.126  52.598  1.00  0.00     0.083 C 
HETATM    2  C11 UNL     1      23.317   0.888  52.996  1.00  0.00     0.000 C 
HETATM    3  C12 UNL     1      22.096   0.120  53.268  1.00  0.00     0.014 C 
HETATM    4  C13 UNL     1      21.928  -0.782  54.255  1.00  0.00     0.004 C 
HETATM    5  C14 UNL     1      22.888  -1.228  55.291  1.00  0.00     0.039 C 
HETATM    6  C15 UNL     1      24.229  -1.125  55.244  1.00  0.00     0.098 C 
HETATM    7  C16 UNL     1      25.018  -0.537  54.135  1.00  0.00     0.099 C 
HETATM    8  C17 UNL     1      24.653   0.324  53.162  1.00  0.00     0.053 C 
ENDROOT
BRANCH   1   9
HETATM    9  S1  UNL     1      21.805   3.169  52.291  1.00  0.00    -0.116 SA
HETATM   10  C1  UNL     1      22.172   4.900  52.006  1.00  0.00     0.097 C 
ENDBRANCH   1   9
BRANCH   1  11
HETATM   11  N1  UNL     1      24.388   2.844  52.316  1.00  0.00    -0.302 N 
HETATM   12  C3  UNL     1      25.044   2.970  51.061  1.00  0.00     0.321 C 
HETATM   13  O1  UNL     1      24.519   2.384  50.050  1.00  0.00    -0.247 OA
HETATM   14  N2  UNL     1      26.235   3.677  50.770  1.00  0.00    -0.339 N 
HETATM   15  H5  UNL     1      26.683   4.166  51.572  1.00  0.00     0.164 HD
HETATM   16  H4  UNL     1      24.968   3.396  52.986  1.00  0.00     0.171 HD
BRANCH  14  17
HETATM   17  C4  UNL     1      26.830   3.744  49.457  1.00  0.00     0.162 C 
BRANCH  17  18
HETATM   18  C5  UNL     1      26.911   5.080  48.875  1.00  0.00    -0.040 A 
HETATM   19  C6  UNL     1      28.186   5.413  48.406  1.00  0.00     0.009 A 
HETATM   20  C7  UNL     1      28.467   6.627  47.830  1.00  0.00     0.001 A 
HETATM   21  C8  UNL     1      27.494   7.593  47.682  1.00  0.00     0.000 A 
HETATM   22  C9  UNL     1      26.238   7.271  48.141  1.00  0.00     0.001 A 
HETATM   23  C10 UNL     1      25.956   6.060  48.717  1.00  0.00     0.009 A 
ENDBRANCH  17  18
ENDBRANCH  14  17
ENDBRANCH   1  11
BRANCH   7  24
HETATM   24  O3  UNL     1      26.351  -0.945  54.099  1.00  0.00    -0.358 OA
HETATM   25  H17 UNL     1      27.129  -0.318  54.133  1.00  0.00     0.217 HD
ENDBRANCH   7  24
BRANCH   6  26
HETATM   26  O2  UNL     1      24.933  -1.614  56.334  1.00  0.00    -0.358 OA
HETATM   27  H16 UNL     1      25.874  -1.246  56.517  1.00  0.00     0.217 HD
ENDBRANCH   6  26
TORSDOF 6
ENDMDL
MODEL 2
REMARK VINA RESULT:      -8.4      2.329      3.061
REMARK  6 active torsions:
REMARK  status: ('A' for Active; 'I' for Inactive)
REMARK    1  A    between atoms: S1_2  and  C2_3 
REMARK    2  A    between atoms: C2_3  and  N1_4 
REMARK       I    between atoms: N1_4  and  C3_5 
REMARK       I    between atoms: C3_5  and  N2_7 
REMARK    3  A    between atoms: N2_7  and  C4_8 
REMARK    4  A    between atoms: C4_8  and  C5_9 
REMARK    5  A    between atoms: C15_19  and  O2_20 
REMARK    6  A    between atoms: C16_21  and  O3_22 
ROOT
HETATM    1  C2  UNL     1      24.628   2.261  52.107  1.00  0.00     0.083 C 
HETATM    2  C11 UNL     1      25.685   1.540  52.373  1.00  0.00     0.000 C 
HETATM    3  C12 UNL     1      25.488   0.120  52.690  1.00  0.00     0.014 C 
HETATM    4  C13 UNL     1      26.178  -0.594  53.600  1.00  0.00     0.004 C 
HETATM    5  C14 UNL     1      27.279  -0.162  54.492  1.00  0.00     0.039 C 
HETATM    6  C15 UNL     1      28.078   0.908  54.325  1.00  0.00     0.098 C 
HETATM    7  C16 UNL     1      28.013   1.876  53.204  1.00  0.00     0.099 C 
HETATM    8  C17 UNL     1      27.004   2.166  52.356  1.00  0.00     0.053 C 
ENDROOT
BRANCH   1   9
HETATM    9  S1  UNL     1      22.905   1.919  52.034  1.00  0.00    -0.116 SA
HETATM   10  C1  UNL     1      22.255   1.489  50.419  1.00  0.00     0.097 C 
ENDBRANCH   1   9
BRANCH   1  11
HETATM   11  N1  UNL     1      24.848   3.633  51.778  1.00  0.00    -0.302 N 
HETATM   12  C3  UNL     1      25.086   4.185  50.490  1.00  0.00     0.321 C 
HETATM   13  O1  UNL     1      25.111   3.383  49.491  1.00  0.00    -0.247 OA
HETATM   14  N2  UNL     1      25.307   5.541  50.151  1.00  0.00    -0.339 N 
HETATM   15  H5  UNL     1      25.290   6.217  50.943  1.00  0.00     0.164 HD
HETATM   16  H4  UNL     1      24.859   4.448  52.432  1.00  0.00     0.171 HD
BRANCH  14  17
HETATM   17  C4  UNL     1      25.546   6.006  48.807  1.00  0.00     0.162 C 
BRANCH  17  18
HETATM   18  C5  UNL     1      26.950   6.141  48.433  1.00  0.00    -0.040 A 
HETATM   19  C6  UNL     1      27.263   7.378  47.858  1.00  0.00     0.009 A 
HETATM   20  C7  UNL     1      28.529   7.696  47.436  1.00  0.00     0.001 A 
HETATM   21  C8  UNL     1      29.572   6.802  47.556  1.00  0.00     0.000 A 
HETATM   22  C9  UNL     1      29.270   5.584  48.121  1.00  0.00     0.001 A 
HETATM   23  C10 UNL     1      28.007   5.264  48.542  1.00  0.00     0.009 A 
ENDBRANCH  17  18
ENDBRANCH  14  17
ENDBRANCH   1  11
BRANCH   7  24
HETATM   24  O3  UNL     1      29.187   2.602  53.002  1.00  0.00    -0.358 OA
HETATM   25  H17 UNL     1      29.418   3.066  52.147  1.00  0.00     0.217 HD
ENDBRANCH   7  24
BRANCH   6  26
HETATM   26  O2  UNL     1      29.050   1.121  55.292  1.00  0.00    -0.358 OA
HETATM   27  H16 UNL     1      29.948   1.527  55.004  1.00  0.00     0.217 HD
ENDBRANCH   6  26
TORSDOF 6
ENDMDL
MODEL 3
REMARK VINA RESULT:      -8.0      3.818      5.389
REMARK  6 active torsions:
REMARK  status: ('A' for Active; 'I' for Inactive)
REMARK    1  A    between atoms: S1_2  and  C2_3 
REMARK    2  A    between atoms: C2_3  and  N1_4 
REMARK       I    between atoms: N1_4  and  C3_5 
REMARK       I    between atoms: C3_5  and  N2_7 
REMARK    3  A    between atoms: N2_7  and  C4_8 
REMARK    4  A    between atoms: C4_8  and  C5_9 
REMARK    5  A    between atoms: C15_19  and  O2_20 
REMARK    6  A    between atoms: C16_21  and  O3_22 
ROOT
HETATM    1  C2  UNL     1      22.979   2.533  52.029  1.00  0.00     0.083 C 
HETATM    2  C11 UNL     1      22.275   1.437  51.927  1.00  0.00     0.000 C 
HETATM    3  C12 UNL     1      21.225   1.387  50.902  1.00  0.00     0.014 C 
HETATM    4  C13 UNL     1      20.022   0.792  51.024  1.00  0.00     0.004 C 
HETATM    5  C14 UNL     1      19.454   0.055  52.177  1.00  0.00     0.039 C 
HETATM    6  C15 UNL     1      20.139  -0.507  53.190  1.00  0.00     0.098 C 
HETATM    7  C16 UNL     1      21.612  -0.497  53.356  1.00  0.00     0.099 C 
HETATM    8  C17 UNL     1      22.546   0.322  52.828  1.00  0.00     0.053 C 
ENDROOT
BRANCH   1   9
HETATM    9  S1  UNL     1      22.971   4.072  51.178  1.00  0.00    -0.116 SA
HETATM   10  C1  UNL     1      21.476   5.049  51.331  1.00  0.00     0.097 C 
ENDBRANCH   1   9
BRANCH   1  11
HETATM   11  N1  UNL     1      24.010   2.549  53.017  1.00  0.00    -0.302 N 
HETATM   12  C3  UNL     1      25.403   2.345  52.814  1.00  0.00     0.321 C 
HETATM   13  O1  UNL     1      25.807   2.120  51.619  1.00  0.00    -0.247 OA
HETATM   14  N2  UNL     1      26.433   2.355  53.784  1.00  0.00    -0.339 N 
HETATM   15  H5  UNL     1      26.135   2.537  54.764  1.00  0.00     0.164 HD
HETATM   16  H4  UNL     1      23.904   2.721  54.041  1.00  0.00     0.171 HD
BRANCH  14  17
HETATM   17  C4  UNL     1      27.826   2.132  53.480  1.00  0.00     0.162 C 
BRANCH  17  18
HETATM   18  C5  UNL     1      28.230   0.732  53.393  1.00  0.00    -0.040 A 
HETATM   19  C6  UNL     1      29.560   0.506  53.762  1.00  0.00     0.009 A 
HETATM   20  C7  UNL     1      30.130  -0.742  53.742  1.00  0.00     0.001 A 
HETATM   21  C8  UNL     1      29.411  -1.853  53.353  1.00  0.00     0.000 A 
HETATM   22  C9  UNL     1      28.102  -1.637  52.988  1.00  0.00     0.001 A 
HETATM   23  C10 UNL     1      27.532  -0.391  53.007  1.00  0.00     0.009 A 
ENDBRANCH  17  18
ENDBRANCH  14  17
ENDBRANCH   1  11
BRANCH   7  24
HETATM   24  O3  UNL     1      22.103  -1.497  54.195  1.00  0.00    -0.358 OA
HETATM   25  H17 UNL     1      22.046  -1.468  55.193  1.00  0.00     0.217 HD
ENDBRANCH   7  24
BRANCH   6  26
HETATM   26  O2  UNL     1      19.395  -1.152  54.167  1.00  0.00    -0.358 OA
HETATM   27  H16 UNL     1      18.376  -1.203  54.055  1.00  0.00     0.217 HD
ENDBRANCH   6  26
TORSDOF 6
ENDMDL
MODEL 4
REMARK VINA RESULT:      -7.6      2.940      8.024
REMARK  6 active torsions:
REMARK  status: ('A' for Active; 'I' for Inactive)
REMARK    1  A    between atoms: S1_2  and  C2_3 
REMARK    2  A    between atoms: C2_3  and  N1_4 
REMARK       I    between atoms: N1_4  and  C3_5 
REMARK       I    between atoms: C3_5  and  N2_7 
REMARK    3  A    between atoms: N2_7  and  C4_8 
REMARK    4  A    between atoms: C4_8  and  C5_9 
REMARK    5  A    between atoms: C15_19  and  O2_20 
REMARK    6  A    between atoms: C16_21  and  O3_22 
ROOT
HETATM    1  C2  UNL     1      23.067   4.158  48.359  1.00  0.00     0.083 C 
HETATM    2  C11 UNL     1      24.073   4.820  48.866  1.00  0.00     0.000 C 
HETATM    3  C12 UNL     1      24.232   6.229  48.484  1.00  0.00     0.014 C 
HETATM    4  C13 UNL     1      25.400   6.867  48.269  1.00  0.00     0.004 C 
HETATM    5  C14 UNL     1      26.783   6.344  48.356  1.00  0.00     0.039 C 
HETATM    6  C15 UNL     1      27.191   5.253  49.029  1.00  0.00     0.098 C 
HETATM    7  C16 UNL     1      26.327   4.347  49.823  1.00  0.00     0.099 C 
HETATM    8  C17 UNL     1      24.994   4.143  49.774  1.00  0.00     0.053 C 
ENDROOT
BRANCH   1   9
HETATM    9  S1  UNL     1      21.768   4.575  47.249  1.00  0.00    -0.116 SA
HETATM   10  C1  UNL     1      21.778   3.724  45.671  1.00  0.00     0.097 C 
ENDBRANCH   1   9
BRANCH   1  11
HETATM   11  N1  UNL     1      22.918   2.797  48.765  1.00  0.00    -0.302 N 
HETATM   12  C3  UNL     1      22.089   2.291  49.802  1.00  0.00     0.321 C 
HETATM   13  O1  UNL     1      21.381   3.129  50.465  1.00  0.00    -0.247 OA
HETATM   14  N2  UNL     1      21.935   0.947  50.214  1.00  0.00    -0.339 N 
HETATM   15  H5  UNL     1      22.496   0.242  49.692  1.00  0.00     0.164 HD
HETATM   16  H4  UNL     1      23.390   1.960  48.357  1.00  0.00     0.171 HD
BRANCH  14  17
HETATM   17  C4  UNL     1      21.066   0.529  51.288  1.00  0.00     0.162 C 
BRANCH  17  18
HETATM   18  C5  UNL     1      21.741  -0.007  52.466  1.00  0.00    -0.040 A 
HETATM   19  C6  UNL     1      20.874  -0.597  53.392  1.00  0.00     0.009 A 
HETATM   20  C7  UNL     1      21.316  -1.153  54.566  1.00  0.00     0.001 A 
HETATM   21  C8  UNL     1      22.655  -1.160  54.898  1.00  0.00     0.000 A 
HETATM   22  C9  UNL     1      23.512  -0.581  53.991  1.00  0.00     0.001 A 
HETATM   23  C10 UNL     1      23.073  -0.024  52.819  1.00  0.00     0.009 A 
ENDBRANCH  17  18
ENDBRANCH  14  17
ENDBRANCH   1  11
BRANCH   7  24
HETATM   24  O3  UNL     1      27.010   3.586  50.771  1.00  0.00    -0.358 OA
HETATM   25  H17 UNL     1      26.562   3.034  51.474  1.00  0.00     0.217 HD
ENDBRANCH   7  24
BRANCH   6  26
HETATM   26  O2  UNL     1      28.544   4.950  48.971  1.00  0.00    -0.358 OA
HETATM   27  H16 UNL     1      29.197   5.680  48.665  1.00  0.00     0.217 HD
ENDBRANCH   6  26
TORSDOF 6
ENDMDL
MODEL 5
REMARK VINA RESULT:      -7.6      2.860      4.190
REMARK  6 active torsions:
REMARK  status: ('A' for Active; 'I' for Inactive)
REMARK    1  A    between atoms: S1_2  and  C2_3 
REMARK    2  A    between atoms: C2_3  and  N1_4 
REMARK       I    between atoms: N1_4  and  C3_5 
REMARK       I    between atoms: C3_5  and  N2_7 
REMARK    3  A    between atoms: N2_7  and  C4_8 
REMARK    4  A    between atoms: C4_8  and  C5_9 
REMARK    5  A    between atoms: C15_19  and  O2_20 
REMARK    6  A    between atoms: C16_21  and  O3_22 
ROOT
HETATM    1  C2  UNL     1      24.389   0.453  53.032  1.00  0.00     0.083 C 
HETATM    2  C11 UNL     1      25.652   0.338  52.715  1.00  0.00     0.000 C 
HETATM    3  C12 UNL     1      26.223  -1.013  52.639  1.00  0.00     0.014 C 
HETATM    4  C13 UNL     1      27.464  -1.374  53.020  1.00  0.00     0.004 C 
HETATM    5  C14 UNL     1      28.546  -0.544  53.596  1.00  0.00     0.039 C 
HETATM    6  C15 UNL     1      28.669   0.794  53.509  1.00  0.00     0.098 C 
HETATM    7  C16 UNL     1      27.733   1.710  52.813  1.00  0.00     0.099 C 
HETATM    8  C17 UNL     1      26.442   1.540  52.462  1.00  0.00     0.053 C 
ENDROOT
BRANCH   1   9
HETATM    9  S1  UNL     1      23.120  -0.700  53.419  1.00  0.00    -0.116 SA
HETATM   10  C1  UNL     1      21.677  -0.034  54.248  1.00  0.00     0.097 C 
ENDBRANCH   1   9
BRANCH   1  11
HETATM   11  N1  UNL     1      23.852   1.775  53.076  1.00  0.00    -0.302 N 
HETATM   12  C3  UNL     1      23.212   2.482  52.022  1.00  0.00     0.321 C 
HETATM   13  O1  UNL     1      23.089   1.890  50.892  1.00  0.00    -0.247 OA
HETATM   14  N2  UNL     1      22.678   3.792  52.053  1.00  0.00    -0.339 N 
HETATM   15  H5  UNL     1      22.761   4.297  52.959  1.00  0.00     0.164 HD
HETATM   16  H4  UNL     1      23.837   2.426  53.893  1.00  0.00     0.171 HD
BRANCH  14  17
HETATM   17  C4  UNL     1      22.047   4.430  50.923  1.00  0.00     0.162 C 
BRANCH  17  18
HETATM   18  C5  UNL     1      22.881   5.385  50.199  1.00  0.00    -0.040 A 
HETATM   19  C6  UNL     1      22.936   6.649  50.796  1.00  0.00     0.009 A 
HETATM   20  C7  UNL     1      23.663   7.685  50.264  1.00  0.00     0.001 A 
HETATM   21  C8  UNL     1      24.386   7.531  49.099  1.00  0.00     0.000 A 
HETATM   22  C9  UNL     1      24.335   6.289  48.508  1.00  0.00     0.001 A 
HETATM   23  C10 UNL     1      23.609   5.255  49.037  1.00  0.00     0.009 A 
ENDBRANCH  17  18
ENDBRANCH  14  17
ENDBRANCH   1  11
BRANCH   7  24
HETATM   24  O3  UNL     1      28.285   2.944  52.470  1.00  0.00    -0.358 OA
HETATM   25  H17 UNL     1      28.012   3.813  52.881  1.00  0.00     0.217 HD
ENDBRANCH   7  24
BRANCH   6  26
HETATM   26  O2  UNL     1      29.772   1.364  54.127  1.00  0.00    -0.358 OA
HETATM   27  H16 UNL     1      30.629   0.806  54.214  1.00  0.00     0.217 HD
ENDBRANCH   6  26
TORSDOF 6
ENDMDL
MODEL 6
REMARK VINA RESULT:      -7.5      1.612      2.259
REMARK  6 active torsions:
REMARK  status: ('A' for Active; 'I' for Inactive)
REMARK    1  A    between atoms: S1_2  and  C2_3 
REMARK    2  A    between atoms: C2_3  and  N1_4 
REMARK       I    between atoms: N1_4  and  C3_5 
REMARK       I    between atoms: C3_5  and  N2_7 
REMARK    3  A    between atoms: N2_7  and  C4_8 
REMARK    4  A    between atoms: C4_8  and  C5_9 
REMARK    5  A    between atoms: C15_19  and  O2_20 
REMARK    6  A    between atoms: C16_21  and  O3_22 
ROOT
HETATM    1  C2  UNL     1      22.129   0.777  52.630  1.00  0.00     0.083 C 
HETATM    2  C11 UNL     1      22.960  -0.094  53.139  1.00  0.00     0.000 C 
HETATM    3  C12 UNL     1      22.490  -0.920  54.259  1.00  0.00     0.014 C 
HETATM    4  C13 UNL     1      23.222  -1.308  55.321  1.00  0.00     0.004 C 
HETATM    5  C14 UNL     1      24.641  -1.022  55.638  1.00  0.00     0.039 C 
HETATM    6  C15 UNL     1      25.600  -0.648  54.770  1.00  0.00     0.098 C 
HETATM    7  C16 UNL     1      25.423  -0.445  53.312  1.00  0.00     0.099 C 
HETATM    8  C17 UNL     1      24.308  -0.207  52.591  1.00  0.00     0.053 C 
ENDROOT
BRANCH   1   9
HETATM    9  S1  UNL     1      20.470   1.233  52.988  1.00  0.00    -0.116 SA
HETATM   10  C1  UNL     1      19.326   1.193  51.608  1.00  0.00     0.097 C 
ENDBRANCH   1   9
BRANCH   1  11
HETATM   11  N1  UNL     1      22.600   1.550  51.526  1.00  0.00    -0.302 N 
HETATM   12  C3  UNL     1      23.113   2.876  51.557  1.00  0.00     0.321 C 
HETATM   13  O1  UNL     1      23.172   3.469  52.692  1.00  0.00    -0.247 OA
HETATM   14  N2  UNL     1      23.581   3.652  50.471  1.00  0.00    -0.339 N 
HETATM   15  H5  UNL     1      23.548   3.196  49.536  1.00  0.00     0.164 HD
HETATM   16  H4  UNL     1      22.650   1.259  50.524  1.00  0.00     0.171 HD
BRANCH  14  17
HETATM   17  C4  UNL     1      24.083   4.999  50.602  1.00  0.00     0.162 C 
BRANCH  17  18
HETATM   18  C5  UNL     1      25.309   5.284  49.864  1.00  0.00    -0.040 A 
HETATM   19  C6  UNL     1      26.105   4.155  49.638  1.00  0.00     0.009 A 
HETATM   20  C7  UNL     1      27.300   4.217  48.966  1.00  0.00     0.001 A 
HETATM   21  C8  UNL     1      27.785   5.410  48.473  1.00  0.00     0.000 A 
HETATM   22  C9  UNL     1      27.007   6.524  48.692  1.00  0.00     0.001 A 
HETATM   23  C10 UNL     1      25.814   6.464  49.363  1.00  0.00     0.009 A 
ENDBRANCH  17  18
ENDBRANCH  14  17
ENDBRANCH   1  11
BRANCH   7  24
HETATM   24  O3  UNL     1      26.605  -0.511  52.576  1.00  0.00    -0.358 OA
HETATM   25  H17 UNL     1      26.651  -0.423  51.581  1.00  0.00     0.217 HD
ENDBRANCH   7  24
BRANCH   6  26
HETATM   26  O2  UNL     1      26.867  -0.433  55.292  1.00  0.00    -0.358 OA
HETATM   27  H16 UNL     1      26.950  -0.083  56.253  1.00  0.00     0.217 HD
ENDBRANCH   6  26
TORSDOF 6
ENDMDL
MODEL 7
REMARK VINA RESULT:      -7.4      2.409      3.378
REMARK  6 active torsions:
REMARK  status: ('A' for Active; 'I' for Inactive)
REMARK    1  A    between atoms: S1_2  and  C2_3 
REMARK    2  A    between atoms: C2_3  and  N1_4 
REMARK       I    between atoms: N1_4  and  C3_5 
REMARK       I    between atoms: C3_5  and  N2_7 
REMARK    3  A    between atoms: N2_7  and  C4_8 
REMARK    4  A    between atoms: C4_8  and  C5_9 
REMARK    5  A    between atoms: C15_19  and  O2_20 
REMARK    6  A    between atoms: C16_21  and  O3_22 
ROOT
HETATM    1  C2  UNL     1      24.719   0.463  52.626  1.00  0.00     0.083 C 
HETATM    2  C11 UNL     1      23.749   0.270  53.481  1.00  0.00     0.000 C 
HETATM    3  C12 UNL     1      24.023  -0.570  54.653  1.00  0.00     0.014 C 
HETATM    4  C13 UNL     1      23.167  -1.439  55.226  1.00  0.00     0.004 C 
HETATM    5  C14 UNL     1      21.774  -1.771  54.846  1.00  0.00     0.039 C 
HETATM    6  C15 UNL     1      20.940  -1.018  54.104  1.00  0.00     0.098 C 
HETATM    7  C16 UNL     1      21.255   0.305  53.514  1.00  0.00     0.099 C 
HETATM    8  C17 UNL     1      22.445   0.878  53.237  1.00  0.00     0.053 C 
ENDROOT
BRANCH   1   9
HETATM    9  S1  UNL     1      26.389  -0.079  52.533  1.00  0.00    -0.116 SA
HETATM   10  C1  UNL     1      26.636  -1.851  52.421  1.00  0.00     0.097 C 
ENDBRANCH   1   9
BRANCH   1  11
HETATM   11  N1  UNL     1      24.436   1.303  51.507  1.00  0.00    -0.302 N 
HETATM   12  C3  UNL     1      24.586   2.715  51.427  1.00  0.00     0.321 C 
HETATM   13  O1  UNL     1      25.024   3.330  52.463  1.00  0.00    -0.247 OA
HETATM   14  N2  UNL     1      24.307   3.558  50.326  1.00  0.00    -0.339 N 
HETATM   15  H5  UNL     1      23.951   3.086  49.469  1.00  0.00     0.164 HD
HETATM   16  H4  UNL     1      24.082   1.011  50.569  1.00  0.00     0.171 HD
BRANCH  14  17
HETATM   17  C4  UNL     1      24.488   4.989  50.342  1.00  0.00     0.162 C 
BRANCH  17  18
HETATM   18  C5  UNL     1      25.667   5.478  49.633  1.00  0.00    -0.040 A 
HETATM   19  C6  UNL     1      26.573   4.470  49.286  1.00  0.00     0.009 A 
HETATM   20  C7  UNL     1      27.744   4.729  48.619  1.00  0.00     0.001 A 
HETATM   21  C8  UNL     1      28.094   6.011  48.252  1.00  0.00     0.000 A 
HETATM   22  C9  UNL     1      27.206   7.007  48.591  1.00  0.00     0.001 A 
HETATM   23  C10 UNL     1      26.037   6.751  49.257  1.00  0.00     0.009 A 
ENDBRANCH  17  18
ENDBRANCH  14  17
ENDBRANCH   1  11
BRANCH   7  24
HETATM   24  O3  UNL     1      20.136   1.073  53.195  1.00  0.00    -0.358 OA
HETATM   25  H17 UNL     1      19.207   0.863  53.500  1.00  0.00     0.217 HD
ENDBRANCH   7  24
BRANCH   6  26
HETATM   26  O2  UNL     1      19.672  -1.531  53.873  1.00  0.00    -0.358 OA
HETATM   27  H16 UNL     1      18.892  -0.875  53.753  1.00  0.00     0.217 HD
ENDBRANCH   6  26
TORSDOF 6
ENDMDL
MODEL 8
REMARK VINA RESULT:      -7.3      2.757      3.928
REMARK  6 active torsions:
REMARK  status: ('A' for Active; 'I' for Inactive)
REMARK    1  A    between atoms: S1_2  and  C2_3 
REMARK    2  A    between atoms: C2_3  and  N1_4 
REMARK       I    between atoms: N1_4  and  C3_5 
REMARK       I    between atoms: C3_5  and  N2_7 
REMARK    3  A    between atoms: N2_7  and  C4_8 
REMARK    4  A    between atoms: C4_8  and  C5_9 
REMARK    5  A    between atoms: C15_19  and  O2_20 
REMARK    6  A    between atoms: C16_21  and  O3_22 
ROOT
HETATM    1  C2  UNL     1      24.656   2.075  52.392  1.00  0.00     0.083 C 
HETATM    2  C11 UNL     1      23.382   1.842  52.571  1.00  0.00     0.000 C 
HETATM    3  C12 UNL     1      22.978   0.484  52.958  1.00  0.00     0.014 C 
HETATM    4  C13 UNL     1      21.871  -0.164  52.546  1.00  0.00     0.004 C 
HETATM    5  C14 UNL     1      20.802   0.297  51.629  1.00  0.00     0.039 C 
HETATM    6  C15 UNL     1      20.503   1.571  51.317  1.00  0.00     0.098 C 
HETATM    7  C16 UNL     1      21.191   2.778  51.833  1.00  0.00     0.099 C 
HETATM    8  C17 UNL     1      22.419   2.921  52.373  1.00  0.00     0.053 C 
ENDROOT
BRANCH   1   9
HETATM    9  S1  UNL     1      26.104   1.086  52.508  1.00  0.00    -0.116 SA
HETATM   10  C1  UNL     1      26.747   0.821  54.161  1.00  0.00     0.097 C 
ENDBRANCH   1   9
BRANCH   1  11
HETATM   11  N1  UNL     1      25.025   3.409  52.041  1.00  0.00    -0.302 N 
HETATM   12  C3  UNL     1      25.184   3.944  50.734  1.00  0.00     0.321 C 
HETATM   13  O1  UNL     1      24.978   3.164  49.738  1.00  0.00    -0.247 OA
HETATM   14  N2  UNL     1      25.551   5.262  50.373  1.00  0.00    -0.339 N 
HETATM   15  H5  UNL     1      25.723   5.920  51.161  1.00  0.00     0.164 HD
HETATM   16  H4  UNL     1      25.227   4.202  52.689  1.00  0.00     0.171 HD
BRANCH  14  17
HETATM   17  C4  UNL     1      25.692   5.714  49.010  1.00  0.00     0.162 C 
BRANCH  17  18
HETATM   18  C5  UNL     1      27.065   5.904  48.554  1.00  0.00    -0.040 A 
HETATM   19  C6  UNL     1      27.312   7.177  48.027  1.00  0.00     0.009 A 
HETATM   20  C7  UNL     1      28.540   7.549  47.541  1.00  0.00     0.001 A 
HETATM   21  C8  UNL     1      29.609   6.678  47.547  1.00  0.00     0.000 A 
HETATM   22  C9  UNL     1      29.372   5.424  48.064  1.00  0.00     0.001 A 
HETATM   23  C10 UNL     1      28.146   5.051  48.549  1.00  0.00     0.009 A 
ENDBRANCH  17  18
ENDBRANCH  14  17
ENDBRANCH   1  11
BRANCH   7  24
HETATM   24  O3  UNL     1      20.442   3.951  51.741  1.00  0.00    -0.358 OA
HETATM   25  H17 UNL     1      20.839   4.866  51.676  1.00  0.00     0.217 HD
ENDBRANCH   7  24
BRANCH   6  26
HETATM   26  O2  UNL     1      19.453   1.769  50.431  1.00  0.00    -0.358 OA
HETATM   27  H16 UNL     1      18.507   1.890  50.810  1.00  0.00     0.217 HD
ENDBRANCH   6  26
TORSDOF 6
ENDMDL
MODEL 9
REMARK VINA RESULT:      -7.3      3.826      5.122
REMARK  6 active torsions:
REMARK  status: ('A' for Active; 'I' for Inactive)
REMARK    1  A    between atoms: S1_2  and  C2_3 
REMARK    2  A    between atoms: C2_3  and  N1_4 
REMARK       I    between atoms: N1_4  and  C3_5 
REMARK       I    between atoms: C3_5  and  N2_7 
REMARK    3  A    between atoms: N2_7  and  C4_8 
REMARK    4  A    between atoms: C4_8  and  C5_9 
REMARK    5  A    between atoms: C15_19  and  O2_20 
REMARK    6  A    between atoms: C16_21  and  O3_22 
ROOT
HETATM    1  C2  UNL     1      23.893   0.395  53.052  1.00  0.00     0.083 C 
HETATM    2  C11 UNL     1      25.136   0.414  52.647  1.00  0.00     0.000 C 
HETATM    3  C12 UNL     1      25.977  -0.750  52.954  1.00  0.00     0.014 C 
HETATM    4  C13 UNL     1      27.282  -0.721  53.286  1.00  0.00     0.004 C 
HETATM    5  C14 UNL     1      28.188   0.442  53.427  1.00  0.00     0.039 C 
HETATM    6  C15 UNL     1      28.019   1.664  52.891  1.00  0.00     0.098 C 
HETATM    7  C16 UNL     1      26.879   2.094  52.046  1.00  0.00     0.099 C 
HETATM    8  C17 UNL     1      25.638   1.577  51.923  1.00  0.00     0.053 C 
ENDROOT
BRANCH   1   9
HETATM    9  S1  UNL     1      22.917  -0.766  53.941  1.00  0.00    -0.116 SA
HETATM   10  C1  UNL     1      21.423  -0.124  54.697  1.00  0.00     0.097 C 
ENDBRANCH   1   9
BRANCH   1  11
HETATM   11  N1  UNL     1      23.089   1.528  52.721  1.00  0.00    -0.302 N 
HETATM   12  C3  UNL     1      22.159   1.643  51.651  1.00  0.00     0.321 C 
HETATM   13  O1  UNL     1      22.004   0.630  50.881  1.00  0.00    -0.247 OA
HETATM   14  N2  UNL     1      21.359   2.759  51.311  1.00  0.00    -0.339 N 
HETATM   15  H5  UNL     1      21.461   3.596  51.921  1.00  0.00     0.164 HD
HETATM   16  H4  UNL     1      23.051   2.445  53.217  1.00  0.00     0.171 HD
BRANCH  14  17
HETATM   17  C4  UNL     1      20.442   2.782  50.197  1.00  0.00     0.162 C 
BRANCH  17  18
HETATM   18  C5  UNL     1      21.013   3.216  48.926  1.00  0.00    -0.040 A 
HETATM   19  C6  UNL     1      20.841   4.580  48.668  1.00  0.00     0.009 A 
HETATM   20  C7  UNL     1      21.303   5.178  47.522  1.00  0.00     0.001 A 
HETATM   21  C8  UNL     1      21.971   4.457  46.555  1.00  0.00     0.000 A 
HETATM   22  C9  UNL     1      22.144   3.114  46.804  1.00  0.00     0.001 A 
HETATM   23  C10 UNL     1      21.682   2.515  47.946  1.00  0.00     0.009 A 
ENDBRANCH  17  18
ENDBRANCH  14  17
ENDBRANCH   1  11
BRANCH   7  24
HETATM   24  O3  UNL     1      27.139   3.212  51.254  1.00  0.00    -0.358 OA
HETATM   25  H17 UNL     1      26.706   4.103  51.385  1.00  0.00     0.217 HD
ENDBRANCH   7  24
BRANCH   6  26
HETATM   26  O2  UNL     1      29.002   2.606  53.156  1.00  0.00    -0.358 OA
HETATM   27  H16 UNL     1      29.962   2.281  53.321  1.00  0.00     0.217 HD
ENDBRANCH   6  26
TORSDOF 6
ENDMDL
