MODEL 1
REMARK VINA RESULT:      -9.3      0.000      0.000
REMARK  6 active torsions:
REMARK  status: ('A' for Active; 'I' for Inactive)
REMARK       I    between atoms: C2_2  and  N1_4 
REMARK    1  A    between atoms: N1_4  and  C3_5 
REMARK    2  A    between atoms: C3_5  and  C4_6 
REMARK    3  A    between atoms: C7_9  and  C8_10 
REMARK    4  A    between atoms: C11_13  and  C12_14 
REMARK    5  A    between atoms: C13_15  and  C14_16 
REMARK    6  A    between atoms: C18_23  and  N5_24 
ROOT
HETATM    1  C8  UNL     1      25.631   3.861  50.247  1.00  0.00    -0.059 C 
HETATM    2  C9  UNL     1      26.775   3.899  49.572  1.00  0.00    -0.016 C 
HETATM    3  C10 UNL     1      27.190   5.031  48.697  1.00  0.00     0.086 C 
HETATM    4  C11 UNL     1      26.369   6.222  49.054  1.00  0.00     0.032 C 
HETATM    5  N6  UNL     1      25.265   6.208  49.696  1.00  0.00    -0.290 NA
HETATM    6  C20 UNL     1      24.653   4.983  50.174  1.00  0.00     0.183 C 
ENDROOT
BRANCH   4   7
HETATM    7  C12 UNL     1      26.838   7.559  48.648  1.00  0.00     0.029 C 
HETATM    8  C13 UNL     1      27.067   8.493  49.533  1.00  0.00     0.036 C 
BRANCH   8   9
HETATM    9  C14 UNL     1      27.530   9.817  49.142  1.00  0.00     0.089 A 
HETATM   10  N2  UNL     1      26.687  10.834  48.893  1.00  0.00    -0.241 NA
HETATM   11  C15 UNL     1      27.447  11.901  48.560  1.00  0.00     0.215 A 
HETATM   12  N3  UNL     1      28.742  11.500  48.617  1.00  0.00    -0.310 N 
HETATM   13  C16 UNL     1      29.836  12.239  48.363  1.00  0.00     0.117 A 
HETATM   14  C19 UNL     1      28.842  10.211  48.976  1.00  0.00     0.114 A 
HETATM   15  C17 UNL     1      31.069  11.620  48.484  1.00  0.00     0.136 A 
HETATM   16  N4  UNL     1      31.154  10.317  48.845  1.00  0.00    -0.240 NA
HETATM   17  C18 UNL     1      30.059   9.596  49.095  1.00  0.00     0.150 A 
BRANCH  17  18
HETATM   18  N5  UNL     1      30.104   8.220  49.480  1.00  0.00    -0.382 N 
HETATM   19  H21 UNL     1      29.652   8.087  50.413  1.00  0.00     0.157 HD
HETATM   20  H22 UNL     1      30.597   7.853  48.640  1.00  0.00     0.157 HD
ENDBRANCH  17  18
ENDBRANCH   8   9
ENDBRANCH   4   7
BRANCH   1  21
HETATM   21  C7  UNL     1      25.304   2.702  51.085  1.00  0.00     0.016 C 
HETATM   22  C6  UNL     1      24.518   3.042  52.303  1.00  0.00     0.009 C 
HETATM   23  C5  UNL     1      24.179   1.784  53.082  1.00  0.00     0.007 C 
HETATM   24  C4  UNL     1      25.292   0.828  53.248  1.00  0.00     0.003 C 
HETATM   25  C22 UNL     1      26.186   0.667  52.026  1.00  0.00     0.007 C 
HETATM   26  C21 UNL     1      26.603   2.053  51.589  1.00  0.00     0.009 C 
BRANCH  24  27
HETATM   27  C3  UNL     1      24.852  -0.551  53.620  1.00  0.00     0.127 C 
BRANCH  27  28
HETATM   28  N1  UNL     1      23.452  -0.799  53.723  1.00  0.00    -0.361 N 
HETATM   29  C2  UNL     1      22.449  -1.292  54.576  1.00  0.00     0.213 C 
HETATM   30  C1  UNL     1      21.004  -1.415  54.327  1.00  0.00     0.117 C 
HETATM   31  O1  UNL     1      22.838  -1.679  55.700  1.00  0.00    -0.274 OA
HETATM   32  H4  UNL     1      22.935  -0.512  52.824  1.00  0.00     0.162 HD
ENDBRANCH  27  28
ENDBRANCH  24  27
ENDBRANCH   1  21
TORSDOF 6
ENDMDL
MODEL 2
REMARK VINA RESULT:      -8.9      7.009      9.825
REMARK  6 active torsions:
REMARK  status: ('A' for Active; 'I' for Inactive)
REMARK       I    between atoms: C2_2  and  N1_4 
REMARK    1  A    between atoms: N1_4  and  C3_5 
REMARK    2  A    between atoms: C3_5  and  C4_6 
REMARK    3  A    between atoms: C7_9  and  C8_10 
REMARK    4  A    between atoms: C11_13  and  C12_14 
REMARK    5  A    between atoms: C13_15  and  C14_16 
REMARK    6  A    between atoms: C18_23  and  N5_24 
ROOT
HETATM    1  C8  UNL     1      19.684  -0.008  52.721  1.00  0.00    -0.059 C 
HETATM    2  C9  UNL     1      20.535   0.410  51.789  1.00  0.00    -0.016 C 
HETATM    3  C10 UNL     1      21.989   0.630  52.026  1.00  0.00     0.086 C 
HETATM    4  C11 UNL     1      22.373  -0.092  53.271  1.00  0.00     0.032 C 
HETATM    5  N6  UNL     1      21.574  -0.498  54.182  1.00  0.00    -0.290 NA
HETATM    6  C20 UNL     1      20.140  -0.297  54.110  1.00  0.00     0.183 C 
ENDROOT
BRANCH   4   7
HETATM    7  C12 UNL     1      23.797  -0.386  53.515  1.00  0.00     0.029 C 
HETATM    8  C13 UNL     1      24.728   0.070  52.718  1.00  0.00     0.036 C 
BRANCH   8   9
HETATM    9  C14 UNL     1      26.137  -0.216  52.949  1.00  0.00     0.089 A 
HETATM   10  N2  UNL     1      26.669  -1.436  52.756  1.00  0.00    -0.241 NA
HETATM   11  C15 UNL     1      27.982  -1.344  53.063  1.00  0.00     0.215 A 
HETATM   12  N3  UNL     1      28.213  -0.060  53.437  1.00  0.00    -0.310 N 
HETATM   13  C16 UNL     1      29.383   0.477  53.824  1.00  0.00     0.117 A 
HETATM   14  C19 UNL     1      27.094   0.678  53.381  1.00  0.00     0.114 A 
HETATM   15  C17 UNL     1      29.389   1.820  54.164  1.00  0.00     0.136 A 
HETATM   16  N4  UNL     1      28.252   2.552  54.104  1.00  0.00    -0.240 NA
HETATM   17  C18 UNL     1      27.098   2.005  53.717  1.00  0.00     0.150 A 
BRANCH  17  18
HETATM   18  N5  UNL     1      25.875   2.741  53.638  1.00  0.00    -0.382 N 
HETATM   19  H21 UNL     1      25.098   2.125  53.306  1.00  0.00     0.157 HD
HETATM   20  H22 UNL     1      26.240   3.661  53.959  1.00  0.00     0.157 HD
ENDBRANCH  17  18
ENDBRANCH   8   9
ENDBRANCH   4   7
BRANCH   1  21
HETATM   21  C7  UNL     1      18.265  -0.196  52.397  1.00  0.00     0.016 C 
HETATM   22  C6  UNL     1      17.727  -1.525  52.798  1.00  0.00     0.009 C 
HETATM   23  C5  UNL     1      16.247  -1.615  52.476  1.00  0.00     0.007 C 
HETATM   24  C4  UNL     1      15.861  -1.110  51.143  1.00  0.00     0.003 C 
HETATM   25  C22 UNL     1      16.592   0.150  50.700  1.00  0.00     0.007 C 
HETATM   26  C21 UNL     1      18.072  -0.104  50.875  1.00  0.00     0.009 C 
BRANCH  24  27
HETATM   27  C3  UNL     1      14.404  -0.808  51.011  1.00  0.00     0.127 C 
BRANCH  27  28
HETATM   28  N1  UNL     1      13.670  -0.529  52.201  1.00  0.00    -0.361 N 
HETATM   29  C2  UNL     1      13.514   0.402  53.243  1.00  0.00     0.213 C 
HETATM   30  C1  UNL     1      12.596   0.355  54.392  1.00  0.00     0.117 C 
HETATM   31  O1  UNL     1      14.255   1.408  53.185  1.00  0.00    -0.274 OA
HETATM   32  H4  UNL     1      12.956  -1.305  52.414  1.00  0.00     0.162 HD
ENDBRANCH  27  28
ENDBRANCH  24  27
ENDBRANCH   1  21
TORSDOF 6
ENDMDL
MODEL 3
REMARK VINA RESULT:      -8.8      1.654      2.200
REMARK  6 active torsions:
REMARK  status: ('A' for Active; 'I' for Inactive)
REMARK       I    between atoms: C2_2  and  N1_4 
REMARK    1  A    between atoms: N1_4  and  C3_5 
REMARK    2  A    between atoms: C3_5  and  C4_6 
REMARK    3  A    between atoms: C7_9  and  C8_10 
REMARK    4  A    between atoms: C11_13  and  C12_14 
REMARK    5  A    between atoms: C13_15  and  C14_16 
REMARK    6  A    between atoms: C18_23  and  N5_24 
ROOT
HETATM    1  C8  UNL     1      25.877   3.734  50.036  1.00  0.00    -0.059 C 
HETATM    2  C9  UNL     1      27.034   3.929  49.412  1.00  0.00    -0.016 C 
HETATM    3  C10 UNL     1      27.337   5.119  48.569  1.00  0.00     0.086 C 
HETATM    4  C11 UNL     1      26.355   6.189  48.902  1.00  0.00     0.032 C 
HETATM    5  N6  UNL     1      25.236   6.024  49.495  1.00  0.00    -0.290 NA
HETATM    6  C20 UNL     1      24.767   4.723  49.933  1.00  0.00     0.183 C 
ENDROOT
BRANCH   4   7
HETATM    7  C12 UNL     1      26.665   7.582  48.531  1.00  0.00     0.029 C 
HETATM    8  C13 UNL     1      26.982   8.468  49.437  1.00  0.00     0.036 C 
BRANCH   8   9
HETATM    9  C14 UNL     1      27.289   9.846  49.080  1.00  0.00     0.089 A 
HETATM   10  N2  UNL     1      26.337  10.743  48.772  1.00  0.00    -0.241 NA
HETATM   11  C15 UNL     1      26.967  11.906  48.494  1.00  0.00     0.215 A 
HETATM   12  N3  UNL     1      28.298  11.682  48.644  1.00  0.00    -0.310 N 
HETATM   13  C16 UNL     1      29.297  12.564  48.470  1.00  0.00     0.117 A 
HETATM   14  C19 UNL     1      28.545  10.414  49.009  1.00  0.00     0.114 A 
HETATM   15  C17 UNL     1      30.591  12.114  48.679  1.00  0.00     0.136 A 
HETATM   16  N4  UNL     1      30.825  10.831  49.045  1.00  0.00    -0.240 NA
HETATM   17  C18 UNL     1      29.822   9.968  49.215  1.00  0.00     0.150 A 
BRANCH  17  18
HETATM   18  N5  UNL     1      30.024   8.606  49.602  1.00  0.00    -0.382 N 
HETATM   19  H21 UNL     1      29.239   8.278  50.209  1.00  0.00     0.157 HD
HETATM   20  H22 UNL     1      30.925   8.449  49.106  1.00  0.00     0.157 HD
ENDBRANCH  17  18
ENDBRANCH   8   9
ENDBRANCH   4   7
BRANCH   1  21
HETATM   21  C7  UNL     1      25.667   2.529  50.848  1.00  0.00     0.016 C 
HETATM   22  C6  UNL     1      24.322   2.457  51.481  1.00  0.00     0.009 C 
HETATM   23  C5  UNL     1      24.170   1.160  52.255  1.00  0.00     0.007 C 
HETATM   24  C4  UNL     1      25.328   0.790  53.094  1.00  0.00     0.003 C 
HETATM   25  C22 UNL     1      26.687   1.071  52.470  1.00  0.00     0.007 C 
HETATM   26  C21 UNL     1      26.680   2.509  52.004  1.00  0.00     0.009 C 
BRANCH  24  27
HETATM   27  C3  UNL     1      25.347  -0.650  53.492  1.00  0.00     0.127 C 
BRANCH  27  28
HETATM   28  N1  UNL     1      26.599  -1.332  53.468  1.00  0.00    -0.361 N 
HETATM   29  C2  UNL     1      27.349  -2.297  52.774  1.00  0.00     0.213 C 
HETATM   30  C1  UNL     1      28.705  -2.793  53.060  1.00  0.00     0.117 C 
HETATM   31  O1  UNL     1      26.788  -2.805  51.778  1.00  0.00    -0.274 OA
HETATM   32  H4  UNL     1      27.238  -1.010  54.271  1.00  0.00     0.162 HD
ENDBRANCH  27  28
ENDBRANCH  24  27
ENDBRANCH   1  21
TORSDOF 6
ENDMDL
MODEL 4
REMARK VINA RESULT:      -8.7      6.924      9.755
REMARK  6 active torsions:
REMARK  status: ('A' for Active; 'I' for Inactive)
REMARK       I    between atoms: C2_2  and  N1_4 
REMARK    1  A    between atoms: N1_4  and  C3_5 
REMARK    2  A    between atoms: C3_5  and  C4_6 
REMARK    3  A    between atoms: C7_9  and  C8_10 
REMARK    4  A    between atoms: C11_13  and  C12_14 
REMARK    5  A    between atoms: C13_15  and  C14_16 
REMARK    6  A    between atoms: C18_23  and  N5_24 
ROOT
HETATM    1  C8  UNL     1      20.036   0.011  52.373  1.00  0.00    -0.059 C 
HETATM    2  C9  UNL     1      20.532  -0.371  53.546  1.00  0.00    -0.016 C 
HETATM    3  C10 UNL     1      21.986  -0.394  53.868  1.00  0.00     0.086 C 
HETATM    4  C11 UNL     1      22.697   0.463  52.878  1.00  0.00     0.032 C 
HETATM    5  N6  UNL     1      22.242   0.838  51.745  1.00  0.00    -0.290 NA
HETATM    6  C20 UNL     1      20.927   0.459  51.266  1.00  0.00     0.183 C 
ENDROOT
BRANCH   4   7
HETATM    7  C12 UNL     1      24.053   0.946  53.197  1.00  0.00     0.029 C 
HETATM    8  C13 UNL     1      25.113   0.346  52.722  1.00  0.00     0.036 C 
BRANCH   8   9
HETATM    9  C14 UNL     1      26.457   0.815  53.032  1.00  0.00     0.089 A 
HETATM   10  N2  UNL     1      26.749   2.117  53.194  1.00  0.00    -0.241 NA
HETATM   11  C15 UNL     1      28.071   2.191  53.467  1.00  0.00     0.215 A 
HETATM   12  N3  UNL     1      28.549   0.921  53.465  1.00  0.00    -0.310 N 
HETATM   13  C16 UNL     1      29.814   0.526  53.692  1.00  0.00     0.117 A 
HETATM   14  C19 UNL     1      27.580   0.032  53.200  1.00  0.00     0.114 A 
HETATM   15  C17 UNL     1      30.079  -0.832  53.639  1.00  0.00     0.136 A 
HETATM   16  N4  UNL     1      29.091  -1.719  53.369  1.00  0.00    -0.240 NA
HETATM   17  C18 UNL     1      27.840  -1.311  53.147  1.00  0.00     0.150 A 
BRANCH  17  18
HETATM   18  N5  UNL     1      26.768  -2.212  52.859  1.00  0.00    -0.382 N 
HETATM   19  H21 UNL     1      25.851  -1.787  53.128  1.00  0.00     0.157 HD
HETATM   20  H22 UNL     1      27.336  -2.992  52.470  1.00  0.00     0.157 HD
ENDBRANCH  17  18
ENDBRANCH   8   9
ENDBRANCH   4   7
BRANCH   1  21
HETATM   21  C7  UNL     1      18.586   0.000  52.144  1.00  0.00     0.016 C 
HETATM   22  C6  UNL     1      17.889  -1.166  52.753  1.00  0.00     0.009 C 
HETATM   23  C5  UNL     1      16.393  -1.071  52.515  1.00  0.00     0.007 C 
HETATM   24  C4  UNL     1      15.998  -0.695  51.142  1.00  0.00     0.003 C 
HETATM   25  C22 UNL     1      16.872   0.368  50.493  1.00  0.00     0.007 C 
HETATM   26  C21 UNL     1      18.308  -0.083  50.635  1.00  0.00     0.009 C 
BRANCH  24  27
HETATM   27  C3  UNL     1      14.594  -0.195  51.036  1.00  0.00     0.127 C 
BRANCH  27  28
HETATM   28  N1  UNL     1      14.273   1.034  51.682  1.00  0.00    -0.361 N 
HETATM   29  C2  UNL     1      13.807   1.593  52.885  1.00  0.00     0.213 C 
HETATM   30  C1  UNL     1      13.573   3.008  53.216  1.00  0.00     0.117 C 
HETATM   31  O1  UNL     1      13.557   0.777  53.800  1.00  0.00    -0.274 OA
HETATM   32  H4  UNL     1      14.439   1.875  51.032  1.00  0.00     0.162 HD
ENDBRANCH  27  28
ENDBRANCH  24  27
ENDBRANCH   1  21
TORSDOF 6
ENDMDL
MODEL 5
REMARK VINA RESULT:      -8.4      3.032      3.715
REMARK  6 active torsions:
REMARK  status: ('A' for Active; 'I' for Inactive)
REMARK       I    between atoms: C2_2  and  N1_4 
REMARK    1  A    between atoms: N1_4  and  C3_5 
REMARK    2  A    between atoms: C3_5  and  C4_6 
REMARK    3  A    between atoms: C7_9  and  C8_10 
REMARK    4  A    between atoms: C11_13  and  C12_14 
REMARK    5  A    between atoms: C13_15  and  C14_16 
REMARK    6  A    between atoms: C18_23  and  N5_24 
ROOT
HETATM    1  C8  UNL     1      25.318   3.850  49.619  1.00  0.00    -0.059 C 
HETATM    2  C9  UNL     1      24.957   5.053  49.184  1.00  0.00    -0.016 C 
HETATM    3  C10 UNL     1      25.918   6.135  48.830  1.00  0.00     0.086 C 
HETATM    4  C11 UNL     1      27.259   5.518  48.624  1.00  0.00     0.032 C 
HETATM    5  N6  UNL     1      27.629   4.368  49.037  1.00  0.00    -0.290 NA
HETATM    6  C20 UNL     1      26.754   3.487  49.787  1.00  0.00     0.183 C 
ENDROOT
BRANCH   4   7
HETATM    7  C12 UNL     1      28.283   6.273  47.878  1.00  0.00     0.029 C 
HETATM    8  C13 UNL     1      29.543   6.225  48.223  1.00  0.00     0.036 C 
BRANCH   8   9
HETATM    9  C14 UNL     1      30.562   6.966  47.493  1.00  0.00     0.089 A 
HETATM   10  N2  UNL     1      30.277   7.714  46.412  1.00  0.00    -0.241 NA
HETATM   11  C15 UNL     1      31.442   8.254  45.991  1.00  0.00     0.215 A 
HETATM   12  N3  UNL     1      32.411   7.816  46.835  1.00  0.00    -0.310 N 
HETATM   13  C16 UNL     1      33.723   8.107  46.790  1.00  0.00     0.117 A 
HETATM   14  C19 UNL     1      31.909   7.013  47.785  1.00  0.00     0.114 A 
HETATM   15  C17 UNL     1      34.536   7.545  47.760  1.00  0.00     0.136 A 
HETATM   16  N4  UNL     1      34.015   6.735  48.713  1.00  0.00    -0.240 NA
HETATM   17  C18 UNL     1      32.711   6.456  48.745  1.00  0.00     0.150 A 
BRANCH  17  18
HETATM   18  N5  UNL     1      32.120   5.608  49.732  1.00  0.00    -0.382 N 
HETATM   19  H21 UNL     1      31.787   4.718  49.297  1.00  0.00     0.157 HD
HETATM   20  H22 UNL     1      32.252   6.231  50.554  1.00  0.00     0.157 HD
ENDBRANCH  17  18
ENDBRANCH   8   9
ENDBRANCH   4   7
BRANCH   1  21
HETATM   21  C7  UNL     1      24.300   2.845  49.946  1.00  0.00     0.016 C 
HETATM   22  C6  UNL     1      23.079   2.928  49.098  1.00  0.00     0.009 C 
HETATM   23  C5  UNL     1      22.104   1.824  49.465  1.00  0.00     0.007 C 
HETATM   24  C4  UNL     1      21.903   1.619  50.913  1.00  0.00     0.003 C 
HETATM   25  C22 UNL     1      23.162   1.741  51.759  1.00  0.00     0.007 C 
HETATM   26  C21 UNL     1      23.825   3.050  51.392  1.00  0.00     0.009 C 
BRANCH  24  27
HETATM   27  C3  UNL     1      21.304   0.294  51.257  1.00  0.00     0.127 C 
BRANCH  27  28
HETATM   28  N1  UNL     1      21.689  -0.313  52.488  1.00  0.00    -0.361 N 
HETATM   29  C2  UNL     1      21.422  -0.343  53.868  1.00  0.00     0.213 C 
HETATM   30  C1  UNL     1      22.073  -1.146  54.916  1.00  0.00     0.117 C 
HETATM   31  O1  UNL     1      20.508   0.416  54.259  1.00  0.00    -0.274 OA
HETATM   32  H4  UNL     1      22.484  -1.024  52.344  1.00  0.00     0.162 HD
ENDBRANCH  27  28
ENDBRANCH  24  27
ENDBRANCH   1  21
TORSDOF 6
ENDMDL
MODEL 6
REMARK VINA RESULT:      -8.4      2.183      3.071
REMARK  6 active torsions:
REMARK  status: ('A' for Active; 'I' for Inactive)
REMARK       I    between atoms: C2_2  and  N1_4 
REMARK    1  A    between atoms: N1_4  and  C3_5 
REMARK    2  A    between atoms: C3_5  and  C4_6 
REMARK    3  A    between atoms: C7_9  and  C8_10 
REMARK    4  A    between atoms: C11_13  and  C12_14 
REMARK    5  A    between atoms: C13_15  and  C14_16 
REMARK    6  A    between atoms: C18_23  and  N5_24 
ROOT
HETATM    1  C8  UNL     1      25.276   3.935  49.570  1.00  0.00    -0.059 C 
HETATM    2  C9  UNL     1      24.880   5.173  49.292  1.00  0.00    -0.016 C 
HETATM    3  C10 UNL     1      25.808   6.297  48.985  1.00  0.00     0.086 C 
HETATM    4  C11 UNL     1      27.132   5.721  48.618  1.00  0.00     0.032 C 
HETATM    5  N6  UNL     1      27.536   4.538  48.879  1.00  0.00    -0.290 NA
HETATM    6  C20 UNL     1      26.722   3.573  49.594  1.00  0.00     0.183 C 
ENDROOT
BRANCH   4   7
HETATM    7  C12 UNL     1      28.096   6.561  47.882  1.00  0.00     0.029 C 
HETATM    8  C13 UNL     1      29.266   6.848  48.388  1.00  0.00     0.036 C 
BRANCH   8   9
HETATM    9  C14 UNL     1      30.224   7.677  47.670  1.00  0.00     0.089 A 
HETATM   10  N2  UNL     1      30.891   7.240  46.588  1.00  0.00    -0.241 NA
HETATM   11  C15 UNL     1      31.686   8.254  46.180  1.00  0.00     0.215 A 
HETATM   12  N3  UNL     1      31.477   9.289  47.034  1.00  0.00    -0.310 N 
HETATM   13  C16 UNL     1      32.060  10.501  47.002  1.00  0.00     0.117 A 
HETATM   14  C19 UNL     1      30.575   8.976  47.976  1.00  0.00     0.114 A 
HETATM   15  C17 UNL     1      31.694  11.411  47.980  1.00  0.00     0.136 A 
HETATM   16  N4  UNL     1      30.783  11.081  48.926  1.00  0.00    -0.240 NA
HETATM   17  C18 UNL     1      30.213   9.874  48.944  1.00  0.00     0.150 A 
BRANCH  17  18
HETATM   18  N5  UNL     1      29.247   9.484  49.922  1.00  0.00    -0.382 N 
HETATM   19  H21 UNL     1      29.722   9.146  50.790  1.00  0.00     0.157 HD
HETATM   20  H22 UNL     1      28.391   9.695  49.371  1.00  0.00     0.157 HD
ENDBRANCH  17  18
ENDBRANCH   8   9
ENDBRANCH   4   7
BRANCH   1  21
HETATM   21  C7  UNL     1      24.288   2.890  49.863  1.00  0.00     0.016 C 
HETATM   22  C6  UNL     1      23.103   2.913  48.962  1.00  0.00     0.009 C 
HETATM   23  C5  UNL     1      22.161   1.771  49.298  1.00  0.00     0.007 C 
HETATM   24  C4  UNL     1      21.906   1.570  50.738  1.00  0.00     0.003 C 
HETATM   25  C22 UNL     1      23.121   1.753  51.636  1.00  0.00     0.007 C 
HETATM   26  C21 UNL     1      23.742   3.086  51.286  1.00  0.00     0.009 C 
BRANCH  24  27
HETATM   27  C3  UNL     1      21.349   0.223  51.069  1.00  0.00     0.127 C 
BRANCH  27  28
HETATM   28  N1  UNL     1      21.676  -0.340  52.337  1.00  0.00    -0.361 N 
HETATM   29  C2  UNL     1      21.253  -0.442  53.674  1.00  0.00     0.213 C 
HETATM   30  C1  UNL     1      21.893  -1.152  54.793  1.00  0.00     0.117 C 
HETATM   31  O1  UNL     1      20.187   0.151  53.950  1.00  0.00    -0.274 OA
HETATM   32  H4  UNL     1      22.587  -0.911  52.291  1.00  0.00     0.162 HD
ENDBRANCH  27  28
ENDBRANCH  24  27
ENDBRANCH   1  21
TORSDOF 6
ENDMDL
MODEL 7
REMARK VINA RESULT:      -8.0      6.792     11.975
REMARK  6 active torsions:
REMARK  status: ('A' for Active; 'I' for Inactive)
REMARK       I    between atoms: C2_2  and  N1_4 
REMARK    1  A    between atoms: N1_4  and  C3_5 
REMARK    2  A    between atoms: C3_5  and  C4_6 
REMARK    3  A    between atoms: C7_9  and  C8_10 
REMARK    4  A    between atoms: C11_13  and  C12_14 
REMARK    5  A    between atoms: C13_15  and  C14_16 
REMARK    6  A    between atoms: C18_23  and  N5_24 
ROOT
HETATM    1  C8  UNL     1      21.710   0.360  52.061  1.00  0.00    -0.059 C 
HETATM    2  C9  UNL     1      21.035   0.795  51.001  1.00  0.00    -0.016 C 
HETATM    3  C10 UNL     1      19.599   0.492  50.745  1.00  0.00     0.086 C 
HETATM    4  C11 UNL     1      18.983   0.039  52.024  1.00  0.00     0.032 C 
HETATM    5  N6  UNL     1      19.610  -0.387  53.052  1.00  0.00    -0.290 NA
HETATM    6  C20 UNL     1      21.057  -0.485  53.100  1.00  0.00     0.183 C 
ENDROOT
BRANCH   4   7
HETATM    7  C12 UNL     1      17.515   0.071  52.159  1.00  0.00     0.029 C 
HETATM    8  C13 UNL     1      16.779   0.810  51.371  1.00  0.00     0.036 C 
BRANCH   8   9
HETATM    9  C14 UNL     1      15.329   0.848  51.496  1.00  0.00     0.089 A 
HETATM   10  N2  UNL     1      14.555  -0.227  51.271  1.00  0.00    -0.241 NA
HETATM   11  C15 UNL     1      13.276   0.160  51.475  1.00  0.00     0.215 A 
HETATM   12  N3  UNL     1      13.309   1.471  51.823  1.00  0.00    -0.310 N 
HETATM   13  C16 UNL     1      12.262   2.262  52.118  1.00  0.00     0.117 A 
HETATM   14  C19 UNL     1      14.565   1.941  51.850  1.00  0.00     0.114 A 
HETATM   15  C17 UNL     1      12.531   3.580  52.449  1.00  0.00     0.136 A 
HETATM   16  N4  UNL     1      13.804   4.041  52.471  1.00  0.00    -0.240 NA
HETATM   17  C18 UNL     1      14.832   3.244  52.176  1.00  0.00     0.150 A 
BRANCH  17  18
HETATM   18  N5  UNL     1      16.191   3.689  52.188  1.00  0.00    -0.382 N 
HETATM   19  H21 UNL     1      16.723   3.258  51.398  1.00  0.00     0.157 HD
HETATM   20  H22 UNL     1      16.133   4.306  53.023  1.00  0.00     0.157 HD
ENDBRANCH  17  18
ENDBRANCH   8   9
ENDBRANCH   4   7
BRANCH   1  21
HETATM   21  C7  UNL     1      23.125   0.709  52.231  1.00  0.00     0.016 C 
HETATM   22  C6  UNL     1      23.834  -0.127  53.239  1.00  0.00     0.009 C 
HETATM   23  C5  UNL     1      25.299   0.262  53.312  1.00  0.00     0.007 C 
HETATM   24  C4  UNL     1      25.563   1.715  53.341  1.00  0.00     0.003 C 
HETATM   25  C22 UNL     1      24.670   2.546  52.431  1.00  0.00     0.007 C 
HETATM   26  C21 UNL     1      23.239   2.158  52.729  1.00  0.00     0.009 C 
BRANCH  24  27
HETATM   27  C3  UNL     1      26.967   2.080  52.983  1.00  0.00     0.127 C 
BRANCH  27  28
HETATM   28  N1  UNL     1      27.966   1.069  53.089  1.00  0.00    -0.361 N 
HETATM   29  C2  UNL     1      28.868   0.457  53.978  1.00  0.00     0.213 C 
HETATM   30  C1  UNL     1      29.823  -0.632  53.718  1.00  0.00     0.117 C 
HETATM   31  O1  UNL     1      28.857   0.897  55.148  1.00  0.00    -0.274 OA
HETATM   32  H4  UNL     1      28.112   0.560  52.152  1.00  0.00     0.162 HD
ENDBRANCH  27  28
ENDBRANCH  24  27
ENDBRANCH   1  21
TORSDOF 6
ENDMDL
MODEL 8
REMARK VINA RESULT:      -8.0      7.031     13.966
REMARK  6 active torsions:
REMARK  status: ('A' for Active; 'I' for Inactive)
REMARK       I    between atoms: C2_2  and  N1_4 
REMARK    1  A    between atoms: N1_4  and  C3_5 
REMARK    2  A    between atoms: C3_5  and  C4_6 
REMARK    3  A    between atoms: C7_9  and  C8_10 
REMARK    4  A    between atoms: C11_13  and  C12_14 
REMARK    5  A    between atoms: C13_15  and  C14_16 
REMARK    6  A    between atoms: C18_23  and  N5_24 
ROOT
HETATM    1  C8  UNL     1      21.281   0.037  53.105  1.00  0.00    -0.059 C 
HETATM    2  C9  UNL     1      20.453   0.583  52.220  1.00  0.00    -0.016 C 
HETATM    3  C10 UNL     1      19.097   0.051  51.907  1.00  0.00     0.086 C 
HETATM    4  C11 UNL     1      18.686  -0.858  53.014  1.00  0.00     0.032 C 
HETATM    5  N6  UNL     1      19.464  -1.398  53.872  1.00  0.00    -0.290 NA
HETATM    6  C20 UNL     1      20.898  -1.183  53.871  1.00  0.00     0.183 C 
ENDROOT
BRANCH   4   7
HETATM    7  C12 UNL     1      17.258  -1.191  53.171  1.00  0.00     0.029 C 
HETATM    8  C13 UNL     1      16.637  -1.934  52.293  1.00  0.00     0.036 C 
BRANCH   8   9
HETATM    9  C14 UNL     1      15.227  -2.267  52.438  1.00  0.00     0.089 A 
HETATM   10  N2  UNL     1      14.244  -1.391  52.165  1.00  0.00    -0.241 NA
HETATM   11  C15 UNL     1      13.075  -2.025  52.407  1.00  0.00     0.215 A 
HETATM   12  N3  UNL     1      13.382  -3.279  52.824  1.00  0.00    -0.310 N 
HETATM   13  C16 UNL     1      12.525  -4.254  53.173  1.00  0.00     0.117 A 
HETATM   14  C19 UNL     1      14.709  -3.475  52.858  1.00  0.00     0.114 A 
HETATM   15  C17 UNL     1      13.063  -5.467  53.571  1.00  0.00     0.136 A 
HETATM   16  N4  UNL     1      14.405  -5.650  53.601  1.00  0.00    -0.240 NA
HETATM   17  C18 UNL     1      15.243  -4.673  53.251  1.00  0.00     0.150 A 
BRANCH  17  18
HETATM   18  N5  UNL     1      16.665  -4.823  53.269  1.00  0.00    -0.382 N 
HETATM   19  H21 UNL     1      16.970  -5.312  54.141  1.00  0.00     0.157 HD
HETATM   20  H22 UNL     1      16.869  -4.364  52.358  1.00  0.00     0.157 HD
ENDBRANCH  17  18
ENDBRANCH   8   9
ENDBRANCH   4   7
BRANCH   1  21
HETATM   21  C7  UNL     1      22.601   0.631  53.348  1.00  0.00     0.016 C 
HETATM   22  C6  UNL     1      22.918   1.779  52.456  1.00  0.00     0.009 C 
HETATM   23  C5  UNL     1      24.272   2.365  52.809  1.00  0.00     0.007 C 
HETATM   24  C4  UNL     1      25.345   1.376  53.035  1.00  0.00     0.003 C 
HETATM   25  C22 UNL     1      24.914   0.124  53.786  1.00  0.00     0.007 C 
HETATM   26  C21 UNL     1      23.690  -0.421  53.086  1.00  0.00     0.009 C 
BRANCH  24  27
HETATM   27  C3  UNL     1      26.519   1.920  53.783  1.00  0.00     0.127 C 
BRANCH  27  28
HETATM   28  N1  UNL     1      27.783   1.290  53.590  1.00  0.00    -0.361 N 
HETATM   29  C2  UNL     1      28.629   0.277  54.074  1.00  0.00     0.213 C 
HETATM   30  C1  UNL     1      29.966  -0.113  53.599  1.00  0.00     0.117 C 
HETATM   31  O1  UNL     1      28.186  -0.382  55.040  1.00  0.00    -0.274 OA
HETATM   32  H4  UNL     1      28.322   1.733  52.770  1.00  0.00     0.162 HD
ENDBRANCH  27  28
ENDBRANCH  24  27
ENDBRANCH   1  21
TORSDOF 6
ENDMDL
MODEL 9
REMARK VINA RESULT:      -8.0      3.849     10.811
REMARK  6 active torsions:
REMARK  status: ('A' for Active; 'I' for Inactive)
REMARK       I    between atoms: C2_2  and  N1_4 
REMARK    1  A    between atoms: N1_4  and  C3_5 
REMARK    2  A    between atoms: C3_5  and  C4_6 
REMARK    3  A    between atoms: C7_9  and  C8_10 
REMARK    4  A    between atoms: C11_13  and  C12_14 
REMARK    5  A    between atoms: C13_15  and  C14_16 
REMARK    6  A    between atoms: C18_23  and  N5_24 
ROOT
HETATM    1  C8  UNL     1      27.570   6.282  48.335  1.00  0.00    -0.059 C 
HETATM    2  C9  UNL     1      26.300   6.649  48.479  1.00  0.00    -0.016 C 
HETATM    3  C10 UNL     1      25.202   5.719  48.864  1.00  0.00     0.086 C 
HETATM    4  C11 UNL     1      25.813   4.500  49.465  1.00  0.00     0.032 C 
HETATM    5  N6  UNL     1      27.027   4.126  49.336  1.00  0.00    -0.290 NA
HETATM    6  C20 UNL     1      27.997   4.872  48.557  1.00  0.00     0.183 C 
ENDROOT
BRANCH   4   7
HETATM    7  C12 UNL     1      24.972   3.617  50.294  1.00  0.00     0.029 C 
HETATM    8  C13 UNL     1      25.467   2.546  50.858  1.00  0.00     0.036 C 
BRANCH   8   9
HETATM    9  C14 UNL     1      24.644   1.667  51.677  1.00  0.00     0.089 A 
HETATM   10  N2  UNL     1      23.315   1.558  51.511  1.00  0.00    -0.241 NA
HETATM   11  C15 UNL     1      22.877   0.667  52.429  1.00  0.00     0.215 A 
HETATM   12  N3  UNL     1      23.962   0.256  53.133  1.00  0.00    -0.310 N 
HETATM   13  C16 UNL     1      23.989  -0.629  54.144  1.00  0.00     0.117 A 
HETATM   14  C19 UNL     1      25.084   0.851  52.699  1.00  0.00     0.114 A 
HETATM   15  C17 UNL     1      25.218  -0.902  54.722  1.00  0.00     0.136 A 
HETATM   16  N4  UNL     1      26.342  -0.293  54.275  1.00  0.00    -0.240 NA
HETATM   17  C18 UNL     1      26.299   0.584  53.269  1.00  0.00     0.150 A 
BRANCH  17  18
HETATM   18  N5  UNL     1      27.460   1.249  52.766  1.00  0.00    -0.382 N 
HETATM   19  H21 UNL     1      27.378   2.282  52.905  1.00  0.00     0.157 HD
HETATM   20  H22 UNL     1      27.975   0.408  52.434  1.00  0.00     0.157 HD
ENDBRANCH  17  18
ENDBRANCH   8   9
ENDBRANCH   4   7
BRANCH   1  21
HETATM   21  C7  UNL     1      28.586   7.269  47.951  1.00  0.00     0.016 C 
HETATM   22  C6  UNL     1      28.514   7.683  46.523  1.00  0.00     0.009 C 
HETATM   23  C5  UNL     1      29.561   8.740  46.224  1.00  0.00     0.007 C 
HETATM   24  C4  UNL     1      30.903   8.468  46.776  1.00  0.00     0.003 C 
HETATM   25  C22 UNL     1      30.911   7.858  48.171  1.00  0.00     0.007 C 
HETATM   26  C21 UNL     1      29.985   6.663  48.144  1.00  0.00     0.009 C 
BRANCH  24  27
HETATM   27  C3  UNL     1      31.781   9.675  46.851  1.00  0.00     0.127 C 
BRANCH  27  28
HETATM   28  N1  UNL     1      31.464  10.670  47.821  1.00  0.00    -0.361 N 
HETATM   29  C2  UNL     1      30.636  11.777  48.079  1.00  0.00     0.213 C 
HETATM   30  C1  UNL     1      30.587  12.634  49.275  1.00  0.00     0.117 C 
HETATM   31  O1  UNL     1      29.830  12.074  47.169  1.00  0.00    -0.274 OA
HETATM   32  H4  UNL     1      32.070  10.566  48.704  1.00  0.00     0.162 HD
ENDBRANCH  27  28
ENDBRANCH  24  27
ENDBRANCH   1  21
TORSDOF 6
ENDMDL
