MODEL 1
REMARK VINA RESULT:      -7.6      0.000      0.000
REMARK  5 active torsions:
REMARK  status: ('A' for Active; 'I' for Inactive)
REMARK    1  A    between atoms: C2_2  and  C3_3 
REMARK    2  A    between atoms: N1_6  and  C6_7 
REMARK    3  A    between atoms: C10_13  and  C11_14 
REMARK    4  A    between atoms: C11_14  and  C13_16 
REMARK    5  A    between atoms: C13_16  and  O1_17 
ROOT
HETATM    1  C6  UNL     1      24.603   3.298  50.591  1.00  0.00     0.113 C 
HETATM    2  N2  UNL     1      23.851   4.382  50.795  1.00  0.00    -0.228 NA
HETATM    3  C7  UNL     1      24.308   5.639  50.277  1.00  0.00     0.234 C 
HETATM    4  N3  UNL     1      25.100   6.551  50.650  1.00  0.00    -0.257 NA
HETATM    5  C8  UNL     1      25.488   7.754  50.055  1.00  0.00     0.101 C 
HETATM    6  C9  UNL     1      26.402   7.060  49.407  1.00  0.00     0.070 C 
HETATM    7  C10 UNL     1      27.494   6.969  48.478  1.00  0.00    -0.042 C 
HETATM    8  C15 UNL     1      27.851   5.668  48.422  1.00  0.00     0.138 C 
HETATM    9  O2  UNL     1      27.714   4.278  48.808  1.00  0.00    -0.362 OA
HETATM   10  C16 UNL     1      26.501   4.135  49.485  1.00  0.00     0.182 C 
HETATM   11  C17 UNL     1      25.931   2.862  49.921  1.00  0.00     0.105 C 
ENDROOT
BRANCH   1  12
HETATM   12  N1  UNL     1      23.845   2.278  51.230  1.00  0.00    -0.315 N 
HETATM   13  C5  UNL     1      22.725   1.756  50.524  1.00  0.00     0.095 A 
HETATM   14  C4  UNL     1      22.050   0.813  51.152  1.00  0.00     0.003 A 
HETATM   15  C3  UNL     1      22.307   0.232  52.490  1.00  0.00     0.056 A 
HETATM   16  C20 UNL     1      23.504   0.903  53.054  1.00  0.00     0.011 A 
HETATM   17  C18 UNL     1      24.256   1.852  52.524  1.00  0.00     0.011 A 
HETATM   18  C19 UNL     1      25.417   2.398  53.248  1.00  0.00     0.068 C 
BRANCH  15  19
HETATM   19  C2  UNL     1      21.130   0.364  53.392  1.00  0.00    -0.024 C 
HETATM   20  C1  UNL     1      21.107   0.004  54.673  1.00  0.00     0.008 C 
ENDBRANCH  15  19
ENDBRANCH   1  12
BRANCH   7  21
HETATM   21  C11 UNL     1      28.348   7.828  47.569  1.00  0.00     0.037 C 
HETATM   22  C12 UNL     1      29.556   7.108  47.118  1.00  0.00     0.017 C 
BRANCH  21  23
HETATM   23  C13 UNL     1      28.680   9.112  48.244  1.00  0.00     0.175 C 
BRANCH  23  24
HETATM   24  O1  UNL     1      29.502   8.923  49.331  1.00  0.00    -0.395 OA
HETATM   25  C14 UNL     1      30.493   9.875  49.470  1.00  0.00     0.201 C 
ENDBRANCH  23  24
ENDBRANCH  21  23
ENDBRANCH   7  21
TORSDOF 5
ENDMDL
MODEL 2
REMARK VINA RESULT:      -7.3      0.754      1.583
REMARK  5 active torsions:
REMARK  status: ('A' for Active; 'I' for Inactive)
REMARK    1  A    between atoms: C2_2  and  C3_3 
REMARK    2  A    between atoms: N1_6  and  C6_7 
REMARK    3  A    between atoms: C10_13  and  C11_14 
REMARK    4  A    between atoms: C11_14  and  C13_16 
REMARK    5  A    between atoms: C13_16  and  O1_17 
ROOT
HETATM    1  C6  UNL     1      24.766   3.734  50.458  1.00  0.00     0.113 C 
HETATM    2  N2  UNL     1      24.088   4.875  50.613  1.00  0.00    -0.228 NA
HETATM    3  C7  UNL     1      24.637   6.077  50.058  1.00  0.00     0.234 C 
HETATM    4  N3  UNL     1      25.486   6.946  50.410  1.00  0.00    -0.257 NA
HETATM    5  C8  UNL     1      25.963   8.097  49.778  1.00  0.00     0.101 C 
HETATM    6  C9  UNL     1      26.833   7.319  49.167  1.00  0.00     0.070 C 
HETATM    7  C10 UNL     1      27.927   7.120  48.257  1.00  0.00    -0.042 C 
HETATM    8  C15 UNL     1      28.193   5.797  48.251  1.00  0.00     0.138 C 
HETATM    9  O2  UNL     1      27.956   4.434  48.684  1.00  0.00    -0.362 OA
HETATM   10  C16 UNL     1      26.729   4.399  49.349  1.00  0.00     0.182 C 
HETATM   11  C17 UNL     1      26.068   3.184  49.822  1.00  0.00     0.105 C 
ENDROOT
BRANCH   1  12
HETATM   12  N1  UNL     1      23.932   2.793  51.122  1.00  0.00    -0.315 N 
HETATM   13  C5  UNL     1      24.160   2.584  52.511  1.00  0.00     0.095 A 
HETATM   14  C4  UNL     1      23.366   1.703  53.089  1.00  0.00     0.003 A 
HETATM   15  C3  UNL     1      22.274   0.909  52.479  1.00  0.00     0.056 A 
HETATM   16  C20 UNL     1      22.198   1.270  51.041  1.00  0.00     0.011 A 
HETATM   17  C18 UNL     1      22.933   2.129  50.357  1.00  0.00     0.011 A 
HETATM   18  C19 UNL     1      22.704   2.352  48.918  1.00  0.00     0.068 C 
BRANCH  15  19
HETATM   19  C2  UNL     1      22.474  -0.554  52.666  1.00  0.00    -0.024 C 
HETATM   20  C1  UNL     1      22.034  -1.257  53.706  1.00  0.00     0.008 C 
ENDBRANCH  15  19
ENDBRANCH   1  12
BRANCH   7  21
HETATM   21  C11 UNL     1      28.848   7.885  47.330  1.00  0.00     0.037 C 
HETATM   22  C12 UNL     1      30.076   7.121  47.032  1.00  0.00     0.017 C 
BRANCH  21  23
HETATM   23  C13 UNL     1      29.148   9.226  47.900  1.00  0.00     0.175 C 
BRANCH  23  24
HETATM   24  O1  UNL     1      29.533   9.149  49.219  1.00  0.00    -0.395 OA
HETATM   25  C14 UNL     1      30.676   9.863  49.523  1.00  0.00     0.201 C 
ENDBRANCH  23  24
ENDBRANCH  21  23
ENDBRANCH   7  21
TORSDOF 5
ENDMDL
MODEL 3
REMARK VINA RESULT:      -7.3      5.413      8.184
REMARK  5 active torsions:
REMARK  status: ('A' for Active; 'I' for Inactive)
REMARK    1  A    between atoms: C2_2  and  C3_3 
REMARK    2  A    between atoms: N1_6  and  C6_7 
REMARK    3  A    between atoms: C10_13  and  C11_14 
REMARK    4  A    between atoms: C11_14  and  C13_16 
REMARK    5  A    between atoms: C13_16  and  O1_17 
ROOT
HETATM    1  C6  UNL     1      24.939   1.403  53.206  1.00  0.00     0.113 C 
HETATM    2  N2  UNL     1      24.774   2.718  53.373  1.00  0.00    -0.228 NA
HETATM    3  C7  UNL     1      23.483   3.284  53.111  1.00  0.00     0.234 C 
HETATM    4  N3  UNL     1      22.849   3.690  52.096  1.00  0.00    -0.257 NA
HETATM    5  C8  UNL     1      21.567   4.226  51.946  1.00  0.00     0.101 C 
HETATM    6  C9  UNL     1      21.130   2.985  51.872  1.00  0.00     0.070 C 
HETATM    7  C10 UNL     1      20.070   2.026  51.722  1.00  0.00    -0.042 C 
HETATM    8  C15 UNL     1      20.638   0.804  51.789  1.00  0.00     0.138 C 
HETATM    9  O2  UNL     1      21.776  -0.081  51.937  1.00  0.00    -0.362 OA
HETATM   10  C16 UNL     1      22.857   0.679  52.392  1.00  0.00     0.182 C 
HETATM   11  C17 UNL     1      24.153   0.134  52.792  1.00  0.00     0.105 C 
ENDROOT
BRANCH   1  12
HETATM   12  N1  UNL     1      26.308   1.223  53.551  1.00  0.00    -0.315 N 
HETATM   13  C5  UNL     1      27.269   1.987  52.832  1.00  0.00     0.095 A 
HETATM   14  C4  UNL     1      28.526   1.790  53.182  1.00  0.00     0.003 A 
HETATM   15  C3  UNL     1      29.059   0.880  54.223  1.00  0.00     0.056 A 
HETATM   16  C20 UNL     1      27.909   0.184  54.851  1.00  0.00     0.011 A 
HETATM   17  C18 UNL     1      26.619   0.298  54.586  1.00  0.00     0.011 A 
HETATM   18  C19 UNL     1      25.616  -0.489  55.326  1.00  0.00     0.068 C 
BRANCH  15  19
HETATM   19  C2  UNL     1      30.047  -0.085  53.669  1.00  0.00    -0.024 C 
HETATM   20  C1  UNL     1      29.786  -1.354  53.367  1.00  0.00     0.008 C 
ENDBRANCH  15  19
ENDBRANCH   1  12
BRANCH   7  21
HETATM   21  C11 UNL     1      18.571   1.943  51.522  1.00  0.00     0.037 C 
HETATM   22  C12 UNL     1      18.201   0.801  50.662  1.00  0.00     0.017 C 
BRANCH  21  23
HETATM   23  C13 UNL     1      18.054   3.234  50.992  1.00  0.00     0.175 C 
BRANCH  23  24
HETATM   24  O1  UNL     1      17.495   4.008  51.983  1.00  0.00    -0.395 OA
HETATM   25  C14 UNL     1      16.127   3.866  52.115  1.00  0.00     0.201 C 
ENDBRANCH  23  24
ENDBRANCH  21  23
ENDBRANCH   7  21
TORSDOF 5
ENDMDL
MODEL 4
REMARK VINA RESULT:      -7.2      5.921      9.597
REMARK  5 active torsions:
REMARK  status: ('A' for Active; 'I' for Inactive)
REMARK    1  A    between atoms: C2_2  and  C3_3 
REMARK    2  A    between atoms: N1_6  and  C6_7 
REMARK    3  A    between atoms: C10_13  and  C11_14 
REMARK    4  A    between atoms: C11_14  and  C13_16 
REMARK    5  A    between atoms: C13_16  and  O1_17 
ROOT
HETATM    1  C6  UNL     1      23.601   0.564  52.631  1.00  0.00     0.113 C 
HETATM    2  N2  UNL     1      23.292   1.310  51.567  1.00  0.00    -0.228 NA
HETATM    3  C7  UNL     1      21.917   1.399  51.169  1.00  0.00     0.234 C 
HETATM    4  N3  UNL     1      21.117   0.708  50.477  1.00  0.00    -0.257 NA
HETATM    5  C8  UNL     1      19.769   0.883  50.153  1.00  0.00     0.101 C 
HETATM    6  C9  UNL     1      19.487   0.285  51.292  1.00  0.00     0.070 C 
HETATM    7  C10 UNL     1      18.547  -0.220  52.255  1.00  0.00    -0.042 C 
HETATM    8  C15 UNL     1      19.269  -0.737  53.271  1.00  0.00     0.138 C 
HETATM    9  O2  UNL     1      20.520  -1.061  53.927  1.00  0.00    -0.362 OA
HETATM   10  C16 UNL     1      21.543  -0.374  53.270  1.00  0.00     0.182 C 
HETATM   11  C17 UNL     1      22.936  -0.331  53.708  1.00  0.00     0.105 C 
ENDROOT
BRANCH   1  12
HETATM   12  N1  UNL     1      25.013   0.719  52.710  1.00  0.00    -0.315 N 
HETATM   13  C5  UNL     1      25.814  -0.391  52.320  1.00  0.00     0.095 A 
HETATM   14  C4  UNL     1      27.118  -0.207  52.409  1.00  0.00     0.003 A 
HETATM   15  C3  UNL     1      27.847   1.001  52.860  1.00  0.00     0.056 A 
HETATM   16  C20 UNL     1      26.843   2.032  53.218  1.00  0.00     0.011 A 
HETATM   17  C18 UNL     1      25.524   1.964  53.171  1.00  0.00     0.011 A 
HETATM   18  C19 UNL     1      24.686   3.107  53.573  1.00  0.00     0.068 C 
BRANCH  15  19
HETATM   19  C2  UNL     1      28.761   0.708  53.999  1.00  0.00    -0.024 C 
HETATM   20  C1  UNL     1      29.458  -0.415  54.147  1.00  0.00     0.008 C 
ENDBRANCH  15  19
ENDBRANCH   1  12
BRANCH   7  21
HETATM   21  C11 UNL     1      17.058  -0.355  52.493  1.00  0.00     0.037 C 
HETATM   22  C12 UNL     1      16.662  -1.767  52.672  1.00  0.00     0.017 C 
BRANCH  21  23
HETATM   23  C13 UNL     1      16.302   0.302  51.393  1.00  0.00     0.175 C 
BRANCH  23  24
HETATM   24  O1  UNL     1      15.750   1.499  51.792  1.00  0.00    -0.395 OA
HETATM   25  C14 UNL     1      14.728   1.377  52.713  1.00  0.00     0.201 C 
ENDBRANCH  23  24
ENDBRANCH  21  23
ENDBRANCH   7  21
TORSDOF 5
ENDMDL
MODEL 5
REMARK VINA RESULT:      -7.0      2.019      2.732
REMARK  5 active torsions:
REMARK  status: ('A' for Active; 'I' for Inactive)
REMARK    1  A    between atoms: C2_2  and  C3_3 
REMARK    2  A    between atoms: N1_6  and  C6_7 
REMARK    3  A    between atoms: C10_13  and  C11_14 
REMARK    4  A    between atoms: C11_14  and  C13_16 
REMARK    5  A    between atoms: C13_16  and  O1_17 
ROOT
HETATM    1  C6  UNL     1      24.497   2.992  51.532  1.00  0.00     0.113 C 
HETATM    2  N2  UNL     1      25.623   2.550  50.967  1.00  0.00    -0.228 NA
HETATM    3  C7  UNL     1      26.474   3.495  50.306  1.00  0.00     0.234 C 
HETATM    4  N3  UNL     1      26.531   4.036  49.164  1.00  0.00    -0.257 NA
HETATM    5  C8  UNL     1      27.413   4.969  48.614  1.00  0.00     0.101 C 
HETATM    6  C9  UNL     1      26.653   5.902  49.151  1.00  0.00     0.070 C 
HETATM    7  C10 UNL     1      26.338   7.281  49.407  1.00  0.00    -0.042 C 
HETATM    8  C15 UNL     1      25.223   7.291  50.167  1.00  0.00     0.138 C 
HETATM    9  O2  UNL     1      24.146   6.635  50.882  1.00  0.00    -0.362 OA
HETATM   10  C16 UNL     1      24.463   5.279  50.990  1.00  0.00     0.182 C 
HETATM   11  C17 UNL     1      23.696   4.300  51.758  1.00  0.00     0.105 C 
ENDROOT
BRANCH   1  12
HETATM   12  N1  UNL     1      23.939   1.800  52.072  1.00  0.00    -0.315 N 
HETATM   13  C5  UNL     1      22.742   1.312  51.477  1.00  0.00     0.095 A 
HETATM   14  C4  UNL     1      22.258   0.204  52.007  1.00  0.00     0.003 A 
HETATM   15  C3  UNL     1      22.798  -0.589  53.135  1.00  0.00     0.056 A 
HETATM   16  C20 UNL     1      24.035   0.080  53.609  1.00  0.00     0.011 A 
HETATM   17  C18 UNL     1      24.611   1.182  53.162  1.00  0.00     0.011 A 
HETATM   18  C19 UNL     1      25.851   1.696  53.772  1.00  0.00     0.068 C 
BRANCH  15  19
HETATM   19  C2  UNL     1      21.805  -0.747  54.233  1.00  0.00    -0.024 C 
HETATM   20  C1  UNL     1      20.883   0.154  54.562  1.00  0.00     0.008 C 
ENDBRANCH  15  19
ENDBRANCH   1  12
BRANCH   7  21
HETATM   21  C11 UNL     1      26.834   8.681  49.113  1.00  0.00     0.037 C 
HETATM   22  C12 UNL     1      27.458   9.297  50.302  1.00  0.00     0.017 C 
BRANCH  21  23
HETATM   23  C13 UNL     1      25.727   9.512  48.569  1.00  0.00     0.175 C 
BRANCH  23  24
HETATM   24  O1  UNL     1      26.190  10.495  47.724  1.00  0.00    -0.395 OA
HETATM   25  C14 UNL     1      25.708  11.760  48.001  1.00  0.00     0.201 C 
ENDBRANCH  23  24
ENDBRANCH  21  23
ENDBRANCH   7  21
TORSDOF 5
ENDMDL
MODEL 6
REMARK VINA RESULT:      -7.0      3.955      5.897
REMARK  5 active torsions:
REMARK  status: ('A' for Active; 'I' for Inactive)
REMARK    1  A    between atoms: C2_2  and  C3_3 
REMARK    2  A    between atoms: N1_6  and  C6_7 
REMARK    3  A    between atoms: C10_13  and  C11_14 
REMARK    4  A    between atoms: C11_14  and  C13_16 
REMARK    5  A    between atoms: C13_16  and  O1_17 
ROOT
HETATM    1  C6  UNL     1      25.759   2.516  52.470  1.00  0.00     0.113 C 
HETATM    2  N2  UNL     1      26.172   2.597  51.202  1.00  0.00    -0.228 NA
HETATM    3  C7  UNL     1      25.397   3.372  50.278  1.00  0.00     0.234 C 
HETATM    4  N3  UNL     1      24.372   3.187  49.561  1.00  0.00    -0.257 NA
HETATM    5  C8  UNL     1      23.679   4.028  48.686  1.00  0.00     0.101 C 
HETATM    6  C9  UNL     1      23.014   4.462  49.736  1.00  0.00     0.070 C 
HETATM    7  C10 UNL     1      22.016   5.302  50.341  1.00  0.00    -0.042 C 
HETATM    8  C15 UNL     1      22.039   5.043  51.665  1.00  0.00     0.138 C 
HETATM    9  O2  UNL     1      22.548   4.353  52.834  1.00  0.00    -0.362 OA
HETATM   10  C16 UNL     1      23.734   3.710  52.473  1.00  0.00     0.182 C 
HETATM   11  C17 UNL     1      24.624   3.015  53.400  1.00  0.00     0.105 C 
ENDROOT
BRANCH   1  12
HETATM   12  N1  UNL     1      26.754   1.689  53.061  1.00  0.00    -0.315 N 
HETATM   13  C5  UNL     1      28.029   2.274  53.305  1.00  0.00     0.095 A 
HETATM   14  C4  UNL     1      28.923   1.474  53.854  1.00  0.00     0.003 A 
HETATM   15  C3  UNL     1      28.768   0.054  54.246  1.00  0.00     0.056 A 
HETATM   16  C20 UNL     1      27.383  -0.362  53.914  1.00  0.00     0.011 A 
HETATM   17  C18 UNL     1      26.409   0.344  53.368  1.00  0.00     0.011 A 
HETATM   18  C19 UNL     1      25.086  -0.253  53.112  1.00  0.00     0.068 C 
BRANCH  15  19
HETATM   19  C2  UNL     1      29.776  -0.821  53.586  1.00  0.00    -0.024 C 
HETATM   20  C1  UNL     1      29.620  -2.122  53.354  1.00  0.00     0.008 C 
ENDBRANCH  15  19
ENDBRANCH   1  12
BRANCH   7  21
HETATM   21  C11 UNL     1      20.982   6.350  49.987  1.00  0.00     0.037 C 
HETATM   22  C12 UNL     1      20.559   6.241  48.577  1.00  0.00     0.017 C 
BRANCH  21  23
HETATM   23  C13 UNL     1      21.497   7.707  50.314  1.00  0.00     0.175 C 
BRANCH  23  24
HETATM   24  O1  UNL     1      22.172   8.269  49.254  1.00  0.00    -0.395 OA
HETATM   25  C14 UNL     1      23.526   8.440  49.465  1.00  0.00     0.201 C 
ENDBRANCH  23  24
ENDBRANCH  21  23
ENDBRANCH   7  21
TORSDOF 5
ENDMDL
MODEL 7
REMARK VINA RESULT:      -7.0      3.101      7.626
REMARK  5 active torsions:
REMARK  status: ('A' for Active; 'I' for Inactive)
REMARK    1  A    between atoms: C2_2  and  C3_3 
REMARK    2  A    between atoms: N1_6  and  C6_7 
REMARK    3  A    between atoms: C10_13  and  C11_14 
REMARK    4  A    between atoms: C11_14  and  C13_16 
REMARK    5  A    between atoms: C13_16  and  O1_17 
ROOT
HETATM    1  C6  UNL     1      24.290   4.545  49.871  1.00  0.00     0.113 C 
HETATM    2  N2  UNL     1      23.158   4.262  50.521  1.00  0.00    -0.228 NA
HETATM    3  C7  UNL     1      23.169   3.199  51.483  1.00  0.00     0.234 C 
HETATM    4  N3  UNL     1      23.056   1.940  51.461  1.00  0.00    -0.257 NA
HETATM    5  C8  UNL     1      23.091   0.980  52.475  1.00  0.00     0.101 C 
HETATM    6  C9  UNL     1      24.402   0.985  52.341  1.00  0.00     0.070 C 
HETATM    7  C10 UNL     1      25.710   0.515  52.707  1.00  0.00    -0.042 C 
HETATM    8  C15 UNL     1      26.594   1.185  51.938  1.00  0.00     0.138 C 
HETATM    9  O2  UNL     1      26.935   2.151  50.913  1.00  0.00    -0.362 OA
HETATM   10  C16 UNL     1      25.801   2.923  50.652  1.00  0.00     0.182 C 
HETATM   11  C17 UNL     1      25.769   4.093  49.777  1.00  0.00     0.105 C 
ENDROOT
BRANCH   1  12
HETATM   12  N1  UNL     1      23.895   5.622  49.029  1.00  0.00    -0.315 N 
HETATM   13  C5  UNL     1      23.091   5.306  47.898  1.00  0.00     0.095 A 
HETATM   14  C4  UNL     1      22.748   6.332  47.144  1.00  0.00     0.003 A 
HETATM   15  C3  UNL     1      23.091   7.762  47.324  1.00  0.00     0.056 A 
HETATM   16  C20 UNL     1      23.924   7.879  48.546  1.00  0.00     0.011 A 
HETATM   17  C18 UNL     1      24.329   6.932  49.373  1.00  0.00     0.011 A 
HETATM   18  C19 UNL     1      25.162   7.249  50.547  1.00  0.00     0.068 C 
BRANCH  15  19
HETATM   19  C2  UNL     1      23.784   8.324  46.132  1.00  0.00    -0.024 C 
HETATM   20  C1  UNL     1      23.825   7.750  44.933  1.00  0.00     0.008 C 
ENDBRANCH  15  19
ENDBRANCH   1  12
BRANCH   7  21
HETATM   21  C11 UNL     1      26.398  -0.453  53.646  1.00  0.00     0.037 C 
HETATM   22  C12 UNL     1      26.594   0.136  54.986  1.00  0.00     0.017 C 
BRANCH  21  23
HETATM   23  C13 UNL     1      27.678  -0.922  53.049  1.00  0.00     0.175 C 
BRANCH  23  24
HETATM   24  O1  UNL     1      28.635  -1.163  54.009  1.00  0.00    -0.395 OA
HETATM   25  C14 UNL     1      29.922  -0.843  53.625  1.00  0.00     0.201 C 
ENDBRANCH  23  24
ENDBRANCH  21  23
ENDBRANCH   7  21
TORSDOF 5
ENDMDL
MODEL 8
REMARK VINA RESULT:      -6.7      1.904      2.537
REMARK  5 active torsions:
REMARK  status: ('A' for Active; 'I' for Inactive)
REMARK    1  A    between atoms: C2_2  and  C3_3 
REMARK    2  A    between atoms: N1_6  and  C6_7 
REMARK    3  A    between atoms: C10_13  and  C11_14 
REMARK    4  A    between atoms: C11_14  and  C13_16 
REMARK    5  A    between atoms: C13_16  and  O1_17 
ROOT
HETATM    1  C6  UNL     1      24.315   3.139  51.251  1.00  0.00     0.113 C 
HETATM    2  N2  UNL     1      23.394   4.009  51.672  1.00  0.00    -0.228 NA
HETATM    3  C7  UNL     1      23.461   5.360  51.197  1.00  0.00     0.234 C 
HETATM    4  N3  UNL     1      24.088   6.412  51.510  1.00  0.00    -0.257 NA
HETATM    5  C8  UNL     1      24.087   7.699  50.965  1.00  0.00     0.101 C 
HETATM    6  C9  UNL     1      24.995   7.267  50.115  1.00  0.00     0.070 C 
HETATM    7  C10 UNL     1      25.892   7.475  49.011  1.00  0.00    -0.042 C 
HETATM    8  C15 UNL     1      26.508   6.296  48.782  1.00  0.00     0.138 C 
HETATM    9  O2  UNL     1      26.754   4.896  49.064  1.00  0.00    -0.362 OA
HETATM   10  C16 UNL     1      25.746   4.444  49.919  1.00  0.00     0.182 C 
HETATM   11  C17 UNL     1      25.561   3.055  50.332  1.00  0.00     0.105 C 
ENDROOT
BRANCH   1  12
HETATM   12  N1  UNL     1      23.930   1.943  51.917  1.00  0.00    -0.315 N 
HETATM   13  C5  UNL     1      22.765   1.277  51.443  1.00  0.00     0.095 A 
HETATM   14  C4  UNL     1      22.442   0.172  52.088  1.00  0.00     0.003 A 
HETATM   15  C3  UNL     1      23.134  -0.458  53.236  1.00  0.00     0.056 A 
HETATM   16  C20 UNL     1      24.311   0.380  53.574  1.00  0.00     0.011 A 
HETATM   17  C18 UNL     1      24.731   1.496  53.005  1.00  0.00     0.011 A 
HETATM   18  C19 UNL     1      25.936   2.193  53.489  1.00  0.00     0.068 C 
BRANCH  15  19
HETATM   19  C2  UNL     1      22.231  -0.631  54.407  1.00  0.00    -0.024 C 
HETATM   20  C1  UNL     1      20.951  -0.986  54.336  1.00  0.00     0.008 C 
ENDBRANCH  15  19
ENDBRANCH   1  12
BRANCH   7  21
HETATM   21  C11 UNL     1      26.354   8.550  48.050  1.00  0.00     0.037 C 
HETATM   22  C12 UNL     1      25.788   9.869  48.398  1.00  0.00     0.017 C 
BRANCH  21  23
HETATM   23  C13 UNL     1      26.037   8.156  46.651  1.00  0.00     0.175 C 
BRANCH  23  24
HETATM   24  O1  UNL     1      24.680   8.136  46.418  1.00  0.00    -0.395 OA
HETATM   25  C14 UNL     1      24.329   8.164  45.083  1.00  0.00     0.201 C 
ENDBRANCH  23  24
ENDBRANCH  21  23
ENDBRANCH   7  21
TORSDOF 5
ENDMDL
MODEL 9
REMARK VINA RESULT:      -6.7      6.092      9.482
REMARK  5 active torsions:
REMARK  status: ('A' for Active; 'I' for Inactive)
REMARK    1  A    between atoms: C2_2  and  C3_3 
REMARK    2  A    between atoms: N1_6  and  C6_7 
REMARK    3  A    between atoms: C10_13  and  C11_14 
REMARK    4  A    between atoms: C11_14  and  C13_16 
REMARK    5  A    between atoms: C13_16  and  O1_17 
ROOT
HETATM    1  C6  UNL     1      21.591   1.114  52.181  1.00  0.00     0.113 C 
HETATM    2  N2  UNL     1      21.436   2.420  52.413  1.00  0.00    -0.228 NA
HETATM    3  C7  UNL     1      20.119   2.981  52.315  1.00  0.00     0.234 C 
HETATM    4  N3  UNL     1      19.375   3.416  51.391  1.00  0.00    -0.257 NA
HETATM    5  C8  UNL     1      18.080   3.942  51.402  1.00  0.00     0.101 C 
HETATM    6  C9  UNL     1      17.647   2.700  51.330  1.00  0.00     0.070 C 
HETATM    7  C10 UNL     1      16.584   1.736  51.262  1.00  0.00    -0.042 C 
HETATM    8  C15 UNL     1      17.164   0.518  51.222  1.00  0.00     0.138 C 
HETATM    9  O2  UNL     1      18.319  -0.358  51.211  1.00  0.00    -0.362 OA
HETATM   10  C16 UNL     1      19.437   0.396  51.573  1.00  0.00     0.182 C 
HETATM   11  C17 UNL     1      20.773  -0.148  51.808  1.00  0.00     0.105 C 
ENDROOT
BRANCH   1  12
HETATM   12  N1  UNL     1      22.990   0.937  52.367  1.00  0.00    -0.315 N 
HETATM   13  C5  UNL     1      23.860   1.632  51.481  1.00  0.00     0.095 A 
HETATM   14  C4  UNL     1      25.149   1.440  51.689  1.00  0.00     0.003 A 
HETATM   15  C3  UNL     1      25.800   0.599  52.720  1.00  0.00     0.056 A 
HETATM   16  C20 UNL     1      24.732  -0.033  53.533  1.00  0.00     0.011 A 
HETATM   17  C18 UNL     1      23.420   0.083  53.421  1.00  0.00     0.011 A 
HETATM   18  C19 UNL     1      22.511  -0.632  54.333  1.00  0.00     0.068 C 
BRANCH  15  19
HETATM   19  C2  UNL     1      26.706  -0.420  52.120  1.00  0.00    -0.024 C 
HETATM   20  C1  UNL     1      26.808  -1.682  52.527  1.00  0.00     0.008 C 
ENDBRANCH  15  19
ENDBRANCH   1  12
BRANCH   7  21
HETATM   21  C11 UNL     1      15.073   1.643  51.224  1.00  0.00     0.037 C 
HETATM   22  C12 UNL     1      14.511   2.397  50.085  1.00  0.00     0.017 C 
BRANCH  21  23
HETATM   23  C13 UNL     1      14.501   2.086  52.524  1.00  0.00     0.175 C 
BRANCH  23  24
HETATM   24  O1  UNL     1      14.144   3.415  52.502  1.00  0.00    -0.395 OA
HETATM   25  C14 UNL     1      14.837   4.207  53.396  1.00  0.00     0.201 C 
ENDBRANCH  23  24
ENDBRANCH  21  23
ENDBRANCH   7  21
TORSDOF 5
ENDMDL
