MODEL 1
REMARK VINA RESULT:      -7.1      0.000      0.000
REMARK  6 active torsions:
REMARK  status: ('A' for Active; 'I' for Inactive)
REMARK    1  A    between atoms: C2_3  and  C3_4 
REMARK    2  A    between atoms: C3_4  and  C4_5 
REMARK    3  A    between atoms: N2_11  and  C8_12 
REMARK    4  A    between atoms: N3_13  and  C9_14 
REMARK    5  A    between atoms: C9_14  and  N4_15 
REMARK    6  A    between atoms: N4_15  and  C10_16 
ROOT
HETATM    1  N1  UNL     1      24.016   3.239  52.918  1.00  0.00    -0.190 NA
HETATM    2  C1  UNL     1      24.867   3.076  52.151  1.00  0.00     0.115 C 
HETATM    3  C2  UNL     1      25.924   2.853  51.205  1.00  0.00     0.121 C 
HETATM    4  N2  UNL     1      27.130   2.526  51.527  1.00  0.00    -0.235 NA
ENDROOT
BRANCH   3   5
HETATM    5  C3  UNL     1      25.618   3.006  49.759  1.00  0.00     0.137 C 
BRANCH   5   6
HETATM    6  C4  UNL     1      26.268   4.302  49.354  1.00  0.00     0.074 C 
HETATM    7  C5  UNL     1      25.818   5.500  49.687  1.00  0.00     0.167 C 
HETATM    8  O1  UNL     1      26.454   6.652  49.288  1.00  0.00    -0.358 OA
HETATM    9  C6  UNL     1      27.574   6.663  48.448  1.00  0.00     0.201 C 
HETATM   10  C7  UNL     1      28.313   5.365  48.570  1.00  0.00     0.202 C 
HETATM   11  O2  UNL     1      27.410   4.277  48.584  1.00  0.00    -0.351 OA
ENDBRANCH   5   6
ENDBRANCH   3   5
BRANCH   4  12
HETATM   12  C8  UNL     1      27.536   2.351  52.883  1.00  0.00     0.229 C 
HETATM   13  N3  UNL     1      27.623   1.299  53.617  1.00  0.00    -0.263 NA
BRANCH  13  14
HETATM   14  C9  UNL     1      27.273  -0.014  53.088  1.00  0.00     0.272 C 
BRANCH  14  15
HETATM   15  N4  UNL     1      26.626  -0.800  54.096  1.00  0.00    -0.372 N 
HETATM   16  H11 UNL     1      27.186  -1.388  54.764  1.00  0.00     0.161 HD
BRANCH  15  17
HETATM   17  C10 UNL     1      25.211  -0.806  54.220  1.00  0.00     0.031 A 
HETATM   18  C11 UNL     1      24.605  -1.252  55.375  1.00  0.00     0.032 A 
HETATM   19  C12 UNL     1      23.238  -1.282  55.555  1.00  0.00     0.046 A 
HETATM   20  C13 UNL     1      22.420  -0.838  54.511  1.00  0.00     0.138 A 
HETATM   21  F1  UNL     1      21.074  -0.870  54.695  1.00  0.00    -0.204 F 
HETATM   22  C14 UNL     1      23.026  -0.392  53.356  1.00  0.00     0.074 A 
HETATM   23 CL1  UNL     1      21.964   0.158  52.066  1.00  0.00    -0.081 Cl
HETATM   24  C15 UNL     1      24.395  -0.371  53.198  1.00  0.00     0.056 A 
ENDBRANCH  15  17
ENDBRANCH  14  15
ENDBRANCH  13  14
ENDBRANCH   4  12
TORSDOF 6
ENDMDL
MODEL 2
REMARK VINA RESULT:      -6.9      3.463      5.530
REMARK  6 active torsions:
REMARK  status: ('A' for Active; 'I' for Inactive)
REMARK    1  A    between atoms: C2_3  and  C3_4 
REMARK    2  A    between atoms: C3_4  and  C4_5 
REMARK    3  A    between atoms: N2_11  and  C8_12 
REMARK    4  A    between atoms: N3_13  and  C9_14 
REMARK    5  A    between atoms: C9_14  and  N4_15 
REMARK    6  A    between atoms: N4_15  and  C10_16 
ROOT
HETATM    1  N1  UNL     1      26.768   2.732  50.625  1.00  0.00    -0.190 NA
HETATM    2  C1  UNL     1      25.979   2.308  51.357  1.00  0.00     0.115 C 
HETATM    3  C2  UNL     1      24.985   1.784  52.250  1.00  0.00     0.121 C 
HETATM    4  N2  UNL     1      23.993   2.466  52.714  1.00  0.00    -0.235 NA
ENDROOT
BRANCH   3   5
HETATM    5  C3  UNL     1      25.097   0.363  52.673  1.00  0.00     0.137 C 
BRANCH   5   6
HETATM    6  C4  UNL     1      26.442   0.255  53.339  1.00  0.00     0.074 C 
HETATM    7  C5  UNL     1      26.716   0.714  54.548  1.00  0.00     0.167 C 
HETATM    8  O1  UNL     1      27.966   0.588  55.107  1.00  0.00    -0.358 OA
HETATM    9  C6  UNL     1      29.060   0.035  54.431  1.00  0.00     0.201 C 
HETATM   10  C7  UNL     1      28.579  -0.909  53.372  1.00  0.00     0.202 C 
HETATM   11  O2  UNL     1      27.481  -0.357  52.673  1.00  0.00    -0.351 OA
ENDBRANCH   5   6
ENDBRANCH   3   5
BRANCH   4  12
HETATM   12  C8  UNL     1      23.786   3.836  52.375  1.00  0.00     0.229 C 
HETATM   13  N3  UNL     1      22.710   4.516  52.196  1.00  0.00    -0.263 NA
BRANCH  13  14
HETATM   14  C9  UNL     1      21.399   3.893  52.333  1.00  0.00     0.272 C 
BRANCH  14  15
HETATM   15  N4  UNL     1      21.330   2.700  51.545  1.00  0.00    -0.372 N 
HETATM   16  H11 UNL     1      21.827   2.634  50.620  1.00  0.00     0.161 HD
BRANCH  15  17
HETATM   17  C10 UNL     1      20.589   1.573  51.989  1.00  0.00     0.031 A 
HETATM   18  C11 UNL     1      19.314   1.336  51.521  1.00  0.00     0.032 A 
HETATM   19  C12 UNL     1      18.546   0.260  51.915  1.00  0.00     0.046 A 
HETATM   20  C13 UNL     1      19.086  -0.640  52.838  1.00  0.00     0.138 A 
HETATM   21  F1  UNL     1      18.324  -1.698  53.222  1.00  0.00    -0.204 F 
HETATM   22  C14 UNL     1      20.362  -0.404  53.306  1.00  0.00     0.074 A 
HETATM   23 CL1  UNL     1      21.006  -1.559  54.466  1.00  0.00    -0.081 Cl
HETATM   24  C15 UNL     1      21.111   0.679  52.899  1.00  0.00     0.056 A 
ENDBRANCH  15  17
ENDBRANCH  14  15
ENDBRANCH  13  14
ENDBRANCH   4  12
TORSDOF 6
ENDMDL
MODEL 3
REMARK VINA RESULT:      -6.9      3.698      5.831
REMARK  6 active torsions:
REMARK  status: ('A' for Active; 'I' for Inactive)
REMARK    1  A    between atoms: C2_3  and  C3_4 
REMARK    2  A    between atoms: C3_4  and  C4_5 
REMARK    3  A    between atoms: N2_11  and  C8_12 
REMARK    4  A    between atoms: N3_13  and  C9_14 
REMARK    5  A    between atoms: C9_14  and  N4_15 
REMARK    6  A    between atoms: N4_15  and  C10_16 
ROOT
HETATM    1  N1  UNL     1      21.797   4.057  48.689  1.00  0.00    -0.190 NA
HETATM    2  C1  UNL     1      22.240   4.243  49.741  1.00  0.00     0.115 C 
HETATM    3  C2  UNL     1      22.792   4.494  51.043  1.00  0.00     0.121 C 
HETATM    4  N2  UNL     1      24.006   4.875  51.256  1.00  0.00    -0.235 NA
ENDROOT
BRANCH   3   5
HETATM    5  C3  UNL     1      21.914   4.306  52.228  1.00  0.00     0.137 C 
BRANCH   5   6
HETATM    6  C4  UNL     1      21.830   2.817  52.423  1.00  0.00     0.074 C 
HETATM    7  C5  UNL     1      20.721   2.108  52.296  1.00  0.00     0.167 C 
HETATM    8  O1  UNL     1      20.703   0.745  52.488  1.00  0.00    -0.358 OA
HETATM    9  C6  UNL     1      21.822   0.010  52.897  1.00  0.00     0.201 C 
HETATM   10  C7  UNL     1      23.075   0.726  52.495  1.00  0.00     0.202 C 
HETATM   11  O2  UNL     1      22.964   2.111  52.758  1.00  0.00    -0.351 OA
ENDBRANCH   5   6
ENDBRANCH   3   5
BRANCH   4  12
HETATM   12  C8  UNL     1      24.935   5.086  50.195  1.00  0.00     0.229 C 
HETATM   13  N3  UNL     1      25.870   4.342  49.721  1.00  0.00    -0.263 NA
BRANCH  13  14
HETATM   14  C9  UNL     1      26.132   3.021  50.279  1.00  0.00     0.272 C 
BRANCH  14  15
HETATM   15  N4  UNL     1      26.548   3.131  51.645  1.00  0.00    -0.372 N 
HETATM   16  H11 UNL     1      26.385   4.016  52.189  1.00  0.00     0.161 HD
BRANCH  15  17
HETATM   17  C10 UNL     1      27.190   2.049  52.302  1.00  0.00     0.031 A 
HETATM   18  C11 UNL     1      28.236   2.271  53.172  1.00  0.00     0.032 A 
HETATM   19  C12 UNL     1      28.899   1.262  53.840  1.00  0.00     0.046 A 
HETATM   20  C13 UNL     1      28.491  -0.058  53.624  1.00  0.00     0.138 A 
HETATM   21  F1  UNL     1      29.148  -1.047  54.285  1.00  0.00    -0.204 F 
HETATM   22  C14 UNL     1      27.445  -0.281  52.754  1.00  0.00     0.074 A 
HETATM   23 CL1  UNL     1      26.961  -1.954  52.508  1.00  0.00    -0.081 Cl
HETATM   24  C15 UNL     1      26.797   0.744  52.097  1.00  0.00     0.056 A 
ENDBRANCH  15  17
ENDBRANCH  14  15
ENDBRANCH  13  14
ENDBRANCH   4  12
TORSDOF 6
ENDMDL
MODEL 4
REMARK VINA RESULT:      -6.8      3.598      4.909
REMARK  6 active torsions:
REMARK  status: ('A' for Active; 'I' for Inactive)
REMARK    1  A    between atoms: C2_3  and  C3_4 
REMARK    2  A    between atoms: C3_4  and  C4_5 
REMARK    3  A    between atoms: N2_11  and  C8_12 
REMARK    4  A    between atoms: N3_13  and  C9_14 
REMARK    5  A    between atoms: C9_14  and  N4_15 
REMARK    6  A    between atoms: N4_15  and  C10_16 
ROOT
HETATM    1  N1  UNL     1      20.154   3.288  52.443  1.00  0.00    -0.190 NA
HETATM    2  C1  UNL     1      20.745   2.432  51.938  1.00  0.00     0.115 C 
HETATM    3  C2  UNL     1      21.463   1.355  51.316  1.00  0.00     0.121 C 
HETATM    4  N2  UNL     1      21.866   0.297  51.934  1.00  0.00    -0.235 NA
ENDROOT
BRANCH   3   5
HETATM    5  C3  UNL     1      21.766   1.457  49.864  1.00  0.00     0.137 C 
BRANCH   5   6
HETATM    6  C4  UNL     1      22.924   2.414  49.770  1.00  0.00     0.074 C 
HETATM    7  C5  UNL     1      22.948   3.484  48.994  1.00  0.00     0.167 C 
HETATM    8  O1  UNL     1      24.036   4.325  48.948  1.00  0.00    -0.358 OA
HETATM    9  C6  UNL     1      25.222   4.089  49.653  1.00  0.00     0.201 C 
HETATM   10  C7  UNL     1      24.938   3.243  50.857  1.00  0.00     0.202 C 
HETATM   11  O2  UNL     1      24.051   2.192  50.530  1.00  0.00    -0.351 OA
ENDBRANCH   5   6
ENDBRANCH   3   5
BRANCH   4  12
HETATM   12  C8  UNL     1      21.631   0.092  53.326  1.00  0.00     0.229 C 
HETATM   13  N3  UNL     1      22.397  -0.337  54.265  1.00  0.00    -0.263 NA
BRANCH  13  14
HETATM   14  C9  UNL     1      23.778  -0.716  53.991  1.00  0.00     0.272 C 
BRANCH  14  15
HETATM   15  N4  UNL     1      24.522   0.417  53.528  1.00  0.00    -0.372 N 
HETATM   16  H11 UNL     1      24.032   1.281  53.183  1.00  0.00     0.161 HD
BRANCH  15  17
HETATM   17  C10 UNL     1      25.942   0.405  53.523  1.00  0.00     0.031 A 
HETATM   18  C11 UNL     1      26.660   1.568  53.707  1.00  0.00     0.032 A 
HETATM   19  C12 UNL     1      28.038   1.619  53.712  1.00  0.00     0.046 A 
HETATM   20  C13 UNL     1      28.749   0.430  53.519  1.00  0.00     0.138 A 
HETATM   21  F1  UNL     1      30.107   0.488  53.525  1.00  0.00    -0.204 F 
HETATM   22  C14 UNL     1      28.031  -0.733  53.334  1.00  0.00     0.074 A 
HETATM   23 CL1  UNL     1      28.961  -2.207  53.095  1.00  0.00    -0.081 Cl
HETATM   24  C15 UNL     1      26.653  -0.760  53.333  1.00  0.00     0.056 A 
ENDBRANCH  15  17
ENDBRANCH  14  15
ENDBRANCH  13  14
ENDBRANCH   4  12
TORSDOF 6
ENDMDL
MODEL 5
REMARK VINA RESULT:      -6.8      3.543      5.528
REMARK  6 active torsions:
REMARK  status: ('A' for Active; 'I' for Inactive)
REMARK    1  A    between atoms: C2_3  and  C3_4 
REMARK    2  A    between atoms: C3_4  and  C4_5 
REMARK    3  A    between atoms: N2_11  and  C8_12 
REMARK    4  A    between atoms: N3_13  and  C9_14 
REMARK    5  A    between atoms: C9_14  and  N4_15 
REMARK    6  A    between atoms: N4_15  and  C10_16 
ROOT
HETATM    1  N1  UNL     1      26.874   2.852  50.827  1.00  0.00    -0.190 NA
HETATM    2  C1  UNL     1      26.038   2.368  51.463  1.00  0.00     0.115 C 
HETATM    3  C2  UNL     1      24.986   1.770  52.237  1.00  0.00     0.121 C 
HETATM    4  N2  UNL     1      23.926   2.394  52.625  1.00  0.00    -0.235 NA
ENDROOT
BRANCH   3   5
HETATM    5  C3  UNL     1      25.119   0.340  52.619  1.00  0.00     0.137 C 
BRANCH   5   6
HETATM    6  C4  UNL     1      26.446   0.242  53.321  1.00  0.00     0.074 C 
HETATM    7  C5  UNL     1      26.679   0.683  54.545  1.00  0.00     0.167 C 
HETATM    8  O1  UNL     1      27.915   0.567  55.138  1.00  0.00    -0.358 OA
HETATM    9  C6  UNL     1      29.036   0.045  54.484  1.00  0.00     0.201 C 
HETATM   10  C7  UNL     1      28.601  -0.889  53.395  1.00  0.00     0.202 C 
HETATM   11  O2  UNL     1      27.514  -0.342  52.675  1.00  0.00    -0.351 OA
ENDBRANCH   5   6
ENDBRANCH   3   5
BRANCH   4  12
HETATM   12  C8  UNL     1      23.693   3.767  52.315  1.00  0.00     0.229 C 
HETATM   13  N3  UNL     1      22.604   4.440  52.194  1.00  0.00    -0.263 NA
BRANCH  13  14
HETATM   14  C9  UNL     1      21.306   3.804  52.383  1.00  0.00     0.272 C 
BRANCH  14  15
HETATM   15  N4  UNL     1      21.224   2.601  51.610  1.00  0.00    -0.372 N 
HETATM   16  H11 UNL     1      21.719   2.519  50.685  1.00  0.00     0.161 HD
BRANCH  15  17
HETATM   17  C10 UNL     1      20.473   1.487  52.070  1.00  0.00     0.031 A 
HETATM   18  C11 UNL     1      20.892   0.756  53.162  1.00  0.00     0.032 A 
HETATM   19  C12 UNL     1      20.206  -0.334  53.656  1.00  0.00     0.046 A 
HETATM   20  C13 UNL     1      19.025  -0.723  53.017  1.00  0.00     0.138 A 
HETATM   21  F1  UNL     1      18.354  -1.798  53.508  1.00  0.00    -0.204 F 
HETATM   22  C14 UNL     1      18.606   0.008  51.925  1.00  0.00     0.074 A 
HETATM   23 CL1  UNL     1      17.116  -0.511  51.148  1.00  0.00    -0.081 Cl
HETATM   24  C15 UNL     1      19.308   1.095  51.448  1.00  0.00     0.056 A 
ENDBRANCH  15  17
ENDBRANCH  14  15
ENDBRANCH  13  14
ENDBRANCH   4  12
TORSDOF 6
ENDMDL
MODEL 6
REMARK VINA RESULT:      -6.7      3.272      4.679
REMARK  6 active torsions:
REMARK  status: ('A' for Active; 'I' for Inactive)
REMARK    1  A    between atoms: C2_3  and  C3_4 
REMARK    2  A    between atoms: C3_4  and  C4_5 
REMARK    3  A    between atoms: N2_11  and  C8_12 
REMARK    4  A    between atoms: N3_13  and  C9_14 
REMARK    5  A    between atoms: C9_14  and  N4_15 
REMARK    6  A    between atoms: N4_15  and  C10_16 
ROOT
HETATM    1  N1  UNL     1      29.059   5.301  48.260  1.00  0.00    -0.190 NA
HETATM    2  C1  UNL     1      27.923   5.350  48.474  1.00  0.00     0.115 C 
HETATM    3  C2  UNL     1      26.517   5.410  48.761  1.00  0.00     0.121 C 
HETATM    4  N2  UNL     1      25.851   4.464  49.332  1.00  0.00    -0.235 NA
ENDROOT
BRANCH   3   5
HETATM    5  C3  UNL     1      25.772   6.638  48.379  1.00  0.00     0.137 C 
BRANCH   5   6
HETATM    6  C4  UNL     1      26.613   7.781  48.882  1.00  0.00     0.074 C 
HETATM    7  C5  UNL     1      26.548   8.273  50.107  1.00  0.00     0.167 C 
HETATM    8  O1  UNL     1      27.342   9.321  50.512  1.00  0.00    -0.358 OA
HETATM    9  C6  UNL     1      28.224   9.995  49.658  1.00  0.00     0.201 C 
HETATM   10  C7  UNL     1      28.636   9.090  48.537  1.00  0.00     0.202 C 
HETATM   11  O2  UNL     1      27.522   8.378  48.036  1.00  0.00    -0.351 OA
ENDBRANCH   5   6
ENDBRANCH   3   5
BRANCH   4  12
HETATM   12  C8  UNL     1      26.462   3.243  49.742  1.00  0.00     0.229 C 
HETATM   13  N3  UNL     1      26.336   2.545  50.816  1.00  0.00    -0.263 NA
BRANCH  13  14
HETATM   14  C9  UNL     1      25.438   2.969  51.883  1.00  0.00     0.272 C 
BRANCH  14  15
HETATM   15  N4  UNL     1      25.927   2.519  53.152  1.00  0.00    -0.372 N 
HETATM   16  H11 UNL     1      25.563   2.932  54.048  1.00  0.00     0.161 HD
BRANCH  15  17
HETATM   17  C10 UNL     1      26.915   1.502  53.235  1.00  0.00     0.031 A 
HETATM   18  C11 UNL     1      28.198   1.797  53.644  1.00  0.00     0.032 A 
HETATM   19  C12 UNL     1      29.200   0.854  53.746  1.00  0.00     0.046 A 
HETATM   20  C13 UNL     1      28.901  -0.472  53.415  1.00  0.00     0.138 A 
HETATM   21  F1  UNL     1      29.893  -1.396  53.517  1.00  0.00    -0.204 F 
HETATM   22  C14 UNL     1      27.618  -0.766  53.006  1.00  0.00     0.074 A 
HETATM   23 CL1  UNL     1      27.281  -2.444  52.599  1.00  0.00    -0.081 Cl
HETATM   24  C15 UNL     1      26.632   0.193  52.912  1.00  0.00     0.056 A 
ENDBRANCH  15  17
ENDBRANCH  14  15
ENDBRANCH  13  14
ENDBRANCH   4  12
TORSDOF 6
ENDMDL
MODEL 7
REMARK VINA RESULT:      -6.7      3.093      5.123
REMARK  6 active torsions:
REMARK  status: ('A' for Active; 'I' for Inactive)
REMARK    1  A    between atoms: C2_3  and  C3_4 
REMARK    2  A    between atoms: C3_4  and  C4_5 
REMARK    3  A    between atoms: N2_11  and  C8_12 
REMARK    4  A    between atoms: N3_13  and  C9_14 
REMARK    5  A    between atoms: C9_14  and  N4_15 
REMARK    6  A    between atoms: N4_15  and  C10_16 
ROOT
HETATM    1  N1  UNL     1      26.848  10.344  49.367  1.00  0.00    -0.190 NA
HETATM    2  C1  UNL     1      27.026   9.249  49.042  1.00  0.00     0.115 C 
HETATM    3  C2  UNL     1      27.226   7.887  48.632  1.00  0.00     0.121 C 
HETATM    4  N2  UNL     1      26.617   6.875  49.151  1.00  0.00    -0.235 NA
ENDROOT
BRANCH   3   5
HETATM    5  C3  UNL     1      28.196   7.616  47.539  1.00  0.00     0.137 C 
BRANCH   5   6
HETATM    6  C4  UNL     1      29.407   7.039  48.221  1.00  0.00     0.074 C 
HETATM    7  C5  UNL     1      29.760   5.766  48.166  1.00  0.00     0.167 C 
HETATM    8  O1  UNL     1      30.879   5.293  48.811  1.00  0.00    -0.358 OA
HETATM    9  C6  UNL     1      31.691   6.089  49.628  1.00  0.00     0.201 C 
HETATM   10  C7  UNL     1      31.575   7.525  49.216  1.00  0.00     0.202 C 
HETATM   11  O2  UNL     1      30.226   7.863  48.962  1.00  0.00    -0.351 OA
ENDBRANCH   5   6
ENDBRANCH   3   5
BRANCH   4  12
HETATM   12  C8  UNL     1      25.666   7.016  50.204  1.00  0.00     0.229 C 
HETATM   13  N3  UNL     1      24.844   6.177  50.728  1.00  0.00    -0.263 NA
BRANCH  13  14
HETATM   14  C9  UNL     1      24.772   4.802  50.251  1.00  0.00     0.272 C 
BRANCH  14  15
HETATM   15  N4  UNL     1      25.902   4.054  50.716  1.00  0.00    -0.372 N 
HETATM   16  H11 UNL     1      26.878   4.431  50.613  1.00  0.00     0.161 HD
BRANCH  15  17
HETATM   17  C10 UNL     1      25.734   2.784  51.329  1.00  0.00     0.031 A 
HETATM   18  C11 UNL     1      26.820   1.970  51.577  1.00  0.00     0.032 A 
HETATM   19  C12 UNL     1      26.721   0.729  52.169  1.00  0.00     0.046 A 
HETATM   20  C13 UNL     1      25.454   0.266  52.537  1.00  0.00     0.138 A 
HETATM   21  F1  UNL     1      25.364  -0.958  53.120  1.00  0.00    -0.204 F 
HETATM   22  C14 UNL     1      24.368   1.080  52.290  1.00  0.00     0.074 A 
HETATM   23 CL1  UNL     1      22.791   0.464  52.767  1.00  0.00    -0.081 Cl
HETATM   24  C15 UNL     1      24.491   2.318  51.696  1.00  0.00     0.056 A 
ENDBRANCH  15  17
ENDBRANCH  14  15
ENDBRANCH  13  14
ENDBRANCH   4  12
TORSDOF 6
ENDMDL
MODEL 8
REMARK VINA RESULT:      -6.6      4.460      6.778
REMARK  6 active torsions:
REMARK  status: ('A' for Active; 'I' for Inactive)
REMARK    1  A    between atoms: C2_3  and  C3_4 
REMARK    2  A    between atoms: C3_4  and  C4_5 
REMARK    3  A    between atoms: N2_11  and  C8_12 
REMARK    4  A    between atoms: N3_13  and  C9_14 
REMARK    5  A    between atoms: C9_14  and  N4_15 
REMARK    6  A    between atoms: N4_15  and  C10_16 
ROOT
HETATM    1  N1  UNL     1      21.838   1.453  49.469  1.00  0.00    -0.190 NA
HETATM    2  C1  UNL     1      21.463   1.856  50.486  1.00  0.00     0.115 C 
HETATM    3  C2  UNL     1      20.991   2.375  51.739  1.00  0.00     0.121 C 
HETATM    4  N2  UNL     1      21.466   3.427  52.315  1.00  0.00    -0.235 NA
ENDROOT
BRANCH   3   5
HETATM    5  C3  UNL     1      19.881   1.661  52.424  1.00  0.00     0.137 C 
BRANCH   5   6
HETATM    6  C4  UNL     1      20.541   0.536  53.174  1.00  0.00     0.074 C 
HETATM    7  C5  UNL     1      19.948  -0.603  53.487  1.00  0.00     0.167 C 
HETATM    8  O1  UNL     1      20.601  -1.598  54.176  1.00  0.00    -0.358 OA
HETATM    9  C6  UNL     1      21.908  -1.470  54.660  1.00  0.00     0.201 C 
HETATM   10  C7  UNL     1      22.658  -0.466  53.838  1.00  0.00     0.202 C 
HETATM   11  O2  UNL     1      21.852   0.666  53.576  1.00  0.00    -0.351 OA
ENDBRANCH   5   6
ENDBRANCH   3   5
BRANCH   4  12
HETATM   12  C8  UNL     1      22.530   4.190  51.749  1.00  0.00     0.229 C 
HETATM   13  N3  UNL     1      23.804   4.131  51.916  1.00  0.00    -0.263 NA
BRANCH  13  14
HETATM   14  C9  UNL     1      24.396   3.152  52.820  1.00  0.00     0.272 C 
BRANCH  14  15
HETATM   15  N4  UNL     1      24.913   2.040  52.080  1.00  0.00    -0.372 N 
HETATM   16  H11 UNL     1      24.459   1.731  51.183  1.00  0.00     0.161 HD
BRANCH  15  17
HETATM   17  C10 UNL     1      26.053   1.327  52.536  1.00  0.00     0.031 A 
HETATM   18  C11 UNL     1      26.168  -0.031  52.323  1.00  0.00     0.032 A 
HETATM   19  C12 UNL     1      27.249  -0.778  52.741  1.00  0.00     0.046 A 
HETATM   20  C13 UNL     1      28.286  -0.127  53.418  1.00  0.00     0.138 A 
HETATM   21  F1  UNL     1      29.348  -0.869  53.827  1.00  0.00    -0.204 F 
HETATM   22  C14 UNL     1      28.170   1.231  53.631  1.00  0.00     0.074 A 
HETATM   23 CL1  UNL     1      29.494   2.013  54.487  1.00  0.00    -0.081 Cl
HETATM   24  C15 UNL     1      27.080   1.957  53.204  1.00  0.00     0.056 A 
ENDBRANCH  15  17
ENDBRANCH  14  15
ENDBRANCH  13  14
ENDBRANCH   4  12
TORSDOF 6
ENDMDL
MODEL 9
REMARK VINA RESULT:      -6.6      4.235      6.729
REMARK  6 active torsions:
REMARK  status: ('A' for Active; 'I' for Inactive)
REMARK    1  A    between atoms: C2_3  and  C3_4 
REMARK    2  A    between atoms: C3_4  and  C4_5 
REMARK    3  A    between atoms: N2_11  and  C8_12 
REMARK    4  A    between atoms: N3_13  and  C9_14 
REMARK    5  A    between atoms: C9_14  and  N4_15 
REMARK    6  A    between atoms: N4_15  and  C10_16 
ROOT
HETATM    1  N1  UNL     1      19.794   3.828  52.322  1.00  0.00    -0.190 NA
HETATM    2  C1  UNL     1      20.363   2.982  51.775  1.00  0.00     0.115 C 
HETATM    3  C2  UNL     1      21.084   1.933  51.111  1.00  0.00     0.121 C 
HETATM    4  N2  UNL     1      22.277   2.059  50.635  1.00  0.00    -0.235 NA
ENDROOT
BRANCH   3   5
HETATM    5  C3  UNL     1      20.423   0.611  50.959  1.00  0.00     0.137 C 
BRANCH   5   6
HETATM    6  C4  UNL     1      20.749  -0.140  52.223  1.00  0.00     0.074 C 
HETATM    7  C5  UNL     1      19.849  -0.698  53.014  1.00  0.00     0.167 C 
HETATM    8  O1  UNL     1      20.205  -1.372  54.159  1.00  0.00    -0.358 OA
HETATM    9  C6  UNL     1      21.524  -1.465  54.619  1.00  0.00     0.201 C 
HETATM   10  C7  UNL     1      22.474  -1.320  53.469  1.00  0.00     0.202 C 
HETATM   11  O2  UNL     1      22.063  -0.274  52.612  1.00  0.00    -0.351 OA
ENDBRANCH   5   6
ENDBRANCH   3   5
BRANCH   4  12
HETATM   12  C8  UNL     1      23.007   3.281  50.724  1.00  0.00     0.229 C 
HETATM   13  N3  UNL     1      24.040   3.607  51.417  1.00  0.00    -0.263 NA
BRANCH  13  14
HETATM   14  C9  UNL     1      24.675   2.648  52.312  1.00  0.00     0.272 C 
BRANCH  14  15
HETATM   15  N4  UNL     1      26.092   2.855  52.339  1.00  0.00    -0.372 N 
HETATM   16  H11 UNL     1      26.507   3.785  52.075  1.00  0.00     0.161 HD
BRANCH  15  17
HETATM   17  C10 UNL     1      26.976   1.811  52.721  1.00  0.00     0.031 A 
HETATM   18  C11 UNL     1      28.176   2.093  53.339  1.00  0.00     0.032 A 
HETATM   19  C12 UNL     1      29.074   1.123  53.734  1.00  0.00     0.046 A 
HETATM   20  C13 UNL     1      28.754  -0.217  53.496  1.00  0.00     0.138 A 
HETATM   21  F1  UNL     1      29.644  -1.167  53.887  1.00  0.00    -0.204 F 
HETATM   22  C14 UNL     1      27.554  -0.498  52.878  1.00  0.00     0.074 A 
HETATM   23 CL1  UNL     1      27.187  -2.196  52.595  1.00  0.00    -0.081 Cl
HETATM   24  C15 UNL     1      26.671   0.487  52.492  1.00  0.00     0.056 A 
ENDBRANCH  15  17
ENDBRANCH  14  15
ENDBRANCH  13  14
ENDBRANCH   4  12
TORSDOF 6
ENDMDL
