MODEL 1
REMARK VINA RESULT:      -7.9      0.000      0.000
REMARK  5 active torsions:
REMARK  status: ('A' for Active; 'I' for Inactive)
REMARK    1  A    between atoms: C2_2  and  N1_3 
REMARK    2  A    between atoms: N1_3  and  C3_4 
REMARK    3  A    between atoms: C7_9  and  C8_10 
REMARK    4  A    between atoms: C12_14  and  O1_15 
REMARK    5  A    between atoms: O1_15  and  N3_16 
ROOT
HETATM    1  C3  UNL     1      21.864   0.719  52.397  1.00  0.00     0.294 C 
HETATM    2  C4  UNL     1      20.505   0.236  52.158  1.00  0.00     0.124 C 
HETATM    3  N2  UNL     1      19.972  -0.125  53.287  1.00  0.00    -0.299 NA
HETATM    4  C5  UNL     1      20.725  -0.013  54.512  1.00  0.00     0.176 C 
HETATM    5  C6  UNL     1      22.106  -0.529  54.303  1.00  0.00     0.004 C 
HETATM    6  C7  UNL     1      22.731  -0.162  53.199  1.00  0.00    -0.022 C 
ENDROOT
BRANCH   6   7
HETATM    7  C8  UNL     1      24.076  -0.575  52.846  1.00  0.00     0.017 C 
HETATM    8  C9  UNL     1      25.290  -0.389  53.314  1.00  0.00    -0.054 A 
HETATM    9  C10 UNL     1      26.381  -1.046  52.578  1.00  0.00     0.010 A 
HETATM   10  C14 UNL     1      25.657   0.410  54.496  1.00  0.00     0.068 A 
HETATM   11  C11 UNL     1      27.662  -0.998  52.868  1.00  0.00     0.039 A 
HETATM   12  C12 UNL     1      28.098  -0.229  54.025  1.00  0.00     0.088 A 
HETATM   13  C13 UNL     1      27.132   0.360  54.684  1.00  0.00     0.016 A 
BRANCH  12  14
HETATM   14  O1  UNL     1      29.411  -0.101  54.434  1.00  0.00    -0.267 OA
BRANCH  14  15
HETATM   15  N3  UNL     1      30.331   0.262  53.466  1.00  0.00    -0.209 NA
HETATM   16  H13 UNL     1      31.118  -0.389  53.530  1.00  0.00     0.150 HD
HETATM   17  H14 UNL     1      29.892   0.310  52.513  1.00  0.00     0.150 HD
ENDBRANCH  14  15
ENDBRANCH  12  14
ENDBRANCH   6   7
BRANCH   1  18
HETATM   18  N1  UNL     1      21.936   2.055  52.909  1.00  0.00     0.110 N 
HETATM   19  H4  UNL     1      22.079   2.102  53.926  1.00  0.00     0.318 HD
BRANCH  18  20
HETATM   20  C2  UNL     1      22.742   2.973  52.183  1.00  0.00     0.178 A 
HETATM   21  C1  UNL     1      21.964   4.294  52.109  1.00  0.00     0.054 C 
HETATM   22  C15 UNL     1      22.990   2.582  50.781  1.00  0.00     0.016 A 
HETATM   23  C16 UNL     1      24.277   2.526  50.491  1.00  0.00     0.025 A 
HETATM   24  C17 UNL     1      25.049   2.871  51.664  1.00  0.00     0.028 A 
HETATM   25  N4  UNL     1      26.318   2.898  51.895  1.00  0.00    -0.305 NA
HETATM   26  C18 UNL     1      24.090   3.257  52.754  1.00  0.00     0.103 A 
HETATM   27  H20 UNL     1      27.051   2.644  51.189  1.00  0.00     0.186 HD
ENDBRANCH  18  20
ENDBRANCH   1  18
TORSDOF 5
ENDMDL
MODEL 2
REMARK VINA RESULT:      -7.9      1.758      3.918
REMARK  5 active torsions:
REMARK  status: ('A' for Active; 'I' for Inactive)
REMARK    1  A    between atoms: C2_2  and  N1_3 
REMARK    2  A    between atoms: N1_3  and  C3_4 
REMARK    3  A    between atoms: C7_9  and  C8_10 
REMARK    4  A    between atoms: C12_14  and  O1_15 
REMARK    5  A    between atoms: O1_15  and  N3_16 
ROOT
HETATM    1  C3  UNL     1      22.562   2.973  52.407  1.00  0.00     0.294 C 
HETATM    2  C4  UNL     1      21.937   4.292  52.321  1.00  0.00     0.124 C 
HETATM    3  N2  UNL     1      22.409   4.925  51.288  1.00  0.00    -0.299 NA
HETATM    4  C5  UNL     1      23.396   4.299  50.445  1.00  0.00     0.176 C 
HETATM    5  C6  UNL     1      24.441   3.652  51.286  1.00  0.00     0.004 C 
HETATM    6  C7  UNL     1      24.033   2.948  52.327  1.00  0.00    -0.022 C 
ENDROOT
BRANCH   6   7
HETATM    7  C8  UNL     1      24.919   2.258  53.244  1.00  0.00     0.017 C 
HETATM    8  C9  UNL     1      25.777   1.264  53.183  1.00  0.00    -0.054 A 
HETATM    9  C10 UNL     1      26.464   0.917  54.436  1.00  0.00     0.010 A 
HETATM   10  C14 UNL     1      26.112   0.472  51.986  1.00  0.00     0.068 A 
HETATM   11  C11 UNL     1      27.357  -0.033  54.602  1.00  0.00     0.039 A 
HETATM   12  C12 UNL     1      27.739  -0.854  53.462  1.00  0.00     0.088 A 
HETATM   13  C13 UNL     1      27.131  -0.552  52.344  1.00  0.00     0.016 A 
BRANCH  12  14
HETATM   14  O1  UNL     1      28.663  -1.879  53.507  1.00  0.00    -0.267 OA
BRANCH  14  15
HETATM   15  N3  UNL     1      28.277  -3.090  52.959  1.00  0.00    -0.209 NA
HETATM   16  H13 UNL     1      29.127  -3.608  52.724  1.00  0.00     0.150 HD
HETATM   17  H14 UNL     1      27.621  -3.610  53.594  1.00  0.00     0.150 HD
ENDBRANCH  14  15
ENDBRANCH  12  14
ENDBRANCH   6   7
BRANCH   1  18
HETATM   18  N1  UNL     1      22.018   2.000  51.507  1.00  0.00     0.110 N 
HETATM   19  H4  UNL     1      22.642   1.764  50.725  1.00  0.00     0.318 HD
BRANCH  18  20
HETATM   20  C2  UNL     1      21.396   0.866  52.095  1.00  0.00     0.178 A 
HETATM   21  C1  UNL     1      20.431   0.290  51.049  1.00  0.00     0.054 C 
HETATM   22  C15 UNL     1      20.561   1.176  53.272  1.00  0.00     0.016 A 
HETATM   23  C16 UNL     1      20.913   0.482  54.340  1.00  0.00     0.025 A 
HETATM   24  C17 UNL     1      22.027  -0.378  54.007  1.00  0.00     0.028 A 
HETATM   25  N4  UNL     1      22.748  -1.182  54.712  1.00  0.00    -0.305 NA
HETATM   26  C18 UNL     1      22.309  -0.226  52.540  1.00  0.00     0.103 A 
HETATM   27  H20 UNL     1      22.616  -1.345  55.741  1.00  0.00     0.186 HD
ENDBRANCH  18  20
ENDBRANCH   1  18
TORSDOF 5
ENDMDL
MODEL 3
REMARK VINA RESULT:      -7.9      2.959      6.178
REMARK  5 active torsions:
REMARK  status: ('A' for Active; 'I' for Inactive)
REMARK    1  A    between atoms: C2_2  and  N1_3 
REMARK    2  A    between atoms: N1_3  and  C3_4 
REMARK    3  A    between atoms: C7_9  and  C8_10 
REMARK    4  A    between atoms: C12_14  and  O1_15 
REMARK    5  A    between atoms: O1_15  and  N3_16 
ROOT
HETATM    1  C3  UNL     1      24.825   2.294  51.666  1.00  0.00     0.294 C 
HETATM    2  C4  UNL     1      24.690   2.954  50.368  1.00  0.00     0.124 C 
HETATM    3  N2  UNL     1      24.177   4.137  50.539  1.00  0.00    -0.299 NA
HETATM    4  C5  UNL     1      23.841   4.596  51.863  1.00  0.00     0.176 C 
HETATM    5  C6  UNL     1      23.132   3.518  52.605  1.00  0.00     0.004 C 
HETATM    6  C7  UNL     1      23.625   2.296  52.520  1.00  0.00    -0.022 C 
ENDROOT
BRANCH   6   7
HETATM    7  C8  UNL     1      23.055   1.137  53.181  1.00  0.00     0.017 C 
HETATM    8  C9  UNL     1      21.904   0.501  53.177  1.00  0.00    -0.054 A 
HETATM    9  C10 UNL     1      21.807  -0.675  54.056  1.00  0.00     0.010 A 
HETATM   10  C14 UNL     1      20.714   0.853  52.383  1.00  0.00     0.068 A 
HETATM   11  C11 UNL     1      20.760  -1.455  54.206  1.00  0.00     0.039 A 
HETATM   12  C12 UNL     1      19.549  -1.169  53.450  1.00  0.00     0.088 A 
HETATM   13  C13 UNL     1      19.628  -0.123  52.668  1.00  0.00     0.016 A 
BRANCH  12  14
HETATM   14  O1  UNL     1      18.386  -1.912  53.520  1.00  0.00    -0.267 OA
BRANCH  14  15
HETATM   15  N3  UNL     1      17.227  -1.224  53.835  1.00  0.00    -0.209 NA
HETATM   16  H13 UNL     1      16.439  -1.761  53.461  1.00  0.00     0.150 HD
HETATM   17  H14 UNL     1      17.161  -1.029  54.865  1.00  0.00     0.150 HD
ENDBRANCH  14  15
ENDBRANCH  12  14
ENDBRANCH   6   7
BRANCH   1  18
HETATM   18  N1  UNL     1      25.957   2.723  52.433  1.00  0.00     0.110 N 
HETATM   19  H4  UNL     1      25.747   3.481  53.095  1.00  0.00     0.318 HD
BRANCH  18  20
HETATM   20  C2  UNL     1      26.776   1.701  52.986  1.00  0.00     0.178 A 
HETATM   21  C1  UNL     1      28.206   2.255  53.045  1.00  0.00     0.054 C 
HETATM   22  C15 UNL     1      26.859   0.480  52.161  1.00  0.00     0.016 A 
HETATM   23  C16 UNL     1      26.514  -0.606  52.828  1.00  0.00     0.025 A 
HETATM   24  C17 UNL     1      26.157  -0.245  54.182  1.00  0.00     0.028 A 
HETATM   25  N4  UNL     1      25.703  -0.930  55.176  1.00  0.00    -0.305 NA
HETATM   26  C18 UNL     1      26.402   1.227  54.349  1.00  0.00     0.103 A 
HETATM   27  H20 UNL     1      25.505  -1.961  55.140  1.00  0.00     0.186 HD
ENDBRANCH  18  20
ENDBRANCH   1  18
TORSDOF 5
ENDMDL
MODEL 4
REMARK VINA RESULT:      -7.7      2.163      2.707
REMARK  5 active torsions:
REMARK  status: ('A' for Active; 'I' for Inactive)
REMARK    1  A    between atoms: C2_2  and  N1_3 
REMARK    2  A    between atoms: N1_3  and  C3_4 
REMARK    3  A    between atoms: C7_9  and  C8_10 
REMARK    4  A    between atoms: C12_14  and  O1_15 
REMARK    5  A    between atoms: O1_15  and  N3_16 
ROOT
HETATM    1  C3  UNL     1      23.101   2.006  50.804  1.00  0.00     0.294 C 
HETATM    2  C4  UNL     1      22.050   1.101  50.339  1.00  0.00     0.124 C 
HETATM    3  N2  UNL     1      21.123   1.017  51.247  1.00  0.00    -0.299 NA
HETATM    4  C5  UNL     1      21.244   1.759  52.477  1.00  0.00     0.176 C 
HETATM    5  C6  UNL     1      22.627   1.624  53.012  1.00  0.00     0.004 C 
HETATM    6  C7  UNL     1      23.625   1.748  52.156  1.00  0.00    -0.022 C 
ENDROOT
BRANCH   6   7
HETATM    7  C8  UNL     1      25.027   1.644  52.514  1.00  0.00     0.017 C 
HETATM    8  C9  UNL     1      25.899   0.679  52.704  1.00  0.00    -0.054 A 
HETATM    9  C10 UNL     1      27.261   1.094  53.070  1.00  0.00     0.010 A 
HETATM   10  C14 UNL     1      25.640  -0.767  52.585  1.00  0.00     0.068 A 
HETATM   11  C11 UNL     1      28.285   0.302  53.301  1.00  0.00     0.039 A 
HETATM   12  C12 UNL     1      28.105  -1.139  53.199  1.00  0.00     0.088 A 
HETATM   13  C13 UNL     1      26.894  -1.515  52.875  1.00  0.00     0.016 A 
BRANCH  12  14
HETATM   14  O1  UNL     1      29.099  -2.072  53.417  1.00  0.00    -0.267 OA
BRANCH  14  15
HETATM   15  N3  UNL     1      28.725  -3.404  53.364  1.00  0.00    -0.209 NA
HETATM   16  H13 UNL     1      28.168  -3.601  54.200  1.00  0.00     0.150 HD
HETATM   17  H14 UNL     1      28.238  -3.633  52.462  1.00  0.00     0.150 HD
ENDBRANCH  14  15
ENDBRANCH  12  14
ENDBRANCH   6   7
BRANCH   1  18
HETATM   18  N1  UNL     1      22.784   3.397  50.672  1.00  0.00     0.110 N 
HETATM   19  H4  UNL     1      22.677   3.886  51.570  1.00  0.00     0.318 HD
BRANCH  18  20
HETATM   20  C2  UNL     1      23.534   4.133  49.715  1.00  0.00     0.178 A 
HETATM   21  C1  UNL     1      22.677   4.223  48.445  1.00  0.00     0.054 C 
HETATM   22  C15 UNL     1      24.790   3.479  49.298  1.00  0.00     0.016 A 
HETATM   23  C16 UNL     1      25.846   4.253  49.471  1.00  0.00     0.025 A 
HETATM   24  C17 UNL     1      25.426   5.520  50.026  1.00  0.00     0.028 A 
HETATM   25  N4  UNL     1      26.082   6.559  50.420  1.00  0.00    -0.305 NA
HETATM   26  C18 UNL     1      23.927   5.516  50.112  1.00  0.00     0.103 A 
HETATM   27  H20 UNL     1      27.128   6.641  50.393  1.00  0.00     0.186 HD
ENDBRANCH  18  20
ENDBRANCH   1  18
TORSDOF 5
ENDMDL
MODEL 5
REMARK VINA RESULT:      -7.7      1.928      4.129
REMARK  5 active torsions:
REMARK  status: ('A' for Active; 'I' for Inactive)
REMARK    1  A    between atoms: C2_2  and  N1_3 
REMARK    2  A    between atoms: N1_3  and  C3_4 
REMARK    3  A    between atoms: C7_9  and  C8_10 
REMARK    4  A    between atoms: C12_14  and  O1_15 
REMARK    5  A    between atoms: O1_15  and  N3_16 
ROOT
HETATM    1  C3  UNL     1      20.877   1.540  51.465  1.00  0.00     0.294 C 
HETATM    2  C4  UNL     1      19.836   2.265  50.738  1.00  0.00     0.124 C 
HETATM    3  N2  UNL     1      19.978   2.057  49.463  1.00  0.00    -0.299 NA
HETATM    4  C5  UNL     1      21.046   1.216  48.981  1.00  0.00     0.176 C 
HETATM    5  C6  UNL     1      22.314   1.561  49.681  1.00  0.00     0.004 C 
HETATM    6  C7  UNL     1      22.257   1.739  50.989  1.00  0.00    -0.022 C 
ENDROOT
BRANCH   6   7
HETATM    7  C8  UNL     1      23.398   2.078  51.817  1.00  0.00     0.017 C 
HETATM    8  C9  UNL     1      24.250   1.436  52.586  1.00  0.00    -0.054 A 
HETATM    9  C10 UNL     1      25.279   2.254  53.245  1.00  0.00     0.010 A 
HETATM   10  C14 UNL     1      24.269  -0.014  52.846  1.00  0.00     0.068 A 
HETATM   11  C11 UNL     1      26.226   1.823  54.048  1.00  0.00     0.039 A 
HETATM   12  C12 UNL     1      26.308   0.401  54.348  1.00  0.00     0.088 A 
HETATM   13  C13 UNL     1      25.394  -0.333  53.766  1.00  0.00     0.016 A 
BRANCH  12  14
HETATM   14  O1  UNL     1      27.254  -0.174  55.174  1.00  0.00    -0.267 OA
BRANCH  14  15
HETATM   15  N3  UNL     1      28.508  -0.390  54.628  1.00  0.00    -0.209 NA
HETATM   16  H13 UNL     1      29.089   0.419  54.861  1.00  0.00     0.150 HD
HETATM   17  H14 UNL     1      28.911  -1.310  54.937  1.00  0.00     0.150 HD
ENDBRANCH  14  15
ENDBRANCH  12  14
ENDBRANCH   6   7
BRANCH   1  18
HETATM   18  N1  UNL     1      20.623   0.139  51.621  1.00  0.00     0.110 N 
HETATM   19  H4  UNL     1      21.336  -0.463  51.188  1.00  0.00     0.318 HD
BRANCH  18  20
HETATM   20  C2  UNL     1      20.227  -0.297  52.915  1.00  0.00     0.178 A 
HETATM   21  C1  UNL     1      18.719  -0.578  52.852  1.00  0.00     0.054 C 
HETATM   22  C15 UNL     1      20.395   0.719  53.972  1.00  0.00     0.016 A 
HETATM   23  C16 UNL     1      21.134   0.285  54.978  1.00  0.00     0.025 A 
HETATM   24  C17 UNL     1      21.551  -1.074  54.715  1.00  0.00     0.028 A 
HETATM   25  N4  UNL     1      22.319  -1.889  55.356  1.00  0.00    -0.305 NA
HETATM   26  C18 UNL     1      20.908  -1.518  53.433  1.00  0.00     0.103 A 
HETATM   27  H20 UNL     1      22.805  -1.657  56.257  1.00  0.00     0.186 HD
ENDBRANCH  18  20
ENDBRANCH   1  18
TORSDOF 5
ENDMDL
MODEL 6
REMARK VINA RESULT:      -7.4      2.793      5.259
REMARK  5 active torsions:
REMARK  status: ('A' for Active; 'I' for Inactive)
REMARK    1  A    between atoms: C2_2  and  N1_3 
REMARK    2  A    between atoms: N1_3  and  C3_4 
REMARK    3  A    between atoms: C7_9  and  C8_10 
REMARK    4  A    between atoms: C12_14  and  O1_15 
REMARK    5  A    between atoms: O1_15  and  N3_16 
ROOT
HETATM    1  C3  UNL     1      24.011  -0.069  53.921  1.00  0.00     0.294 C 
HETATM    2  C4  UNL     1      23.375  -0.899  54.944  1.00  0.00     0.124 C 
HETATM    3  N2  UNL     1      22.377  -1.543  54.415  1.00  0.00    -0.299 NA
HETATM    4  C5  UNL     1      22.060  -1.368  53.019  1.00  0.00     0.176 C 
HETATM    5  C6  UNL     1      22.095   0.079  52.672  1.00  0.00     0.004 C 
HETATM    6  C7  UNL     1      23.109   0.790  53.133  1.00  0.00    -0.022 C 
ENDROOT
BRANCH   6   7
HETATM    7  C8  UNL     1      23.292   2.208  52.887  1.00  0.00     0.017 C 
HETATM    8  C9  UNL     1      23.568   2.974  51.855  1.00  0.00    -0.054 A 
HETATM    9  C10 UNL     1      23.651   4.418  52.119  1.00  0.00     0.010 A 
HETATM   10  C14 UNL     1      23.799   2.524  50.471  1.00  0.00     0.068 A 
HETATM   11  C11 UNL     1      23.910   5.361  51.240  1.00  0.00     0.039 A 
HETATM   12  C12 UNL     1      24.146   4.991  49.852  1.00  0.00     0.088 A 
HETATM   13  C13 UNL     1      24.075   3.707  49.611  1.00  0.00     0.016 A 
BRANCH  12  14
HETATM   14  O1  UNL     1      24.426   5.885  48.838  1.00  0.00    -0.267 OA
BRANCH  14  15
HETATM   15  N3  UNL     1      25.762   6.167  48.608  1.00  0.00    -0.209 NA
HETATM   16  H13 UNL     1      26.288   5.859  49.430  1.00  0.00     0.150 HD
HETATM   17  H14 UNL     1      26.096   5.748  47.704  1.00  0.00     0.150 HD
ENDBRANCH  14  15
ENDBRANCH  12  14
ENDBRANCH   6   7
BRANCH   1  18
HETATM   18  N1  UNL     1      24.883  -0.783  53.037  1.00  0.00     0.110 N 
HETATM   19  H4  UNL     1      24.459  -1.009  52.128  1.00  0.00     0.318 HD
BRANCH  18  20
HETATM   20  C2  UNL     1      26.217  -0.305  52.934  1.00  0.00     0.178 A 
HETATM   21  C1  UNL     1      27.131  -1.536  52.858  1.00  0.00     0.054 C 
HETATM   22  C15 UNL     1      26.678   0.457  54.111  1.00  0.00     0.016 A 
HETATM   23  C16 UNL     1      27.119   1.661  53.794  1.00  0.00     0.025 A 
HETATM   24  C17 UNL     1      27.005   1.853  52.366  1.00  0.00     0.028 A 
HETATM   25  N4  UNL     1      27.242   2.864  51.601  1.00  0.00    -0.305 NA
HETATM   26  C18 UNL     1      26.512   0.569  51.762  1.00  0.00     0.103 A 
HETATM   27  H20 UNL     1      27.588   3.794  51.943  1.00  0.00     0.186 HD
ENDBRANCH  18  20
ENDBRANCH   1  18
TORSDOF 5
ENDMDL
MODEL 7
REMARK VINA RESULT:      -7.4      3.746      6.060
REMARK  5 active torsions:
REMARK  status: ('A' for Active; 'I' for Inactive)
REMARK    1  A    between atoms: C2_2  and  N1_3 
REMARK    2  A    between atoms: N1_3  and  C3_4 
REMARK    3  A    between atoms: C7_9  and  C8_10 
REMARK    4  A    between atoms: C12_14  and  O1_15 
REMARK    5  A    between atoms: O1_15  and  N3_16 
ROOT
HETATM    1  C3  UNL     1      23.298   2.783  51.118  1.00  0.00     0.294 C 
HETATM    2  C4  UNL     1      21.900   3.013  51.482  1.00  0.00     0.124 C 
HETATM    3  N2  UNL     1      21.129   2.441  50.606  1.00  0.00    -0.299 NA
HETATM    4  C5  UNL     1      21.702   1.723  49.495  1.00  0.00     0.176 C 
HETATM    5  C6  UNL     1      22.806   2.520  48.896  1.00  0.00     0.004 C 
HETATM    6  C7  UNL     1      23.662   3.092  49.724  1.00  0.00    -0.022 C 
ENDROOT
BRANCH   6   7
HETATM    7  C8  UNL     1      24.791   3.900  49.304  1.00  0.00     0.017 C 
HETATM    8  C9  UNL     1      25.220   5.126  49.504  1.00  0.00    -0.054 A 
HETATM    9  C10 UNL     1      26.474   5.496  48.832  1.00  0.00     0.010 A 
HETATM   10  C14 UNL     1      24.566   6.155  50.332  1.00  0.00     0.068 A 
HETATM   11  C11 UNL     1      27.083   6.660  48.895  1.00  0.00     0.039 A 
HETATM   12  C12 UNL     1      26.496   7.724  49.697  1.00  0.00     0.088 A 
HETATM   13  C13 UNL     1      25.378   7.402  50.297  1.00  0.00     0.016 A 
BRANCH  12  14
HETATM   14  O1  UNL     1      27.037   8.986  49.843  1.00  0.00    -0.267 OA
BRANCH  14  15
HETATM   15  N3  UNL     1      27.503   9.321  51.103  1.00  0.00    -0.209 NA
HETATM   16  H13 UNL     1      28.486   9.044  51.151  1.00  0.00     0.150 HD
HETATM   17  H14 UNL     1      27.333  10.335  51.321  1.00  0.00     0.150 HD
ENDBRANCH  14  15
ENDBRANCH  12  14
ENDBRANCH   6   7
BRANCH   1  18
HETATM   18  N1  UNL     1      23.793   1.484  51.465  1.00  0.00     0.110 N 
HETATM   19  H4  UNL     1      23.885   0.847  50.663  1.00  0.00     0.318 HD
BRANCH  18  20
HETATM   20  C2  UNL     1      24.905   1.442  52.350  1.00  0.00     0.178 A 
HETATM   21  C1  UNL     1      24.853   2.720  53.198  1.00  0.00     0.054 C 
HETATM   22  C15 UNL     1      26.217   1.470  51.674  1.00  0.00     0.016 A 
HETATM   23  C16 UNL     1      26.984   0.449  52.015  1.00  0.00     0.025 A 
HETATM   24  C17 UNL     1      26.277  -0.387  52.960  1.00  0.00     0.028 A 
HETATM   25  N4  UNL     1      26.576  -1.508  53.524  1.00  0.00    -0.305 NA
HETATM   26  C18 UNL     1      24.965   0.272  53.272  1.00  0.00     0.103 A 
HETATM   27  H20 UNL     1      27.471  -2.031  53.359  1.00  0.00     0.186 HD
ENDBRANCH  18  20
ENDBRANCH   1  18
TORSDOF 5
ENDMDL
MODEL 8
REMARK VINA RESULT:      -7.3      2.751      5.900
REMARK  5 active torsions:
REMARK  status: ('A' for Active; 'I' for Inactive)
REMARK    1  A    between atoms: C2_2  and  N1_3 
REMARK    2  A    between atoms: N1_3  and  C3_4 
REMARK    3  A    between atoms: C7_9  and  C8_10 
REMARK    4  A    between atoms: C12_14  and  O1_15 
REMARK    5  A    between atoms: O1_15  and  N3_16 
ROOT
HETATM    1  C3  UNL     1      25.328   1.402  52.943  1.00  0.00     0.294 C 
HETATM    2  C4  UNL     1      26.589   1.929  53.464  1.00  0.00     0.124 C 
HETATM    3  N2  UNL     1      27.555   1.118  53.153  1.00  0.00    -0.299 NA
HETATM    4  C5  UNL     1      27.280  -0.084  52.407  1.00  0.00     0.176 C 
HETATM    5  C6  UNL     1      26.079  -0.762  52.968  1.00  0.00     0.004 C 
HETATM    6  C7  UNL     1      25.036  -0.007  53.262  1.00  0.00    -0.022 C 
ENDROOT
BRANCH   6   7
HETATM    7  C8  UNL     1      23.793  -0.509  53.815  1.00  0.00     0.017 C 
HETATM    8  C9  UNL     1      22.518  -0.475  53.495  1.00  0.00    -0.054 A 
HETATM    9  C10 UNL     1      21.597  -1.163  54.412  1.00  0.00     0.010 A 
HETATM   10  C14 UNL     1      21.932   0.184  52.315  1.00  0.00     0.068 A 
HETATM   11  C11 UNL     1      20.292  -1.257  54.286  1.00  0.00     0.039 A 
HETATM   12  C12 UNL     1      19.644  -0.633  53.142  1.00  0.00     0.088 A 
HETATM   13  C13 UNL     1      20.457  -0.017  52.323  1.00  0.00     0.016 A 
BRANCH  12  14
HETATM   14  O1  UNL     1      18.285  -0.661  52.898  1.00  0.00    -0.267 OA
BRANCH  14  15
HETATM   15  N3  UNL     1      17.493  -1.271  53.855  1.00  0.00    -0.209 NA
HETATM   16  H13 UNL     1      16.540  -1.315  53.485  1.00  0.00     0.150 HD
HETATM   17  H14 UNL     1      17.883  -2.203  54.143  1.00  0.00     0.150 HD
ENDBRANCH  14  15
ENDBRANCH  12  14
ENDBRANCH   6   7
BRANCH   1  18
HETATM   18  N1  UNL     1      25.126   1.627  51.543  1.00  0.00     0.110 N 
HETATM   19  H4  UNL     1      24.762   0.807  51.039  1.00  0.00     0.318 HD
BRANCH  18  20
HETATM   20  C2  UNL     1      24.487   2.842  51.179  1.00  0.00     0.178 A 
HETATM   21  C1  UNL     1      25.572   3.767  50.608  1.00  0.00     0.054 C 
HETATM   22  C15 UNL     1      23.898   3.579  52.313  1.00  0.00     0.016 A 
HETATM   23  C16 UNL     1      22.613   3.836  52.138  1.00  0.00     0.025 A 
HETATM   24  C17 UNL     1      22.187   3.302  50.864  1.00  0.00     0.028 A 
HETATM   25  N4  UNL     1      21.036   3.246  50.285  1.00  0.00    -0.305 NA
HETATM   26  C18 UNL     1      23.392   2.732  50.172  1.00  0.00     0.103 A 
HETATM   27  H20 UNL     1      20.147   3.620  50.700  1.00  0.00     0.186 HD
ENDBRANCH  18  20
ENDBRANCH   1  18
TORSDOF 5
ENDMDL
MODEL 9
REMARK VINA RESULT:      -7.3      4.367      6.736
REMARK  5 active torsions:
REMARK  status: ('A' for Active; 'I' for Inactive)
REMARK    1  A    between atoms: C2_2  and  N1_3 
REMARK    2  A    between atoms: N1_3  and  C3_4 
REMARK    3  A    between atoms: C7_9  and  C8_10 
REMARK    4  A    between atoms: C12_14  and  O1_15 
REMARK    5  A    between atoms: O1_15  and  N3_16 
ROOT
HETATM    1  C3  UNL     1      25.085   3.019  51.376  1.00  0.00     0.294 C 
HETATM    2  C4  UNL     1      23.930   3.592  52.067  1.00  0.00     0.124 C 
HETATM    3  N2  UNL     1      22.868   3.429  51.336  1.00  0.00    -0.299 NA
HETATM    4  C5  UNL     1      22.962   2.765  50.059  1.00  0.00     0.176 C 
HETATM    5  C6  UNL     1      24.137   3.284  49.308  1.00  0.00     0.004 C 
HETATM    6  C7  UNL     1      25.269   3.430  49.973  1.00  0.00    -0.022 C 
ENDROOT
BRANCH   6   7
HETATM    7  C8  UNL     1      26.502   3.922  49.391  1.00  0.00     0.017 C 
HETATM    8  C9  UNL     1      26.956   5.067  48.931  1.00  0.00    -0.054 A 
HETATM    9  C10 UNL     1      28.336   5.064  48.421  1.00  0.00     0.010 A 
HETATM   10  C14 UNL     1      26.217   6.340  48.878  1.00  0.00     0.068 A 
HETATM   11  C11 UNL     1      28.988   6.090  47.922  1.00  0.00     0.039 A 
HETATM   12  C12 UNL     1      28.321   7.382  47.842  1.00  0.00     0.088 A 
HETATM   13  C13 UNL     1      27.092   7.391  48.292  1.00  0.00     0.016 A 
BRANCH  12  14
HETATM   14  O1  UNL     1      28.897   8.533  47.339  1.00  0.00    -0.267 OA
BRANCH  14  15
HETATM   15  N3  UNL     1      30.230   8.746  47.644  1.00  0.00    -0.209 NA
HETATM   16  H13 UNL     1      30.296   8.889  48.655  1.00  0.00     0.150 HD
HETATM   17  H14 UNL     1      30.839   7.971  47.281  1.00  0.00     0.150 HD
ENDBRANCH  14  15
ENDBRANCH  12  14
ENDBRANCH   6   7
BRANCH   1  18
HETATM   18  N1  UNL     1      25.184   1.593  51.473  1.00  0.00     0.110 N 
HETATM   19  H4  UNL     1      25.226   1.117  50.563  1.00  0.00     0.318 HD
BRANCH  18  20
HETATM   20  C2  UNL     1      26.111   1.082  52.421  1.00  0.00     0.178 A 
HETATM   21  C1  UNL     1      27.287   2.067  52.475  1.00  0.00     0.054 C 
HETATM   22  C15 UNL     1      26.702  -0.218  52.048  1.00  0.00     0.016 A 
HETATM   23  C16 UNL     1      26.533  -1.138  52.981  1.00  0.00     0.025 A 
HETATM   24  C17 UNL     1      25.806  -0.566  54.092  1.00  0.00     0.028 A 
HETATM   25  N4  UNL     1      25.354  -1.071  55.190  1.00  0.00    -0.305 NA
HETATM   26  C18 UNL     1      25.596   0.894  53.808  1.00  0.00     0.103 A 
HETATM   27  H20 UNL     1      25.459  -2.079  55.463  1.00  0.00     0.186 HD
ENDBRANCH  18  20
ENDBRANCH   1  18
TORSDOF 5
ENDMDL
