MODEL 1
REMARK VINA RESULT:      -6.8      0.000      0.000
REMARK  9 active torsions:
REMARK  status: ('A' for Active; 'I' for Inactive)
REMARK    1  A    between atoms: C2_2  and  C3_3 
REMARK    2  A    between atoms: C2_2  and  C8_10 
REMARK    3  A    between atoms: C3_3  and  N1_4 
REMARK    4  A    between atoms: C8_10  and  C9_12 
REMARK    5  A    between atoms: C9_12  and  C12_15 
REMARK    6  A    between atoms: C12_15  and  C13_16 
REMARK    7  A    between atoms: C13_16  and  O2_17 
REMARK    8  A    between atoms: O2_17  and  C14_18 
REMARK    9  A    between atoms: C14_18  and  C15_19 
ROOT
HETATM    1  C8  UNL     1      24.735   2.095  52.695  1.00  0.00     0.185 C 
HETATM    2  O1  UNL     1      24.905   2.851  53.717  1.00  0.00    -0.287 OA
ENDROOT
BRANCH   1   3
HETATM    3  C2  UNL     1      26.054   1.721  52.238  1.00  0.00     0.011 C 
HETATM    4  C1  UNL     1      27.018   2.479  51.789  1.00  0.00     0.025 C 
BRANCH   3   5
HETATM    5  C3  UNL     1      26.602   0.366  52.193  1.00  0.00     0.314 C 
BRANCH   5   6
HETATM    6  N1  UNL     1      26.306  -0.479  53.297  1.00  0.00     0.096 N 
HETATM    7  C4  UNL     1      26.977  -1.756  53.027  1.00  0.00     0.302 C 
HETATM    8  C5  UNL     1      28.458  -1.592  52.929  1.00  0.00     0.299 C 
HETATM    9  N2  UNL     1      28.969  -1.052  54.145  1.00  0.00     0.086 N 
HETATM   10  C6  UNL     1      28.308   0.168  54.553  1.00  0.00     0.299 C 
HETATM   11  H9  UNL     1      29.987  -0.815  54.018  1.00  0.00     0.315 HD
HETATM   12  C7  UNL     1      26.807   0.014  54.571  1.00  0.00     0.302 C 
ENDBRANCH   5   6
ENDBRANCH   3   5
ENDBRANCH   1   3
BRANCH   1  13
HETATM   13  C9  UNL     1      23.423   1.743  52.175  1.00  0.00    -0.010 C 
HETATM   14  C10 UNL     1      22.631   0.653  52.356  1.00  0.00    -0.020 C 
HETATM   15  C11 UNL     1      22.635  -0.632  53.084  1.00  0.00     0.036 C 
BRANCH  13  16
HETATM   16  C12 UNL     1      22.859   2.772  51.258  1.00  0.00     0.068 C 
BRANCH  16  17
HETATM   17  C13 UNL     1      23.165   2.583  49.812  1.00  0.00     0.172 C 
BRANCH  17  18
HETATM   18  O2  UNL     1      24.320   3.148  49.385  1.00  0.00    -0.387 OA
BRANCH  18  19
HETATM   19  C14 UNL     1      24.674   4.393  49.738  1.00  0.00     0.202 C 
BRANCH  19  20
HETATM   20  C15 UNL     1      25.919   4.974  49.182  1.00  0.00    -0.053 A 
HETATM   21  C16 UNL     1      25.920   6.259  48.752  1.00  0.00     0.005 A 
HETATM   22  C17 UNL     1      27.180   6.742  48.220  1.00  0.00    -0.003 A 
HETATM   23  C18 UNL     1      27.961   5.689  48.340  1.00  0.00    -0.022 A 
HETATM   24  C19 UNL     1      27.296   4.481  48.938  1.00  0.00     0.063 A 
ENDBRANCH  19  20
ENDBRANCH  18  19
ENDBRANCH  17  18
ENDBRANCH  16  17
ENDBRANCH  13  16
ENDBRANCH   1  13
TORSDOF 9
ENDMDL
MODEL 2
REMARK VINA RESULT:      -6.7      1.137      2.109
REMARK  9 active torsions:
REMARK  status: ('A' for Active; 'I' for Inactive)
REMARK    1  A    between atoms: C2_2  and  C3_3 
REMARK    2  A    between atoms: C2_2  and  C8_10 
REMARK    3  A    between atoms: C3_3  and  N1_4 
REMARK    4  A    between atoms: C8_10  and  C9_12 
REMARK    5  A    between atoms: C9_12  and  C12_15 
REMARK    6  A    between atoms: C12_15  and  C13_16 
REMARK    7  A    between atoms: C13_16  and  O2_17 
REMARK    8  A    between atoms: O2_17  and  C14_18 
REMARK    9  A    between atoms: C14_18  and  C15_19 
ROOT
HETATM    1  C8  UNL     1      23.495   1.667  52.458  1.00  0.00     0.185 C 
HETATM    2  O1  UNL     1      23.769   2.768  53.055  1.00  0.00    -0.287 OA
ENDROOT
BRANCH   1   3
HETATM    3  C2  UNL     1      24.048   0.610  53.273  1.00  0.00     0.011 C 
HETATM    4  C1  UNL     1      23.477  -0.480  53.711  1.00  0.00     0.025 C 
BRANCH   3   5
HETATM    5  C3  UNL     1      25.417   0.538  53.784  1.00  0.00     0.314 C 
BRANCH   5   6
HETATM    6  N1  UNL     1      26.460   0.791  52.854  1.00  0.00     0.096 N 
HETATM    7  C4  UNL     1      27.641   1.149  53.648  1.00  0.00     0.302 C 
HETATM    8  C5  UNL     1      28.059   0.035  54.549  1.00  0.00     0.299 C 
HETATM    9  N2  UNL     1      28.358  -1.127  53.779  1.00  0.00     0.086 N 
HETATM   10  C6  UNL     1      27.288  -1.515  52.887  1.00  0.00     0.299 C 
HETATM   11  H9  UNL     1      28.520  -1.941  54.427  1.00  0.00     0.315 HD
HETATM   12  C7  UNL     1      26.819  -0.360  52.038  1.00  0.00     0.302 C 
ENDBRANCH   5   6
ENDBRANCH   3   5
ENDBRANCH   1   3
BRANCH   1  13
HETATM   13  C9  UNL     1      22.763   1.603  51.202  1.00  0.00    -0.010 C 
HETATM   14  C10 UNL     1      21.585   1.018  50.861  1.00  0.00    -0.020 C 
HETATM   15  C11 UNL     1      20.507   0.218  51.476  1.00  0.00     0.036 C 
BRANCH  13  16
HETATM   16  C12 UNL     1      23.455   2.301  50.083  1.00  0.00     0.068 C 
BRANCH  16  17
HETATM   17  C13 UNL     1      22.982   3.685  49.797  1.00  0.00     0.172 C 
BRANCH  17  18
HETATM   18  O2  UNL     1      23.950   4.566  49.447  1.00  0.00    -0.387 OA
BRANCH  18  19
HETATM   19  C14 UNL     1      25.214   4.442  49.879  1.00  0.00     0.202 C 
BRANCH  19  20
HETATM   20  C15 UNL     1      26.288   5.198  49.192  1.00  0.00    -0.053 A 
HETATM   21  C16 UNL     1      27.463   4.580  48.916  1.00  0.00     0.005 A 
HETATM   22  C17 UNL     1      28.458   5.397  48.245  1.00  0.00    -0.003 A 
HETATM   23  C18 UNL     1      27.840   6.552  48.122  1.00  0.00    -0.022 A 
HETATM   24  C19 UNL     1      26.445   6.580  48.681  1.00  0.00     0.063 A 
ENDBRANCH  19  20
ENDBRANCH  18  19
ENDBRANCH  17  18
ENDBRANCH  16  17
ENDBRANCH  13  16
ENDBRANCH   1  13
TORSDOF 9
ENDMDL
MODEL 3
REMARK VINA RESULT:      -6.7      2.536      4.130
REMARK  9 active torsions:
REMARK  status: ('A' for Active; 'I' for Inactive)
REMARK    1  A    between atoms: C2_2  and  C3_3 
REMARK    2  A    between atoms: C2_2  and  C8_10 
REMARK    3  A    between atoms: C3_3  and  N1_4 
REMARK    4  A    between atoms: C8_10  and  C9_12 
REMARK    5  A    between atoms: C9_12  and  C12_15 
REMARK    6  A    between atoms: C12_15  and  C13_16 
REMARK    7  A    between atoms: C13_16  and  O2_17 
REMARK    8  A    between atoms: O2_17  and  C14_18 
REMARK    9  A    between atoms: C14_18  and  C15_19 
ROOT
HETATM    1  C8  UNL     1      22.968   1.116  51.780  1.00  0.00     0.185 C 
HETATM    2  O1  UNL     1      22.369   0.415  52.671  1.00  0.00    -0.287 OA
ENDROOT
BRANCH   1   3
HETATM    3  C2  UNL     1      24.220   1.540  52.365  1.00  0.00     0.011 C 
HETATM    4  C1  UNL     1      24.498   2.642  53.009  1.00  0.00     0.025 C 
BRANCH   3   5
HETATM    5  C3  UNL     1      25.474   0.788  52.365  1.00  0.00     0.314 C 
BRANCH   5   6
HETATM    6  N1  UNL     1      25.433  -0.522  52.911  1.00  0.00     0.096 N 
HETATM    7  C4  UNL     1      26.708  -1.156  52.555  1.00  0.00     0.302 C 
HETATM    8  C5  UNL     1      27.870  -0.425  53.141  1.00  0.00     0.299 C 
HETATM    9  N2  UNL     1      27.755  -0.389  54.562  1.00  0.00     0.086 N 
HETATM   10  C6  UNL     1      26.489   0.136  55.022  1.00  0.00     0.299 C 
HETATM   11  H9  UNL     1      28.503   0.239  54.954  1.00  0.00     0.315 HD
HETATM   12  C7  UNL     1      25.322  -0.556  54.362  1.00  0.00     0.302 C 
ENDBRANCH   5   6
ENDBRANCH   3   5
ENDBRANCH   1   3
BRANCH   1  13
HETATM   13  C9  UNL     1      22.409   1.376  50.462  1.00  0.00    -0.010 C 
HETATM   14  C10 UNL     1      22.769   2.232  49.470  1.00  0.00    -0.020 C 
HETATM   15  C11 UNL     1      23.793   3.256  49.185  1.00  0.00     0.036 C 
BRANCH  13  16
HETATM   16  C12 UNL     1      21.204   0.552  50.163  1.00  0.00     0.068 C 
BRANCH  16  17
HETATM   17  C13 UNL     1      19.906   1.285  50.170  1.00  0.00     0.172 C 
BRANCH  17  18
HETATM   18  O2  UNL     1      19.494   1.721  51.385  1.00  0.00    -0.387 OA
BRANCH  18  19
HETATM   19  C14 UNL     1      19.148   3.000  51.600  1.00  0.00     0.202 C 
BRANCH  19  20
HETATM   20  C15 UNL     1      20.150   4.066  51.363  1.00  0.00    -0.053 A 
HETATM   21  C16 UNL     1      21.181   4.214  52.230  1.00  0.00     0.005 A 
HETATM   22  C17 UNL     1      22.111   5.285  51.923  1.00  0.00    -0.003 A 
HETATM   23  C18 UNL     1      21.601   5.796  50.822  1.00  0.00    -0.022 A 
HETATM   24  C19 UNL     1      20.345   5.123  50.342  1.00  0.00     0.063 A 
ENDBRANCH  19  20
ENDBRANCH  18  19
ENDBRANCH  17  18
ENDBRANCH  16  17
ENDBRANCH  13  16
ENDBRANCH   1  13
TORSDOF 9
ENDMDL
MODEL 4
REMARK VINA RESULT:      -6.7      3.028      6.100
REMARK  9 active torsions:
REMARK  status: ('A' for Active; 'I' for Inactive)
REMARK    1  A    between atoms: C2_2  and  C3_3 
REMARK    2  A    between atoms: C2_2  and  C8_10 
REMARK    3  A    between atoms: C3_3  and  N1_4 
REMARK    4  A    between atoms: C8_10  and  C9_12 
REMARK    5  A    between atoms: C9_12  and  C12_15 
REMARK    6  A    between atoms: C12_15  and  C13_16 
REMARK    7  A    between atoms: C13_16  and  O2_17 
REMARK    8  A    between atoms: O2_17  and  C14_18 
REMARK    9  A    between atoms: C14_18  and  C15_19 
ROOT
HETATM    1  C8  UNL     1      20.691   1.526  52.645  1.00  0.00     0.185 C 
HETATM    2  O1  UNL     1      20.186   2.668  52.936  1.00  0.00    -0.287 OA
ENDROOT
BRANCH   1   3
HETATM    3  C2  UNL     1      21.620   1.753  51.561  1.00  0.00     0.011 C 
HETATM    4  C1  UNL     1      21.934   0.969  50.564  1.00  0.00     0.025 C 
BRANCH   3   5
HETATM    5  C3  UNL     1      22.420   2.958  51.345  1.00  0.00     0.314 C 
BRANCH   5   6
HETATM    6  N1  UNL     1      23.381   3.274  52.343  1.00  0.00     0.096 N 
HETATM    7  C4  UNL     1      24.694   2.999  51.751  1.00  0.00     0.302 C 
HETATM    8  C5  UNL     1      24.948   3.850  50.551  1.00  0.00     0.299 C 
HETATM    9  N2  UNL     1      24.885   5.229  50.911  1.00  0.00     0.086 N 
HETATM   10  C6  UNL     1      23.660   5.589  51.590  1.00  0.00     0.299 C 
HETATM   11  H9  UNL     1      24.931   5.816  50.039  1.00  0.00     0.315 HD
HETATM   12  C7  UNL     1      23.372   4.671  52.751  1.00  0.00     0.302 C 
ENDBRANCH   5   6
ENDBRANCH   3   5
ENDBRANCH   1   3
BRANCH   1  13
HETATM   13  C9  UNL     1      20.331   0.296  53.334  1.00  0.00    -0.010 C 
HETATM   14  C10 UNL     1      19.282  -0.556  53.194  1.00  0.00    -0.020 C 
HETATM   15  C11 UNL     1      18.063  -0.714  52.374  1.00  0.00     0.036 C 
BRANCH  13  16
HETATM   16  C12 UNL     1      21.294  -0.079  54.406  1.00  0.00     0.068 C 
BRANCH  16  17
HETATM   17  C13 UNL     1      22.186  -1.232  54.096  1.00  0.00     0.172 C 
BRANCH  17  18
HETATM   18  O2  UNL     1      23.263  -0.941  53.328  1.00  0.00    -0.387 OA
BRANCH  18  19
HETATM   19  C14 UNL     1      24.174  -0.028  53.700  1.00  0.00     0.202 C 
BRANCH  19  20
HETATM   20  C15 UNL     1      25.614  -0.333  53.522  1.00  0.00    -0.053 A 
HETATM   21  C16 UNL     1      26.532   0.352  54.247  1.00  0.00     0.005 A 
HETATM   22  C17 UNL     1      27.917  -0.009  54.006  1.00  0.00    -0.003 A 
HETATM   23  C18 UNL     1      27.810  -0.952  53.093  1.00  0.00    -0.022 A 
HETATM   24  C19 UNL     1      26.399  -1.268  52.682  1.00  0.00     0.063 A 
ENDBRANCH  19  20
ENDBRANCH  18  19
ENDBRANCH  17  18
ENDBRANCH  16  17
ENDBRANCH  13  16
ENDBRANCH   1  13
TORSDOF 9
ENDMDL
MODEL 5
REMARK VINA RESULT:      -6.6      1.999      5.106
REMARK  9 active torsions:
REMARK  status: ('A' for Active; 'I' for Inactive)
REMARK    1  A    between atoms: C2_2  and  C3_3 
REMARK    2  A    between atoms: C2_2  and  C8_10 
REMARK    3  A    between atoms: C3_3  and  N1_4 
REMARK    4  A    between atoms: C8_10  and  C9_12 
REMARK    5  A    between atoms: C9_12  and  C12_15 
REMARK    6  A    between atoms: C12_15  and  C13_16 
REMARK    7  A    between atoms: C13_16  and  O2_17 
REMARK    8  A    between atoms: O2_17  and  C14_18 
REMARK    9  A    between atoms: C14_18  and  C15_19 
ROOT
HETATM    1  C8  UNL     1      25.584   3.177  51.031  1.00  0.00     0.185 C 
HETATM    2  O1  UNL     1      26.807   3.070  50.662  1.00  0.00    -0.287 OA
ENDROOT
BRANCH   1   3
HETATM    3  C2  UNL     1      25.477   2.497  52.301  1.00  0.00     0.011 C 
HETATM    4  C1  UNL     1      24.521   2.552  53.190  1.00  0.00     0.025 C 
BRANCH   3   5
HETATM    5  C3  UNL     1      26.450   1.563  52.866  1.00  0.00     0.314 C 
BRANCH   5   6
HETATM    6  N1  UNL     1      25.936   0.526  53.691  1.00  0.00     0.096 N 
HETATM    7  C4  UNL     1      26.167  -0.728  52.967  1.00  0.00     0.302 C 
HETATM    8  C5  UNL     1      27.622  -0.973  52.736  1.00  0.00     0.299 C 
HETATM    9  N2  UNL     1      28.309  -1.029  53.984  1.00  0.00     0.086 N 
HETATM   10  C6  UNL     1      28.074   0.127  54.821  1.00  0.00     0.299 C 
HETATM   11  H9  UNL     1      29.346  -1.066  53.806  1.00  0.00     0.315 HD
HETATM   12  C7  UNL     1      26.601   0.412  54.981  1.00  0.00     0.302 C 
ENDBRANCH   5   6
ENDBRANCH   3   5
ENDBRANCH   1   3
BRANCH   1  13
HETATM   13  C9  UNL     1      24.574   3.872  50.247  1.00  0.00    -0.010 C 
HETATM   14  C10 UNL     1      24.122   5.154  50.270  1.00  0.00    -0.020 C 
HETATM   15  C11 UNL     1      24.356   6.416  50.999  1.00  0.00     0.036 C 
BRANCH  13  16
HETATM   16  C12 UNL     1      23.905   2.997  49.244  1.00  0.00     0.068 C 
BRANCH  16  17
HETATM   17  C13 UNL     1      22.596   2.422  49.663  1.00  0.00     0.172 C 
BRANCH  17  18
HETATM   18  O2  UNL     1      22.671   1.342  50.477  1.00  0.00    -0.387 OA
BRANCH  18  19
HETATM   19  C14 UNL     1      21.580   0.800  51.040  1.00  0.00     0.202 C 
BRANCH  19  20
HETATM   20  C15 UNL     1      21.688   0.205  52.394  1.00  0.00    -0.053 A 
HETATM   21  C16 UNL     1      20.946   0.716  53.406  1.00  0.00     0.005 A 
HETATM   22  C17 UNL     1      21.118   0.075  54.696  1.00  0.00    -0.003 A 
HETATM   23  C18 UNL     1      22.007  -0.860  54.432  1.00  0.00    -0.022 A 
HETATM   24  C19 UNL     1      22.468  -0.900  53.001  1.00  0.00     0.063 A 
ENDBRANCH  19  20
ENDBRANCH  18  19
ENDBRANCH  17  18
ENDBRANCH  16  17
ENDBRANCH  13  16
ENDBRANCH   1  13
TORSDOF 9
ENDMDL
MODEL 6
REMARK VINA RESULT:      -6.6      2.611      6.045
REMARK  9 active torsions:
REMARK  status: ('A' for Active; 'I' for Inactive)
REMARK    1  A    between atoms: C2_2  and  C3_3 
REMARK    2  A    between atoms: C2_2  and  C8_10 
REMARK    3  A    between atoms: C3_3  and  N1_4 
REMARK    4  A    between atoms: C8_10  and  C9_12 
REMARK    5  A    between atoms: C9_12  and  C12_15 
REMARK    6  A    between atoms: C12_15  and  C13_16 
REMARK    7  A    between atoms: C13_16  and  O2_17 
REMARK    8  A    between atoms: O2_17  and  C14_18 
REMARK    9  A    between atoms: C14_18  and  C15_19 
ROOT
HETATM    1  C8  UNL     1      24.328   2.496  52.110  1.00  0.00     0.185 C 
HETATM    2  O1  UNL     1      24.267   3.592  52.774  1.00  0.00    -0.287 OA
ENDROOT
BRANCH   1   3
HETATM    3  C2  UNL     1      25.673   2.405  51.590  1.00  0.00     0.011 C 
HETATM    4  C1  UNL     1      26.182   2.949  50.517  1.00  0.00     0.025 C 
BRANCH   3   5
HETATM    5  C3  UNL     1      26.783   1.666  52.189  1.00  0.00     0.314 C 
BRANCH   5   6
HETATM    6  N1  UNL     1      27.178   2.055  53.497  1.00  0.00     0.096 N 
HETATM    7  C4  UNL     1      26.513   1.128  54.420  1.00  0.00     0.302 C 
HETATM    8  C5  UNL     1      26.939  -0.283  54.188  1.00  0.00     0.299 C 
HETATM    9  N2  UNL     1      28.350  -0.399  54.357  1.00  0.00     0.086 N 
HETATM   10  C6  UNL     1      29.103   0.540  53.556  1.00  0.00     0.299 C 
HETATM   11  H9  UNL     1      28.657  -1.362  54.062  1.00  0.00     0.315 HD
HETATM   12  C7  UNL     1      28.610   1.954  53.738  1.00  0.00     0.302 C 
ENDBRANCH   5   6
ENDBRANCH   3   5
ENDBRANCH   1   3
BRANCH   1  13
HETATM   13  C9  UNL     1      23.200   1.588  51.968  1.00  0.00    -0.010 C 
HETATM   14  C10 UNL     1      22.398   1.285  50.914  1.00  0.00    -0.020 C 
HETATM   15  C11 UNL     1      22.224   1.647  49.493  1.00  0.00     0.036 C 
BRANCH  13  16
HETATM   16  C12 UNL     1      22.860   0.873  53.230  1.00  0.00     0.068 C 
BRANCH  16  17
HETATM   17  C13 UNL     1      22.910  -0.615  53.160  1.00  0.00     0.172 C 
BRANCH  17  18
HETATM   18  O2  UNL     1      21.750  -1.248  53.459  1.00  0.00    -0.387 OA
BRANCH  18  19
HETATM   19  C14 UNL     1      20.668  -0.581  53.889  1.00  0.00     0.202 C 
BRANCH  19  20
HETATM   20  C15 UNL     1      19.459  -0.540  53.033  1.00  0.00    -0.053 A 
HETATM   21  C16 UNL     1      18.374  -1.275  53.378  1.00  0.00     0.005 A 
HETATM   22  C17 UNL     1      17.238  -1.177  52.480  1.00  0.00    -0.003 A 
HETATM   23  C18 UNL     1      17.676  -0.345  51.559  1.00  0.00    -0.022 A 
HETATM   24  C19 UNL     1      19.080   0.147  51.775  1.00  0.00     0.063 A 
ENDBRANCH  19  20
ENDBRANCH  18  19
ENDBRANCH  17  18
ENDBRANCH  16  17
ENDBRANCH  13  16
ENDBRANCH   1  13
TORSDOF 9
ENDMDL
MODEL 7
REMARK VINA RESULT:      -6.6      1.509      2.392
REMARK  9 active torsions:
REMARK  status: ('A' for Active; 'I' for Inactive)
REMARK    1  A    between atoms: C2_2  and  C3_3 
REMARK    2  A    between atoms: C2_2  and  C8_10 
REMARK    3  A    between atoms: C3_3  and  N1_4 
REMARK    4  A    between atoms: C8_10  and  C9_12 
REMARK    5  A    between atoms: C9_12  and  C12_15 
REMARK    6  A    between atoms: C12_15  and  C13_16 
REMARK    7  A    between atoms: C13_16  and  O2_17 
REMARK    8  A    between atoms: O2_17  and  C14_18 
REMARK    9  A    between atoms: C14_18  and  C15_19 
ROOT
HETATM    1  C8  UNL     1      23.805   1.473  53.062  1.00  0.00     0.185 C 
HETATM    2  O1  UNL     1      24.397   2.597  53.240  1.00  0.00    -0.287 OA
ENDROOT
BRANCH   1   3
HETATM    3  C2  UNL     1      24.753   0.447  53.430  1.00  0.00     0.011 C 
HETATM    4  C1  UNL     1      24.613  -0.852  53.413  1.00  0.00     0.025 C 
BRANCH   3   5
HETATM    5  C3  UNL     1      26.119   0.662  53.906  1.00  0.00     0.314 C 
BRANCH   5   6
HETATM    6  N1  UNL     1      27.166   0.395  52.983  1.00  0.00     0.096 N 
HETATM    7  C4  UNL     1      27.678   1.701  52.554  1.00  0.00     0.302 C 
HETATM    8  C5  UNL     1      28.233   2.481  53.699  1.00  0.00     0.299 C 
HETATM    9  N2  UNL     1      29.292   1.751  54.316  1.00  0.00     0.086 N 
HETATM   10  C6  UNL     1      28.917   0.408  54.697  1.00  0.00     0.299 C 
HETATM   11  H9  UNL     1      29.584   2.245  55.199  1.00  0.00     0.315 HD
HETATM   12  C7  UNL     1      28.283  -0.343  53.553  1.00  0.00     0.302 C 
ENDBRANCH   5   6
ENDBRANCH   3   5
ENDBRANCH   1   3
BRANCH   1  13
HETATM   13  C9  UNL     1      22.437   1.362  52.577  1.00  0.00    -0.010 C 
HETATM   14  C10 UNL     1      21.303   0.876  53.147  1.00  0.00    -0.020 C 
HETATM   15  C11 UNL     1      20.853   0.264  54.414  1.00  0.00     0.036 C 
BRANCH  13  16
HETATM   16  C12 UNL     1      22.266   1.863  51.186  1.00  0.00     0.068 C 
BRANCH  16  17
HETATM   17  C13 UNL     1      21.826   3.281  51.061  1.00  0.00     0.172 C 
BRANCH  17  18
HETATM   18  O2  UNL     1      21.965   3.825  49.828  1.00  0.00    -0.387 OA
BRANCH  18  19
HETATM   19  C14 UNL     1      22.937   3.439  48.988  1.00  0.00     0.202 C 
BRANCH  19  20
HETATM   20  C15 UNL     1      24.277   4.062  49.102  1.00  0.00    -0.053 A 
HETATM   21  C16 UNL     1      25.324   3.314  49.530  1.00  0.00     0.005 A 
HETATM   22  C17 UNL     1      26.596   4.007  49.614  1.00  0.00    -0.003 A 
HETATM   23  C18 UNL     1      26.284   5.223  49.219  1.00  0.00    -0.022 A 
HETATM   24  C19 UNL     1      24.837   5.413  48.859  1.00  0.00     0.063 A 
ENDBRANCH  19  20
ENDBRANCH  18  19
ENDBRANCH  17  18
ENDBRANCH  16  17
ENDBRANCH  13  16
ENDBRANCH   1  13
TORSDOF 9
ENDMDL
MODEL 8
REMARK VINA RESULT:      -6.5      2.744      5.376
REMARK  9 active torsions:
REMARK  status: ('A' for Active; 'I' for Inactive)
REMARK    1  A    between atoms: C2_2  and  C3_3 
REMARK    2  A    between atoms: C2_2  and  C8_10 
REMARK    3  A    between atoms: C3_3  and  N1_4 
REMARK    4  A    between atoms: C8_10  and  C9_12 
REMARK    5  A    between atoms: C9_12  and  C12_15 
REMARK    6  A    between atoms: C12_15  and  C13_16 
REMARK    7  A    between atoms: C13_16  and  O2_17 
REMARK    8  A    between atoms: O2_17  and  C14_18 
REMARK    9  A    between atoms: C14_18  and  C15_19 
ROOT
HETATM    1  C8  UNL     1      23.576   2.858  50.936  1.00  0.00     0.185 C 
HETATM    2  O1  UNL     1      24.582   2.876  50.141  1.00  0.00    -0.287 OA
ENDROOT
BRANCH   1   3
HETATM    3  C2  UNL     1      24.110   2.701  52.269  1.00  0.00     0.011 C 
HETATM    4  C1  UNL     1      24.111   3.548  53.264  1.00  0.00     0.025 C 
BRANCH   3   5
HETATM    5  C3  UNL     1      24.775   1.512  52.801  1.00  0.00     0.314 C 
BRANCH   5   6
HETATM    6  N1  UNL     1      26.194   1.493  52.744  1.00  0.00     0.096 N 
HETATM    7  C4  UNL     1      26.657   1.300  54.123  1.00  0.00     0.302 C 
HETATM    8  C5  UNL     1      26.182   0.004  54.689  1.00  0.00     0.299 C 
HETATM    9  N2  UNL     1      26.653  -1.078  53.889  1.00  0.00     0.086 N 
HETATM   10  C6  UNL     1      26.327  -0.940  52.487  1.00  0.00     0.299 C 
HETATM   11  H9  UNL     1      26.203  -1.972  54.216  1.00  0.00     0.315 HD
HETATM   12  C7  UNL     1      26.741   0.407  51.946  1.00  0.00     0.302 C 
ENDBRANCH   5   6
ENDBRANCH   3   5
ENDBRANCH   1   3
BRANCH   1  13
HETATM   13  C9  UNL     1      22.200   2.979  50.481  1.00  0.00    -0.010 C 
HETATM   14  C10 UNL     1      21.479   2.290  49.558  1.00  0.00    -0.020 C 
HETATM   15  C11 UNL     1      21.644   1.170  48.609  1.00  0.00     0.036 C 
BRANCH  13  16
HETATM   16  C12 UNL     1      21.456   4.083  51.149  1.00  0.00     0.068 C 
BRANCH  16  17
HETATM   17  C13 UNL     1      20.141   3.707  51.741  1.00  0.00     0.172 C 
BRANCH  17  18
HETATM   18  O2  UNL     1      20.204   2.902  52.828  1.00  0.00    -0.387 OA
BRANCH  18  19
HETATM   19  C14 UNL     1      19.866   1.605  52.770  1.00  0.00     0.202 C 
BRANCH  19  20
HETATM   20  C15 UNL     1      20.794   0.593  53.331  1.00  0.00    -0.053 A 
HETATM   21  C16 UNL     1      21.573  -0.131  52.492  1.00  0.00     0.005 A 
HETATM   22  C17 UNL     1      22.447  -1.100  53.128  1.00  0.00    -0.003 A 
HETATM   23  C18 UNL     1      22.168  -0.940  54.404  1.00  0.00    -0.022 A 
HETATM   24  C19 UNL     1      21.128   0.107  54.691  1.00  0.00     0.063 A 
ENDBRANCH  19  20
ENDBRANCH  18  19
ENDBRANCH  17  18
ENDBRANCH  16  17
ENDBRANCH  13  16
ENDBRANCH   1  13
TORSDOF 9
ENDMDL
MODEL 9
REMARK VINA RESULT:      -6.5      2.287      5.275
REMARK  9 active torsions:
REMARK  status: ('A' for Active; 'I' for Inactive)
REMARK    1  A    between atoms: C2_2  and  C3_3 
REMARK    2  A    between atoms: C2_2  and  C8_10 
REMARK    3  A    between atoms: C3_3  and  N1_4 
REMARK    4  A    between atoms: C8_10  and  C9_12 
REMARK    5  A    between atoms: C9_12  and  C12_15 
REMARK    6  A    between atoms: C12_15  and  C13_16 
REMARK    7  A    between atoms: C13_16  and  O2_17 
REMARK    8  A    between atoms: O2_17  and  C14_18 
REMARK    9  A    between atoms: C14_18  and  C15_19 
ROOT
HETATM    1  C8  UNL     1      24.483   1.823  51.473  1.00  0.00     0.185 C 
HETATM    2  O1  UNL     1      24.413   0.689  52.069  1.00  0.00    -0.287 OA
ENDROOT
BRANCH   1   3
HETATM    3  C2  UNL     1      25.886   2.155  51.387  1.00  0.00     0.011 C 
HETATM    4  C1  UNL     1      26.478   3.054  50.647  1.00  0.00     0.025 C 
BRANCH   3   5
HETATM    5  C3  UNL     1      26.970   1.535  52.149  1.00  0.00     0.314 C 
BRANCH   5   6
HETATM    6  N1  UNL     1      27.321   2.154  53.379  1.00  0.00     0.096 N 
HETATM    7  C4  UNL     1      26.574   1.446  54.423  1.00  0.00     0.302 C 
HETATM    8  C5  UNL     1      26.947   0.002  54.487  1.00  0.00     0.299 C 
HETATM    9  N2  UNL     1      28.342  -0.128  54.751  1.00  0.00     0.086 N 
HETATM   10  C6  UNL     1      29.173   0.613  53.827  1.00  0.00     0.299 C 
HETATM   11  H9  UNL     1      28.619  -1.140  54.660  1.00  0.00     0.315 HD
HETATM   12  C7  UNL     1      28.734   2.052  53.710  1.00  0.00     0.302 C 
ENDBRANCH   5   6
ENDBRANCH   3   5
ENDBRANCH   1   3
BRANCH   1  13
HETATM   13  C9  UNL     1      23.312   2.554  51.012  1.00  0.00    -0.010 C 
HETATM   14  C10 UNL     1      22.706   3.684  51.461  1.00  0.00    -0.020 C 
HETATM   15  C11 UNL     1      22.857   4.694  52.528  1.00  0.00     0.036 C 
BRANCH  13  16
HETATM   16  C12 UNL     1      22.653   1.923  49.835  1.00  0.00     0.068 C 
BRANCH  16  17
HETATM   17  C13 UNL     1      21.164   1.862  49.887  1.00  0.00     0.172 C 
BRANCH  17  18
HETATM   18  O2  UNL     1      20.650   0.794  50.543  1.00  0.00    -0.387 OA
BRANCH  18  19
HETATM   19  C14 UNL     1      20.078   0.912  51.751  1.00  0.00     0.202 C 
BRANCH  19  20
HETATM   20  C15 UNL     1      20.728   0.276  52.921  1.00  0.00    -0.053 A 
HETATM   21  C16 UNL     1      21.576  -0.763  52.727  1.00  0.00     0.005 A 
HETATM   22  C17 UNL     1      22.164  -1.326  53.929  1.00  0.00    -0.003 A 
HETATM   23  C18 UNL     1      21.634  -0.584  54.878  1.00  0.00    -0.022 A 
HETATM   24  C19 UNL     1      20.694   0.483  54.389  1.00  0.00     0.063 A 
ENDBRANCH  19  20
ENDBRANCH  18  19
ENDBRANCH  17  18
ENDBRANCH  16  17
ENDBRANCH  13  16
ENDBRANCH   1  13
TORSDOF 9
ENDMDL
