MODEL 1
REMARK VINA RESULT:      -8.1      0.000      0.000
REMARK  5 active torsions:
REMARK  status: ('A' for Active; 'I' for Inactive)
REMARK    1  A    between atoms: C2_3  and  C14_19 
REMARK    2  A    between atoms: C7_10  and  N3_11 
REMARK    3  A    between atoms: N3_11  and  C8_12 
REMARK    4  A    between atoms: C14_19  and  S1_20 
REMARK    5  A    between atoms: S1_20  and  O2_21 
ROOT
HETATM    1  C1  UNL     1      25.799  -0.454  54.242  1.00  0.00     0.000 C 
HETATM    2  O1  UNL     1      26.131   0.941  54.045  1.00  0.00     0.000 OA
HETATM    3  C2  UNL     1      27.281   1.206  53.025  1.00  0.00     0.042 A 
HETATM    4  C3  UNL     1      25.663   1.728  53.153  1.00  0.00     0.095 A 
HETATM    5  C4  UNL     1      25.431   2.651  51.921  1.00  0.00     0.099 A 
HETATM    6  C5  UNL     1      26.708   2.630  51.224  1.00  0.00     0.053 A 
HETATM    7  N1  UNL     1      26.933   3.286  50.153  1.00  0.00    -0.248 NA
HETATM    8  C6  UNL     1      25.837   4.027  49.709  1.00  0.00     0.235 A 
HETATM    9  N2  UNL     1      24.653   4.068  50.320  1.00  0.00    -0.227 NA
HETATM   10  C7  UNL     1      24.326   3.436  51.415  1.00  0.00     0.123 A 
HETATM   11  C14 UNL     1      26.989   1.963  52.066  1.00  0.00     0.075 A 
HETATM   12  S1  UNL     1      27.249   1.297  52.909  1.00  0.00    -0.159 SA
HETATM   13  H11 UNL     1      27.599   0.409  53.986  1.00  0.00     0.130 HD
ENDROOT
BRANCH  10  14
HETATM   14  N3  UNL     1      23.224   3.324  52.265  1.00  0.00    -0.343 N 
HETATM   15  H6  UNL     1      22.870   3.855  53.046  1.00  0.00     0.167 HD
BRANCH  14  16
HETATM   16  C8  UNL     1      22.476   2.226  51.871  1.00  0.00     0.034 A 
HETATM   17  C9  UNL     1      22.097   1.973  50.576  1.00  0.00     0.029 A 
HETATM   18  C10 UNL     1      21.394   0.813  50.332  1.00  0.00     0.004 A 
HETATM   19  C11 UNL     1      21.110  -0.024  51.386  1.00  0.00     0.019 A 
HETATM   20  C12 UNL     1      21.466   0.183  52.700  1.00  0.00     0.013 A 
HETATM   21 BR1  UNL     1      20.998  -1.055  54.048  1.00  0.00    -0.051 Br
HETATM   22  C13 UNL     1      22.161   1.340  52.909  1.00  0.00     0.048 A 
ENDBRANCH  14  16
ENDBRANCH  10  14
BRANCH  12  23
HETATM   23  O2  UNL     1      27.932  -0.306  55.011  1.00  0.00    -0.355 OA
HETATM   24  C15 UNL     1      29.105   0.172  54.294  1.00  0.00     0.217 C 
ENDBRANCH  12  23
TORSDOF 5
ENDMDL
MODEL 2
REMARK VINA RESULT:      -8.1      2.697      4.003
REMARK  5 active torsions:
REMARK  status: ('A' for Active; 'I' for Inactive)
REMARK    1  A    between atoms: C2_3  and  C14_19 
REMARK    2  A    between atoms: C7_10  and  N3_11 
REMARK    3  A    between atoms: N3_11  and  C8_12 
REMARK    4  A    between atoms: C14_19  and  S1_20 
REMARK    5  A    between atoms: S1_20  and  O2_21 
ROOT
HETATM    1  C1  UNL     1      29.073   1.303  54.256  1.00  0.00     0.000 C 
HETATM    2  O1  UNL     1      28.145   0.948  53.203  1.00  0.00     0.000 OA
HETATM    3  C2  UNL     1      27.396  -0.403  53.413  1.00  0.00     0.042 A 
HETATM    4  C3  UNL     1      26.894   1.206  53.158  1.00  0.00     0.095 A 
HETATM    5  C4  UNL     1      25.338   1.156  53.165  1.00  0.00     0.099 A 
HETATM    6  C5  UNL     1      25.035  -0.248  53.398  1.00  0.00     0.053 A 
HETATM    7  N1  UNL     1      23.846  -0.708  53.459  1.00  0.00    -0.248 NA
HETATM    8  C6  UNL     1      22.860   0.264  53.283  1.00  0.00     0.235 A 
HETATM    9  N2  UNL     1      23.100   1.557  53.070  1.00  0.00    -0.227 NA
HETATM   10  C7  UNL     1      24.275   2.122  52.990  1.00  0.00     0.123 A 
HETATM   11  C14 UNL     1      26.142  -0.333  53.405  1.00  0.00     0.075 A 
HETATM   12  S1  UNL     1      27.246  -0.398  53.412  1.00  0.00    -0.159 SA
HETATM   13  H11 UNL     1      28.681  -0.498  53.448  1.00  0.00     0.130 HD
ENDROOT
BRANCH  10  14
HETATM   14  N3  UNL     1      24.808   3.390  52.749  1.00  0.00    -0.343 N 
HETATM   15  H6  UNL     1      25.455   3.994  53.233  1.00  0.00     0.167 HD
BRANCH  14  16
HETATM   16  C8  UNL     1      24.312   3.852  51.541  1.00  0.00     0.034 A 
HETATM   17  C9  UNL     1      24.589   3.284  50.322  1.00  0.00     0.029 A 
HETATM   18  C10 UNL     1      23.982   3.828  49.211  1.00  0.00     0.004 A 
HETATM   19  C11 UNL     1      23.139   4.902  49.376  1.00  0.00     0.019 A 
HETATM   20  C12 UNL     1      22.829   5.508  50.573  1.00  0.00     0.013 A 
HETATM   21 BR1  UNL     1      21.655   6.987  50.645  1.00  0.00    -0.051 Br
HETATM   22  C13 UNL     1      23.446   4.946  51.654  1.00  0.00     0.048 A 
ENDBRANCH  14  16
ENDBRANCH  10  14
BRANCH  12  23
HETATM   23  O2  UNL     1      29.968  -0.593  53.379  1.00  0.00    -0.355 OA
HETATM   24  C15 UNL     1      29.334  -1.901  53.304  1.00  0.00     0.217 C 
ENDBRANCH  12  23
TORSDOF 5
ENDMDL
MODEL 3
REMARK VINA RESULT:      -7.8      2.485      3.926
REMARK  5 active torsions:
REMARK  status: ('A' for Active; 'I' for Inactive)
REMARK    1  A    between atoms: C2_3  and  C14_19 
REMARK    2  A    between atoms: C7_10  and  N3_11 
REMARK    3  A    between atoms: N3_11  and  C8_12 
REMARK    4  A    between atoms: C14_19  and  S1_20 
REMARK    5  A    between atoms: S1_20  and  O2_21 
ROOT
HETATM    1  C1  UNL     1      28.451   2.158  53.196  1.00  0.00     0.000 C 
HETATM    2  O1  UNL     1      27.741   0.942  52.859  1.00  0.00     0.000 OA
HETATM    3  C2  UNL     1      27.460  -0.011  54.061  1.00  0.00     0.042 A 
HETATM    4  C3  UNL     1      26.478   0.751  52.894  1.00  0.00     0.095 A 
HETATM    5  C4  UNL     1      25.023   0.311  53.232  1.00  0.00     0.099 A 
HETATM    6  C5  UNL     1      25.179  -0.543  54.400  1.00  0.00     0.053 A 
HETATM    7  N1  UNL     1      24.202  -1.122  54.981  1.00  0.00    -0.248 NA
HETATM    8  C6  UNL     1      22.964  -0.858  54.392  1.00  0.00     0.235 A 
HETATM    9  N2  UNL     1      22.784  -0.081  53.325  1.00  0.00    -0.227 NA
HETATM   10  C7  UNL     1      23.715   0.552  52.662  1.00  0.00     0.123 A 
HETATM   11  C14 UNL     1      26.252  -0.302  54.249  1.00  0.00     0.075 A 
HETATM   12  S1  UNL     1      27.316  -0.048  54.086  1.00  0.00    -0.159 SA
HETATM   13  H11 UNL     1      28.703   0.291  53.903  1.00  0.00     0.130 HD
ENDROOT
BRANCH  10  14
HETATM   14  N3  UNL     1      23.821   1.370  51.536  1.00  0.00    -0.343 N 
HETATM   15  H6  UNL     1      24.205   1.260  50.610  1.00  0.00     0.167 HD
BRANCH  14  16
HETATM   16  C8  UNL     1      23.217   2.585  51.819  1.00  0.00     0.034 A 
HETATM   17  C9  UNL     1      23.852   3.643  52.421  1.00  0.00     0.029 A 
HETATM   18  C10 UNL     1      23.132   4.805  52.594  1.00  0.00     0.004 A 
HETATM   19  C11 UNL     1      21.827   4.847  52.162  1.00  0.00     0.019 A 
HETATM   20  C12 UNL     1      21.145   3.816  51.555  1.00  0.00     0.013 A 
HETATM   21 BR1  UNL     1      19.345   4.016  51.019  1.00  0.00    -0.051 Br
HETATM   22  C13 UNL     1      21.886   2.679  51.397  1.00  0.00     0.048 A 
ENDBRANCH  14  16
ENDBRANCH  10  14
BRANCH  12  23
HETATM   23  O2  UNL     1      29.954   0.520  53.670  1.00  0.00    -0.355 OA
HETATM   24  C15 UNL     1      29.742  -0.897  53.924  1.00  0.00     0.217 C 
ENDBRANCH  12  23
TORSDOF 5
ENDMDL
MODEL 4
REMARK VINA RESULT:      -7.7      2.533      3.916
REMARK  5 active torsions:
REMARK  status: ('A' for Active; 'I' for Inactive)
REMARK    1  A    between atoms: C2_3  and  C14_19 
REMARK    2  A    between atoms: C7_10  and  N3_11 
REMARK    3  A    between atoms: N3_11  and  C8_12 
REMARK    4  A    between atoms: C14_19  and  S1_20 
REMARK    5  A    between atoms: S1_20  and  O2_21 
ROOT
HETATM    1  C1  UNL     1      27.486   2.109  52.750  1.00  0.00     0.000 C 
HETATM    2  O1  UNL     1      26.906   0.784  52.678  1.00  0.00     0.000 OA
HETATM    3  C2  UNL     1      26.896  -0.004  54.023  1.00  0.00     0.042 A 
HETATM    4  C3  UNL     1      25.692   0.460  52.909  1.00  0.00     0.095 A 
HETATM    5  C4  UNL     1      24.357  -0.084  53.498  1.00  0.00     0.099 A 
HETATM    6  C5  UNL     1      24.760  -0.732  54.737  1.00  0.00     0.053 A 
HETATM    7  N1  UNL     1      23.942  -1.323  55.517  1.00  0.00    -0.248 NA
HETATM    8  C6  UNL     1      22.619  -1.290  55.072  1.00  0.00     0.235 A 
HETATM    9  N2  UNL     1      22.215  -0.706  53.945  1.00  0.00    -0.227 NA
HETATM   10  C7  UNL     1      22.970  -0.080  53.083  1.00  0.00     0.123 A 
HETATM   11  C14 UNL     1      25.767  -0.397  54.411  1.00  0.00     0.075 A 
HETATM   12  S1  UNL     1      26.762  -0.053  54.072  1.00  0.00    -0.159 SA
HETATM   13  H11 UNL     1      28.061   0.408  53.660  1.00  0.00     0.130 HD
ENDROOT
BRANCH  10  14
HETATM   14  N3  UNL     1      22.835   0.568  51.854  1.00  0.00    -0.343 N 
HETATM   15  H6  UNL     1      23.380   0.608  51.006  1.00  0.00     0.167 HD
BRANCH  14  16
HETATM   16  C8  UNL     1      21.646   1.280  51.863  1.00  0.00     0.034 A 
HETATM   17  C9  UNL     1      21.507   2.549  52.369  1.00  0.00     0.029 A 
HETATM   18  C10 UNL     1      20.270   3.147  52.264  1.00  0.00     0.004 A 
HETATM   19  C11 UNL     1      19.247   2.451  51.664  1.00  0.00     0.019 A 
HETATM   20  C12 UNL     1      19.333   1.179  51.143  1.00  0.00     0.013 A 
HETATM   21 BR1  UNL     1      17.835   0.342  50.353  1.00  0.00    -0.051 Br
HETATM   22  C13 UNL     1      20.571   0.614  51.262  1.00  0.00     0.048 A 
ENDBRANCH  14  16
ENDBRANCH  10  14
BRANCH  12  23
HETATM   23  O2  UNL     1      29.235   0.739  53.230  1.00  0.00    -0.355 OA
HETATM   24  C15 UNL     1      29.312  -0.405  54.127  1.00  0.00     0.217 C 
ENDBRANCH  12  23
TORSDOF 5
ENDMDL
MODEL 5
REMARK VINA RESULT:      -7.7      3.458      5.691
REMARK  5 active torsions:
REMARK  status: ('A' for Active; 'I' for Inactive)
REMARK    1  A    between atoms: C2_3  and  C14_19 
REMARK    2  A    between atoms: C7_10  and  N3_11 
REMARK    3  A    between atoms: N3_11  and  C8_12 
REMARK    4  A    between atoms: C14_19  and  S1_20 
REMARK    5  A    between atoms: S1_20  and  O2_21 
ROOT
HETATM    1  C1  UNL     1      21.283   0.221  51.543  1.00  0.00     0.000 C 
HETATM    2  O1  UNL     1      22.134   1.002  52.415  1.00  0.00     0.000 OA
HETATM    3  C2  UNL     1      23.127   0.170  53.284  1.00  0.00     0.042 A 
HETATM    4  C3  UNL     1      23.308   1.439  52.160  1.00  0.00     0.095 A 
HETATM    5  C4  UNL     1      24.840   1.709  52.089  1.00  0.00     0.099 A 
HETATM    6  C5  UNL     1      25.408   0.740  53.015  1.00  0.00     0.053 A 
HETATM    7  N1  UNL     1      26.657   0.649  53.254  1.00  0.00    -0.248 NA
HETATM    8  C6  UNL     1      27.433   1.566  52.543  1.00  0.00     0.235 A 
HETATM    9  N2  UNL     1      26.948   2.465  51.687  1.00  0.00    -0.227 NA
HETATM   10  C7  UNL     1      25.690   2.637  51.376  1.00  0.00     0.123 A 
HETATM   11  C14 UNL     1      24.341   0.466  53.151  1.00  0.00     0.075 A 
HETATM   12  S1  UNL     1      23.272   0.204  53.271  1.00  0.00    -0.159 SA
HETATM   13  H11 UNL     1      21.891  -0.167  53.422  1.00  0.00     0.130 HD
ENDROOT
BRANCH  10  14
HETATM   14  N3  UNL     1      24.920   3.484  50.578  1.00  0.00    -0.343 N 
HETATM   15  H6  UNL     1      23.934   3.590  50.397  1.00  0.00     0.167 HD
BRANCH  14  16
HETATM   16  C8  UNL     1      25.768   4.373  49.936  1.00  0.00     0.034 A 
HETATM   17  C9  UNL     1      26.866   4.000  49.199  1.00  0.00     0.029 A 
HETATM   18  C10 UNL     1      27.587   4.997  48.580  1.00  0.00     0.004 A 
HETATM   19  C11 UNL     1      27.178   6.302  48.730  1.00  0.00     0.019 A 
HETATM   20  C12 UNL     1      26.089   6.728  49.456  1.00  0.00     0.013 A 
HETATM   21 BR1  UNL     1      25.651   8.561  49.579  1.00  0.00    -0.051 Br
HETATM   22  C13 UNL     1      25.395   5.716  50.057  1.00  0.00     0.048 A 
ENDBRANCH  14  16
ENDBRANCH  10  14
BRANCH  12  23
HETATM   23  O2  UNL     1      20.640  -0.424  53.625  1.00  0.00    -0.355 OA
HETATM   24  C15 UNL     1      21.485  -1.062  54.623  1.00  0.00     0.217 C 
ENDBRANCH  12  23
TORSDOF 5
ENDMDL
MODEL 6
REMARK VINA RESULT:      -7.5      3.982      6.978
REMARK  5 active torsions:
REMARK  status: ('A' for Active; 'I' for Inactive)
REMARK    1  A    between atoms: C2_3  and  C14_19 
REMARK    2  A    between atoms: C7_10  and  N3_11 
REMARK    3  A    between atoms: N3_11  and  C8_12 
REMARK    4  A    between atoms: C14_19  and  S1_20 
REMARK    5  A    between atoms: S1_20  and  O2_21 
ROOT
HETATM    1  C1  UNL     1      21.065   0.967  49.278  1.00  0.00     0.000 C 
HETATM    2  O1  UNL     1      21.123   1.359  50.670  1.00  0.00     0.000 OA
HETATM    3  C2  UNL     1      20.196   0.544  51.623  1.00  0.00     0.042 A 
HETATM    4  C3  UNL     1      21.870   0.865  51.581  1.00  0.00     0.095 A 
HETATM    5  C4  UNL     1      22.462   0.116  52.812  1.00  0.00     0.099 A 
HETATM    6  C5  UNL     1      21.305  -0.520  53.423  1.00  0.00     0.053 A 
HETATM    7  N1  UNL     1      21.372  -1.228  54.482  1.00  0.00    -0.248 NA
HETATM    8  C6  UNL     1      22.663  -1.336  55.003  1.00  0.00     0.235 A 
HETATM    9  N2  UNL     1      23.744  -0.769  54.470  1.00  0.00    -0.227 NA
HETATM   10  C7  UNL     1      23.779  -0.030  53.393  1.00  0.00     0.123 A 
HETATM   11  C14 UNL     1      20.774  -0.024  52.584  1.00  0.00     0.075 A 
HETATM   12  S1  UNL     1      20.263   0.475  51.739  1.00  0.00    -0.159 SA
HETATM   13  H11 UNL     1      19.584   1.097  50.633  1.00  0.00     0.130 HD
ENDROOT
BRANCH  10  14
HETATM   14  N3  UNL     1      24.717   0.694  52.654  1.00  0.00    -0.343 N 
HETATM   15  H6  UNL     1      24.675   1.483  52.028  1.00  0.00     0.167 HD
BRANCH  14  16
HETATM   16  C8  UNL     1      25.974   0.169  52.909  1.00  0.00     0.034 A 
HETATM   17  C9  UNL     1      26.348  -1.120  52.618  1.00  0.00     0.029 A 
HETATM   18  C10 UNL     1      27.649  -1.484  52.886  1.00  0.00     0.004 A 
HETATM   19  C11 UNL     1      28.500  -0.548  53.428  1.00  0.00     0.019 A 
HETATM   20  C12 UNL     1      28.176   0.753  53.739  1.00  0.00     0.013 A 
HETATM   21 BR1  UNL     1      29.452   1.927  54.487  1.00  0.00    -0.051 Br
HETATM   22  C13 UNL     1      26.880   1.083  53.460  1.00  0.00     0.048 A 
ENDBRANCH  14  16
ENDBRANCH  10  14
BRANCH  12  23
HETATM   23  O2  UNL     1      18.970   1.741  49.695  1.00  0.00    -0.355 OA
HETATM   24  C15 UNL     1      18.053   1.360  50.759  1.00  0.00     0.217 C 
ENDBRANCH  12  23
TORSDOF 5
ENDMDL
MODEL 7
REMARK VINA RESULT:      -7.4      6.395      8.119
REMARK  5 active torsions:
REMARK  status: ('A' for Active; 'I' for Inactive)
REMARK    1  A    between atoms: C2_3  and  C14_19 
REMARK    2  A    between atoms: C7_10  and  N3_11 
REMARK    3  A    between atoms: N3_11  and  C8_12 
REMARK    4  A    between atoms: C14_19  and  S1_20 
REMARK    5  A    between atoms: S1_20  and  O2_21 
ROOT
HETATM    1  C1  UNL     1      32.424   3.879  45.974  1.00  0.00     0.000 C 
HETATM    2  O1  UNL     1      31.901   4.215  47.282  1.00  0.00     0.000 OA
HETATM    3  C2  UNL     1      32.858   5.062  48.176  1.00  0.00     0.042 A 
HETATM    4  C3  UNL     1      31.263   5.273  47.610  1.00  0.00     0.095 A 
HETATM    5  C4  UNL     1      30.802   6.645  48.185  1.00  0.00     0.099 A 
HETATM    6  C5  UNL     1      31.957   7.115  48.935  1.00  0.00     0.053 A 
HETATM    7  N1  UNL     1      31.974   8.217  49.577  1.00  0.00    -0.248 NA
HETATM    8  C6  UNL     1      30.779   8.933  49.494  1.00  0.00     0.235 A 
HETATM    9  N2  UNL     1      29.704   8.534  48.817  1.00  0.00    -0.227 NA
HETATM   10  C7  UNL     1      29.587   7.428  48.131  1.00  0.00     0.123 A 
HETATM   11  C14 UNL     1      32.389   6.153  48.587  1.00  0.00     0.075 A 
HETATM   12  S1  UNL     1      32.804   5.193  48.227  1.00  0.00    -0.159 SA
HETATM   13  H11 UNL     1      33.369   3.959  47.749  1.00  0.00     0.130 HD
ENDROOT
BRANCH  10  14
HETATM   14  N3  UNL     1      28.614   6.761  47.385  1.00  0.00    -0.343 N 
HETATM   15  H6  UNL     1      28.540   6.449  46.429  1.00  0.00     0.167 HD
BRANCH  14  16
HETATM   16  C8  UNL     1      27.545   6.472  48.217  1.00  0.00     0.034 A 
HETATM   17  C9  UNL     1      26.562   7.370  48.555  1.00  0.00     0.029 A 
HETATM   18  C10 UNL     1      25.535   6.920  49.357  1.00  0.00     0.004 A 
HETATM   19  C11 UNL     1      25.546   5.611  49.776  1.00  0.00     0.019 A 
HETATM   20  C12 UNL     1      26.506   4.673  49.468  1.00  0.00     0.013 A 
HETATM   21 BR1  UNL     1      26.394   2.905  50.124  1.00  0.00    -0.051 Br
HETATM   22  C13 UNL     1      27.509   5.148  48.671  1.00  0.00     0.048 A 
ENDBRANCH  14  16
ENDBRANCH  10  14
BRANCH  12  23
HETATM   23  O2  UNL     1      33.831   2.804  47.398  1.00  0.00    -0.355 OA
HETATM   24  C15 UNL     1      34.815   3.589  48.129  1.00  0.00     0.217 C 
ENDBRANCH  12  23
TORSDOF 5
ENDMDL
MODEL 8
REMARK VINA RESULT:      -7.4      2.851      4.387
REMARK  5 active torsions:
REMARK  status: ('A' for Active; 'I' for Inactive)
REMARK    1  A    between atoms: C2_3  and  C14_19 
REMARK    2  A    between atoms: C7_10  and  N3_11 
REMARK    3  A    between atoms: N3_11  and  C8_12 
REMARK    4  A    between atoms: C14_19  and  S1_20 
REMARK    5  A    between atoms: S1_20  and  O2_21 
ROOT
HETATM    1  C1  UNL     1      23.084   3.052  50.464  1.00  0.00     0.000 C 
HETATM    2  O1  UNL     1      24.266   2.233  50.630  1.00  0.00     0.000 OA
HETATM    3  C2  UNL     1      25.421   2.901  51.438  1.00  0.00     0.042 A 
HETATM    4  C3  UNL     1      24.534   1.454  51.606  1.00  0.00     0.095 A 
HETATM    5  C4  UNL     1      25.110   0.767  52.880  1.00  0.00     0.099 A 
HETATM    6  C5  UNL     1      26.136   1.689  53.341  1.00  0.00     0.053 A 
HETATM    7  N1  UNL     1      26.859   1.475  54.370  1.00  0.00    -0.248 NA
HETATM    8  C6  UNL     1      26.575   0.271  55.015  1.00  0.00     0.235 A 
HETATM    9  N2  UNL     1      25.643  -0.596  54.622  1.00  0.00    -0.227 NA
HETATM   10  C7  UNL     1      24.855  -0.470  53.587  1.00  0.00     0.123 A 
HETATM   11  C14 UNL     1      25.810   2.265  52.449  1.00  0.00     0.075 A 
HETATM   12  S1  UNL     1      25.470   2.826  51.559  1.00  0.00    -0.159 SA
HETATM   13  H11 UNL     1      25.024   3.582  50.419  1.00  0.00     0.130 HD
ENDROOT
BRANCH  10  14
HETATM   14  N3  UNL     1      23.855  -1.200  52.941  1.00  0.00    -0.343 N 
HETATM   15  H6  UNL     1      23.845  -1.961  52.279  1.00  0.00     0.167 HD
BRANCH  14  16
HETATM   16  C8  UNL     1      22.624  -0.737  53.377  1.00  0.00     0.034 A 
HETATM   17  C9  UNL     1      22.286  -0.558  54.696  1.00  0.00     0.029 A 
HETATM   18  C10 UNL     1      21.038  -0.046  54.971  1.00  0.00     0.004 A 
HETATM   19  C11 UNL     1      20.200   0.258  53.923  1.00  0.00     0.019 A 
HETATM   20  C12 UNL     1      20.488   0.096  52.587  1.00  0.00     0.013 A 
HETATM   21 BR1  UNL     1      19.231   0.551  51.252  1.00  0.00    -0.051 Br
HETATM   22  C13 UNL     1      21.733  -0.413  52.346  1.00  0.00     0.048 A 
ENDBRANCH  14  16
ENDBRANCH  10  14
BRANCH  12  23
HETATM   23  O2  UNL     1      24.686   4.204  49.337  1.00  0.00    -0.355 OA
HETATM   24  C15 UNL     1      26.097   4.408  49.627  1.00  0.00     0.217 C 
ENDBRANCH  12  23
TORSDOF 5
ENDMDL
MODEL 9
REMARK VINA RESULT:      -7.3      3.427      4.400
REMARK  5 active torsions:
REMARK  status: ('A' for Active; 'I' for Inactive)
REMARK    1  A    between atoms: C2_3  and  C14_19 
REMARK    2  A    between atoms: C7_10  and  N3_11 
REMARK    3  A    between atoms: N3_11  and  C8_12 
REMARK    4  A    between atoms: C14_19  and  S1_20 
REMARK    5  A    between atoms: S1_20  and  O2_21 
ROOT
HETATM    1  C1  UNL     1      21.234  -0.481  53.093  1.00  0.00     0.000 C 
HETATM    2  O1  UNL     1      22.263   0.447  53.512  1.00  0.00     0.000 OA
HETATM    3  C2  UNL     1      23.691  -0.167  53.640  1.00  0.00     0.042 A 
HETATM    4  C3  UNL     1      23.032   1.137  52.760  1.00  0.00     0.095 A 
HETATM    5  C4  UNL     1      24.227   1.738  51.962  1.00  0.00     0.099 A 
HETATM    6  C5  UNL     1      25.354   0.896  52.334  1.00  0.00     0.053 A 
HETATM    7  N1  UNL     1      26.538   1.076  51.894  1.00  0.00    -0.248 NA
HETATM    8  C6  UNL     1      26.653   2.157  51.019  1.00  0.00     0.235 A 
HETATM    9  N2  UNL     1      25.644   2.947  50.656  1.00  0.00    -0.227 NA
HETATM   10  C7  UNL     1      24.402   2.847  51.049  1.00  0.00     0.123 A 
HETATM   11  C14 UNL     1      24.583   0.391  52.952  1.00  0.00     0.075 A 
HETATM   12  S1  UNL     1      23.800  -0.102  53.559  1.00  0.00    -0.159 SA
HETATM   13  H11 UNL     1      22.790  -0.770  54.336  1.00  0.00     0.130 HD
ENDROOT
BRANCH  10  14
HETATM   14  N3  UNL     1      23.194   3.523  50.871  1.00  0.00    -0.343 N 
HETATM   15  H6  UNL     1      22.592   4.073  51.464  1.00  0.00     0.167 HD
BRANCH  14  16
HETATM   16  C8  UNL     1      22.806   3.385  49.548  1.00  0.00     0.034 A 
HETATM   17  C9  UNL     1      22.415   2.200  48.975  1.00  0.00     0.029 A 
HETATM   18  C10 UNL     1      22.011   2.230  47.658  1.00  0.00     0.004 A 
HETATM   19  C11 UNL     1      22.020   3.432  46.990  1.00  0.00     0.019 A 
HETATM   20  C12 UNL     1      22.402   4.645  47.516  1.00  0.00     0.013 A 
HETATM   21 BR1  UNL     1      22.368   6.219  46.472  1.00  0.00    -0.051 Br
HETATM   22  C13 UNL     1      22.796   4.583  48.823  1.00  0.00     0.048 A 
ENDBRANCH  14  16
ENDBRANCH  10  14
BRANCH  12  23
HETATM   23  O2  UNL     1      21.898  -1.301  55.106  1.00  0.00    -0.355 OA
HETATM   24  C15 UNL     1      23.233  -1.486  55.654  1.00  0.00     0.217 C 
ENDBRANCH  12  23
TORSDOF 5
ENDMDL
