MODEL 1
REMARK VINA RESULT:      -7.2      0.000      0.000
REMARK  3 active torsions:
REMARK  status: ('A' for Active; 'I' for Inactive)
REMARK    1  A    between atoms: C3_3  and  C4_5 
REMARK    2  A    between atoms: C4_5  and  C5_6 
REMARK    3  A    between atoms: N1_11  and  C10_12 
ROOT
HETATM    1  C5  UNL     1      24.713   0.012  53.842  1.00  0.00     0.031 C 
HETATM    2  C6  UNL     1      24.286  -1.018  54.559  1.00  0.00    -0.001 C 
HETATM    3  C7  UNL     1      23.078  -0.993  55.062  1.00  0.00     0.015 C 
HETATM    4  C8  UNL     1      22.037  -0.499  54.155  1.00  0.00     0.018 C 
HETATM    5  C9  UNL     1      22.407   0.252  53.102  1.00  0.00     0.095 C 
HETATM    6  N1  UNL     1      23.809   0.553  52.887  1.00  0.00    -0.320 N 
ENDROOT
BRANCH   6   7
HETATM    7  C10 UNL     1      23.992   1.345  51.743  1.00  0.00     0.315 C 
HETATM    8  N2  UNL     1      22.826   1.317  50.919  1.00  0.00    -0.258 NA
HETATM    9  C11 UNL     1      22.649   2.018  49.861  1.00  0.00     0.121 C 
HETATM   10  C12 UNL     1      22.923   3.464  50.170  1.00  0.00     0.179 C 
HETATM   11  C13 UNL     1      24.357   3.450  50.708  1.00  0.00     0.158 C 
HETATM   12  O1  UNL     1      22.005   3.831  51.147  1.00  0.00    -0.379 OA
HETATM   13  N3  UNL     1      24.340   2.711  51.932  1.00  0.00    -0.372 N 
HETATM   14  C14 UNL     1      23.775   3.416  53.017  1.00  0.00     0.123 C 
HETATM   15  C15 UNL     1      23.464   4.883  52.717  1.00  0.00     0.046 C 
HETATM   16  C16 UNL     1      22.403   5.045  51.670  1.00  0.00     0.170 C 
ENDBRANCH   6   7
BRANCH   1  17
HETATM   17  C4  UNL     1      26.022   0.711  53.884  1.00  0.00     0.104 C 
BRANCH  17  18
HETATM   18  C3  UNL     1      27.178  -0.182  53.595  1.00  0.00    -0.010 C 
HETATM   19  C2  UNL     1      28.412  -0.108  54.082  1.00  0.00    -0.016 C 
HETATM   20  C1  UNL     1      29.398  -1.124  53.640  1.00  0.00     0.037 C 
HETATM   21 BR1  UNL     1      26.833  -1.610  52.373  1.00  0.00    -0.056 Br
ENDBRANCH  17  18
ENDBRANCH   1  17
TORSDOF 3
ENDMDL
MODEL 2
REMARK VINA RESULT:      -7.1      3.116      6.107
REMARK  3 active torsions:
REMARK  status: ('A' for Active; 'I' for Inactive)
REMARK    1  A    between atoms: C3_3  and  C4_5 
REMARK    2  A    between atoms: C4_5  and  C5_6 
REMARK    3  A    between atoms: N1_11  and  C10_12 
ROOT
HETATM    1  C5  UNL     1      24.275   2.698  51.384  1.00  0.00     0.031 C 
HETATM    2  C6  UNL     1      24.173   3.226  50.173  1.00  0.00    -0.001 C 
HETATM    3  C7  UNL     1      25.203   3.845  49.653  1.00  0.00     0.015 C 
HETATM    4  C8  UNL     1      26.491   3.172  49.840  1.00  0.00     0.018 C 
HETATM    5  C9  UNL     1      26.604   2.264  50.826  1.00  0.00     0.095 C 
HETATM    6  N1  UNL     1      25.464   1.973  51.674  1.00  0.00    -0.320 N 
ENDROOT
BRANCH   6   7
HETATM    7  C10 UNL     1      25.778   1.005  52.638  1.00  0.00     0.315 C 
HETATM    8  N2  UNL     1      26.348  -0.152  52.025  1.00  0.00    -0.258 NA
HETATM    9  C11 UNL     1      26.829  -1.162  52.650  1.00  0.00     0.121 C 
HETATM   10  C12 UNL     1      27.821  -0.686  53.676  1.00  0.00     0.179 C 
HETATM   11  C13 UNL     1      27.008   0.284  54.537  1.00  0.00     0.158 C 
HETATM   12  O1  UNL     1      28.827  -0.037  52.969  1.00  0.00    -0.379 OA
HETATM   13  N3  UNL     1      26.644   1.386  53.701  1.00  0.00    -0.372 N 
HETATM   14  C14 UNL     1      27.708   2.274  53.430  1.00  0.00     0.123 C 
HETATM   15  C15 UNL     1      28.982   1.987  54.227  1.00  0.00     0.046 C 
HETATM   16  C16 UNL     1      29.597   0.666  53.873  1.00  0.00     0.170 C 
ENDBRANCH   6   7
BRANCH   1  17
HETATM   17  C4  UNL     1      23.318   2.749  52.517  1.00  0.00     0.104 C 
BRANCH  17  18
HETATM   18  C3  UNL     1      22.048   2.021  52.251  1.00  0.00    -0.010 C 
HETATM   19  C2  UNL     1      21.882   0.726  52.001  1.00  0.00    -0.016 C 
HETATM   20  C1  UNL     1      20.503   0.232  51.766  1.00  0.00     0.037 C 
HETATM   21 BR1  UNL     1      20.463   3.088  52.278  1.00  0.00    -0.056 Br
ENDBRANCH  17  18
ENDBRANCH   1  17
TORSDOF 3
ENDMDL
MODEL 3
REMARK VINA RESULT:      -7.0      3.051      5.851
REMARK  3 active torsions:
REMARK  status: ('A' for Active; 'I' for Inactive)
REMARK    1  A    between atoms: C3_3  and  C4_5 
REMARK    2  A    between atoms: C4_5  and  C5_6 
REMARK    3  A    between atoms: N1_11  and  C10_12 
ROOT
HETATM    1  C5  UNL     1      23.000   0.201  53.419  1.00  0.00     0.031 C 
HETATM    2  C6  UNL     1      22.035  -0.135  54.263  1.00  0.00    -0.001 C 
HETATM    3  C7  UNL     1      22.145  -1.239  54.958  1.00  0.00     0.015 C 
HETATM    4  C8  UNL     1      23.472  -1.481  55.533  1.00  0.00     0.018 C 
HETATM    5  C9  UNL     1      24.529  -0.844  54.998  1.00  0.00     0.095 C 
HETATM    6  N1  UNL     1      24.339   0.058  53.879  1.00  0.00    -0.320 N 
ENDROOT
BRANCH   6   7
HETATM    7  C10 UNL     1      25.554   0.622  53.465  1.00  0.00     0.315 C 
HETATM    8  N2  UNL     1      26.356   0.976  54.592  1.00  0.00    -0.258 NA
HETATM    9  C11 UNL     1      27.558   1.418  54.537  1.00  0.00     0.121 C 
HETATM   10  C12 UNL     1      28.390   0.494  53.691  1.00  0.00     0.179 C 
HETATM   11  C13 UNL     1      27.646   0.468  52.352  1.00  0.00     0.158 C 
HETATM   12  O1  UNL     1      28.362  -0.742  54.326  1.00  0.00    -0.379 OA
HETATM   13  N3  UNL     1      26.375  -0.143  52.589  1.00  0.00    -0.372 N 
HETATM   14  C14 UNL     1      26.435  -1.542  52.760  1.00  0.00     0.123 C 
HETATM   15  C15 UNL     1      27.811  -2.149  52.476  1.00  0.00     0.046 C 
HETATM   16  C16 UNL     1      28.856  -1.684  53.445  1.00  0.00     0.170 C 
ENDBRANCH   6   7
BRANCH   1  17
HETATM   17  C4  UNL     1      22.900   0.715  52.030  1.00  0.00     0.104 C 
BRANCH  17  18
HETATM   18  C3  UNL     1      21.738   1.620  51.817  1.00  0.00    -0.010 C 
HETATM   19  C2  UNL     1      21.617   2.896  52.167  1.00  0.00    -0.016 C 
HETATM   20  C1  UNL     1      20.348   3.592  51.841  1.00  0.00     0.037 C 
HETATM   21 BR1  UNL     1      20.238   0.840  50.926  1.00  0.00    -0.056 Br
ENDBRANCH  17  18
ENDBRANCH   1  17
TORSDOF 3
ENDMDL
MODEL 4
REMARK VINA RESULT:      -6.9      2.624      5.699
REMARK  3 active torsions:
REMARK  status: ('A' for Active; 'I' for Inactive)
REMARK    1  A    between atoms: C3_3  and  C4_5 
REMARK    2  A    between atoms: C4_5  and  C5_6 
REMARK    3  A    between atoms: N1_11  and  C10_12 
ROOT
HETATM    1  C5  UNL     1      22.289   2.169  51.442  1.00  0.00     0.031 C 
HETATM    2  C6  UNL     1      21.462   3.202  51.361  1.00  0.00    -0.001 C 
HETATM    3  C7  UNL     1      21.493   4.123  52.290  1.00  0.00     0.015 C 
HETATM    4  C8  UNL     1      22.835   4.540  52.707  1.00  0.00     0.018 C 
HETATM    5  C9  UNL     1      23.869   3.715  52.459  1.00  0.00     0.095 C 
HETATM    6  N1  UNL     1      23.639   2.449  51.792  1.00  0.00    -0.320 N 
ENDROOT
BRANCH   6   7
HETATM    7  C10 UNL     1      24.834   1.735  51.624  1.00  0.00     0.315 C 
HETATM    8  N2  UNL     1      25.961   2.563  51.911  1.00  0.00    -0.258 NA
HETATM    9  C11 UNL     1      27.181   2.171  51.945  1.00  0.00     0.121 C 
HETATM   10  C12 UNL     1      27.292   0.969  52.841  1.00  0.00     0.179 C 
HETATM   11  C13 UNL     1      26.306  -0.028  52.227  1.00  0.00     0.158 C 
HETATM   12  O1  UNL     1      26.888   1.389  54.103  1.00  0.00    -0.379 OA
HETATM   13  N3  UNL     1      24.998   0.532  52.367  1.00  0.00    -0.372 N 
HETATM   14  C14 UNL     1      24.485   0.467  53.680  1.00  0.00     0.123 C 
HETATM   15  C15 UNL     1      25.344  -0.349  54.648  1.00  0.00     0.046 C 
HETATM   16  C16 UNL     1      26.691   0.267  54.882  1.00  0.00     0.170 C 
ENDBRANCH   6   7
BRANCH   1  17
HETATM   17  C4  UNL     1      22.019   0.726  51.221  1.00  0.00     0.104 C 
BRANCH  17  18
HETATM   18  C3  UNL     1      20.742   0.265  51.830  1.00  0.00    -0.010 C 
HETATM   19  C2  UNL     1      19.535   0.224  51.274  1.00  0.00    -0.016 C 
HETATM   20  C1  UNL     1      18.406  -0.282  52.091  1.00  0.00     0.037 C 
HETATM   21 BR1  UNL     1      20.862  -0.347  53.637  1.00  0.00    -0.056 Br
ENDBRANCH  17  18
ENDBRANCH   1  17
TORSDOF 3
ENDMDL
MODEL 5
REMARK VINA RESULT:      -6.8      1.634      2.709
REMARK  3 active torsions:
REMARK  status: ('A' for Active; 'I' for Inactive)
REMARK    1  A    between atoms: C3_3  and  C4_5 
REMARK    2  A    between atoms: C4_5  and  C5_6 
REMARK    3  A    between atoms: N1_11  and  C10_12 
ROOT
HETATM    1  C5  UNL     1      23.334   0.207  53.112  1.00  0.00     0.031 C 
HETATM    2  C6  UNL     1      23.156  -1.020  53.579  1.00  0.00    -0.001 C 
HETATM    3  C7  UNL     1      22.406  -1.203  54.635  1.00  0.00     0.015 C 
HETATM    4  C8  UNL     1      21.157  -0.435  54.651  1.00  0.00     0.018 C 
HETATM    5  C9  UNL     1      21.063   0.653  53.865  1.00  0.00     0.095 C 
HETATM    6  N1  UNL     1      22.184   1.040  53.029  1.00  0.00    -0.320 N 
ENDROOT
BRANCH   6   7
HETATM    7  C10 UNL     1      21.894   2.194  52.288  1.00  0.00     0.315 C 
HETATM    8  N2  UNL     1      23.086   2.930  52.012  1.00  0.00    -0.258 NA
HETATM    9  C11 UNL     1      23.160   3.973  51.272  1.00  0.00     0.121 C 
HETATM   10  C12 UNL     1      22.516   3.686  49.943  1.00  0.00     0.179 C 
HETATM   11  C13 UNL     1      21.096   3.256  50.319  1.00  0.00     0.158 C 
HETATM   12  O1  UNL     1      23.243   2.644  49.378  1.00  0.00    -0.379 OA
HETATM   13  N3  UNL     1      21.206   2.033  51.052  1.00  0.00    -0.372 N 
HETATM   14  C14 UNL     1      21.501   0.909  50.250  1.00  0.00     0.123 C 
HETATM   15  C15 UNL     1      21.460   1.187  48.745  1.00  0.00     0.046 C 
HETATM   16  C16 UNL     1      22.521   2.153  48.309  1.00  0.00     0.170 C 
ENDBRANCH   6   7
BRANCH   1  17
HETATM   17  C4  UNL     1      24.580   0.868  52.651  1.00  0.00     0.104 C 
BRANCH  17  18
HETATM   18  C3  UNL     1      25.815   0.125  53.021  1.00  0.00    -0.010 C 
HETATM   19  C2  UNL     1      26.549  -0.678  52.256  1.00  0.00    -0.016 C 
HETATM   20  C1  UNL     1      27.748  -1.310  52.858  1.00  0.00     0.037 C 
HETATM   21 BR1  UNL     1      26.415   0.362  54.820  1.00  0.00    -0.056 Br
ENDBRANCH  17  18
ENDBRANCH   1  17
TORSDOF 3
ENDMDL
MODEL 6
REMARK VINA RESULT:      -6.6      3.383      4.830
REMARK  3 active torsions:
REMARK  status: ('A' for Active; 'I' for Inactive)
REMARK    1  A    between atoms: C3_3  and  C4_5 
REMARK    2  A    between atoms: C4_5  and  C5_6 
REMARK    3  A    between atoms: N1_11  and  C10_12 
ROOT
HETATM    1  C5  UNL     1      22.134   1.966  50.777  1.00  0.00     0.031 C 
HETATM    2  C6  UNL     1      21.798   0.930  50.022  1.00  0.00    -0.001 C 
HETATM    3  C7  UNL     1      21.378   1.136  48.799  1.00  0.00     0.015 C 
HETATM    4  C8  UNL     1      22.140   2.131  48.040  1.00  0.00     0.018 C 
HETATM    5  C9  UNL     1      22.886   3.023  48.718  1.00  0.00     0.095 C 
HETATM    6  N1  UNL     1      22.921   2.982  50.167  1.00  0.00    -0.320 N 
ENDROOT
BRANCH   6   7
HETATM    7  C10 UNL     1      23.750   3.986  50.686  1.00  0.00     0.315 C 
HETATM    8  N2  UNL     1      24.664   4.450  49.693  1.00  0.00    -0.258 NA
HETATM    9  C11 UNL     1      25.478   5.430  49.833  1.00  0.00     0.121 C 
HETATM   10  C12 UNL     1      24.724   6.637  50.319  1.00  0.00     0.179 C 
HETATM   11  C13 UNL     1      24.065   6.150  51.613  1.00  0.00     0.158 C 
HETATM   12  O1  UNL     1      23.786   6.930  49.336  1.00  0.00    -0.379 OA
HETATM   13  N3  UNL     1      23.126   5.134  51.250  1.00  0.00    -0.372 N 
HETATM   14  C14 UNL     1      21.947   5.632  50.654  1.00  0.00     0.123 C 
HETATM   15  C15 UNL     1      21.826   7.157  50.682  1.00  0.00     0.046 C 
HETATM   16  C16 UNL     1      22.885   7.833  49.863  1.00  0.00     0.170 C 
ENDBRANCH   6   7
BRANCH   1  17
HETATM   17  C4  UNL     1      21.807   2.241  52.198  1.00  0.00     0.104 C 
BRANCH  17  18
HETATM   18  C3  UNL     1      22.001   1.064  53.088  1.00  0.00    -0.010 C 
HETATM   19  C2  UNL     1      21.094   0.444  53.837  1.00  0.00    -0.016 C 
HETATM   20  C1  UNL     1      21.535  -0.719  54.645  1.00  0.00     0.037 C 
HETATM   21 BR1  UNL     1      23.777   0.362  53.153  1.00  0.00    -0.056 Br
ENDBRANCH  17  18
ENDBRANCH   1  17
TORSDOF 3
ENDMDL
MODEL 7
REMARK VINA RESULT:      -6.4      2.580      5.758
REMARK  3 active torsions:
REMARK  status: ('A' for Active; 'I' for Inactive)
REMARK    1  A    between atoms: C3_3  and  C4_5 
REMARK    2  A    between atoms: C4_5  and  C5_6 
REMARK    3  A    between atoms: N1_11  and  C10_12 
ROOT
HETATM    1  C5  UNL     1      22.799   3.543  51.367  1.00  0.00     0.031 C 
HETATM    2  C6  UNL     1      21.837   3.702  50.469  1.00  0.00    -0.001 C 
HETATM    3  C7  UNL     1      21.774   2.889  49.445  1.00  0.00     0.015 C 
HETATM    4  C8  UNL     1      21.988   1.474  49.761  1.00  0.00     0.018 C 
HETATM    5  C9  UNL     1      22.619   1.161  50.907  1.00  0.00     0.095 C 
HETATM    6  N1  UNL     1      23.069   2.214  51.795  1.00  0.00    -0.320 N 
ENDROOT
BRANCH   6   7
HETATM    7  C10 UNL     1      23.702   1.689  52.931  1.00  0.00     0.315 C 
HETATM    8  N2  UNL     1      23.328   0.326  53.132  1.00  0.00    -0.258 NA
HETATM    9  C11 UNL     1      23.816  -0.454  54.024  1.00  0.00     0.121 C 
HETATM   10  C12 UNL     1      25.318  -0.428  53.941  1.00  0.00     0.179 C 
HETATM   11  C13 UNL     1      25.660   1.055  54.115  1.00  0.00     0.158 C 
HETATM   12  O1  UNL     1      25.642  -0.890  52.671  1.00  0.00    -0.379 OA
HETATM   13  N3  UNL     1      25.123   1.747  52.985  1.00  0.00    -0.372 N 
HETATM   14  C14 UNL     1      25.858   1.557  51.795  1.00  0.00     0.123 C 
HETATM   15  C15 UNL     1      27.177   0.806  51.987  1.00  0.00     0.046 C 
HETATM   16  C16 UNL     1      26.974  -0.608  52.443  1.00  0.00     0.170 C 
ENDBRANCH   6   7
BRANCH   1  17
HETATM   17  C4  UNL     1      23.663   4.563  52.012  1.00  0.00     0.104 C 
BRANCH  17  18
HETATM   18  C3  UNL     1      24.101   5.640  51.082  1.00  0.00    -0.010 C 
HETATM   19  C2  UNL     1      23.751   6.922  51.089  1.00  0.00    -0.016 C 
HETATM   20  C1  UNL     1      24.327   7.808  50.049  1.00  0.00     0.037 C 
HETATM   21 BR1  UNL     1      25.321   5.102  49.712  1.00  0.00    -0.056 Br
ENDBRANCH  17  18
ENDBRANCH   1  17
TORSDOF 3
ENDMDL
MODEL 8
REMARK VINA RESULT:      -6.3      9.478     11.632
REMARK  3 active torsions:
REMARK  status: ('A' for Active; 'I' for Inactive)
REMARK    1  A    between atoms: C3_3  and  C4_5 
REMARK    2  A    between atoms: C4_5  and  C5_6 
REMARK    3  A    between atoms: N1_11  and  C10_12 
ROOT
HETATM    1  C5  UNL     1      30.289   8.011  48.600  1.00  0.00     0.031 C 
HETATM    2  C6  UNL     1      29.046   8.172  49.031  1.00  0.00    -0.001 C 
HETATM    3  C7  UNL     1      28.070   7.546  48.424  1.00  0.00     0.015 C 
HETATM    4  C8  UNL     1      28.345   6.147  48.086  1.00  0.00     0.018 C 
HETATM    5  C9  UNL     1      29.626   5.742  48.021  1.00  0.00     0.095 C 
HETATM    6  N1  UNL     1      30.696   6.685  48.284  1.00  0.00    -0.320 N 
ENDROOT
BRANCH   6   7
HETATM    7  C10 UNL     1      31.954   6.076  48.168  1.00  0.00     0.315 C 
HETATM    8  N2  UNL     1      31.830   4.654  48.191  1.00  0.00    -0.258 NA
HETATM    9  C11 UNL     1      32.787   3.822  48.004  1.00  0.00     0.121 C 
HETATM   10  C12 UNL     1      33.506   4.170  46.730  1.00  0.00     0.179 C 
HETATM   11  C13 UNL     1      33.940   5.623  46.949  1.00  0.00     0.158 C 
HETATM   12  O1  UNL     1      32.567   4.056  45.712  1.00  0.00    -0.379 OA
HETATM   13  N3  UNL     1      32.749   6.409  47.036  1.00  0.00    -0.372 N 
HETATM   14  C14 UNL     1      32.113   6.624  45.795  1.00  0.00     0.123 C 
HETATM   15  C15 UNL     1      32.915   6.134  44.587  1.00  0.00     0.046 C 
HETATM   16  C16 UNL     1      33.092   4.645  44.580  1.00  0.00     0.170 C 
ENDBRANCH   6   7
BRANCH   1  17
HETATM   17  C4  UNL     1      31.352   9.025  48.387  1.00  0.00     0.104 C 
BRANCH  17  18
HETATM   18  C3  UNL     1      30.827  10.412  48.259  1.00  0.00    -0.010 C 
HETATM   19  C2  UNL     1      30.772  11.356  49.193  1.00  0.00    -0.016 C 
HETATM   20  C1  UNL     1      30.200  12.673  48.819  1.00  0.00     0.037 C 
HETATM   21 BR1  UNL     1      30.155  10.885  46.534  1.00  0.00    -0.056 Br
ENDBRANCH  17  18
ENDBRANCH   1  17
TORSDOF 3
ENDMDL
MODEL 9
REMARK VINA RESULT:      -6.1     10.341     12.099
REMARK  3 active torsions:
REMARK  status: ('A' for Active; 'I' for Inactive)
REMARK    1  A    between atoms: C3_3  and  C4_5 
REMARK    2  A    between atoms: C4_5  and  C5_6 
REMARK    3  A    between atoms: N1_11  and  C10_12 
ROOT
HETATM    1  C5  UNL     1      33.968   4.718  45.479  1.00  0.00     0.031 C 
HETATM    2  C6  UNL     1      34.787   3.677  45.509  1.00  0.00    -0.001 C 
HETATM    3  C7  UNL     1      35.322   3.314  46.647  1.00  0.00     0.015 C 
HETATM    4  C8  UNL     1      34.406   3.311  47.792  1.00  0.00     0.018 C 
HETATM    5  C9  UNL     1      33.279   4.040  47.713  1.00  0.00     0.095 C 
HETATM    6  N1  UNL     1      32.995   4.804  46.513  1.00  0.00    -0.320 N 
ENDROOT
BRANCH   6   7
HETATM    7  C10 UNL     1      31.779   5.495  46.623  1.00  0.00     0.315 C 
HETATM    8  N2  UNL     1      31.004   4.983  47.707  1.00  0.00    -0.258 NA
HETATM    9  C11 UNL     1      29.894   5.471  48.122  1.00  0.00     0.121 C 
HETATM   10  C12 UNL     1      30.062   6.945  48.372  1.00  0.00     0.179 C 
HETATM   11  C13 UNL     1      30.546   7.484  47.023  1.00  0.00     0.158 C 
HETATM   12  O1  UNL     1      31.035   7.061  49.358  1.00  0.00    -0.379 OA
HETATM   13  N3  UNL     1      31.832   6.909  46.776  1.00  0.00    -0.372 N 
HETATM   14  C14 UNL     1      32.869   7.473  47.549  1.00  0.00     0.123 C 
HETATM   15  C15 UNL     1      32.451   8.703  48.356  1.00  0.00     0.046 C 
HETATM   16  C16 UNL     1      31.433   8.382  49.409  1.00  0.00     0.170 C 
ENDBRANCH   6   7
BRANCH   1  17
HETATM   17  C4  UNL     1      33.906   5.842  44.511  1.00  0.00     0.104 C 
BRANCH  17  18
HETATM   18  C3  UNL     1      34.077   5.412  43.096  1.00  0.00    -0.010 C 
HETATM   19  C2  UNL     1      33.327   4.562  42.402  1.00  0.00    -0.016 C 
HETATM   20  C1  UNL     1      33.702   4.292  40.992  1.00  0.00     0.037 C 
HETATM   21 BR1  UNL     1      35.559   6.186  42.171  1.00  0.00    -0.056 Br
ENDBRANCH  17  18
ENDBRANCH   1  17
TORSDOF 3
ENDMDL
