MODEL 1
REMARK VINA RESULT:      -8.8      0.000      0.000
REMARK  2 active torsions:
REMARK  status: ('A' for Active; 'I' for Inactive)
REMARK    1  A    between atoms: O1_2  and  C2_3 
REMARK       I    between atoms: C10_12  and  N2_13 
REMARK    2  A    between atoms: N2_13  and  C11_14 
ROOT
HETATM    1  C2  UNL     1      24.320   4.315  50.688  1.00  0.00     0.069 A 
HETATM    2  C3  UNL     1      23.601   4.981  51.659  1.00  0.00     0.039 A 
HETATM    3  C4  UNL     1      22.343   4.454  51.981  1.00  0.00     0.034 A 
HETATM    4  C5  UNL     1      21.743   3.321  51.418  1.00  0.00     0.058 A 
HETATM    5  C6  UNL     1      22.483   2.671  50.445  1.00  0.00    -0.003 A 
HETATM    6  C7  UNL     1      23.728   3.198  50.131  1.00  0.00     0.050 A 
HETATM    7  C8  UNL     1      22.115   1.508  49.640  1.00  0.00     0.047 C 
HETATM    8  C9  UNL     1      21.224   0.735  50.243  1.00  0.00     0.084 C 
HETATM    9  N1  UNL     1      21.528   0.711  51.499  1.00  0.00    -0.241 NA
HETATM   10  C10 UNL     1      22.795   0.593  51.921  1.00  0.00     0.336 C 
HETATM   11  N2  UNL     1      23.739   1.207  52.712  1.00  0.00    -0.349 N 
HETATM   12  N3  UNL     1      22.409  -0.362  53.040  1.00  0.00    -0.242 NA
HETATM   13  C17 UNL     1      21.531   0.204  53.852  1.00  0.00     0.189 C 
HETATM   14  N4  UNL     1      21.153   1.551  53.500  1.00  0.00    -0.215 NA
HETATM   15  O2  UNL     1      20.147   2.340  53.078  1.00  0.00     0.000 OA
HETATM   16  N5  UNL     1      20.508   3.150  52.061  1.00  0.00    -0.300 N 
HETATM   17  H9  UNL     1      23.461   2.061  53.236  1.00  0.00     0.163 HD
HETATM   18  H14 UNL     1      20.154   1.227  53.304  1.00  0.00     0.148 HD
HETATM   19  H15 UNL     1      19.868   3.818  51.595  1.00  0.00     0.187 HD
ENDROOT
BRANCH  11  20
HETATM   20  C11 UNL     1      25.077   0.747  52.883  1.00  0.00     0.032 A 
HETATM   21  C12 UNL     1      25.489  -0.566  52.835  1.00  0.00     0.032 A 
HETATM   22  C13 UNL     1      26.791  -0.965  53.000  1.00  0.00     0.046 A 
HETATM   23  C14 UNL     1      27.770  -0.048  53.227  1.00  0.00     0.138 A 
HETATM   24  F1  UNL     1      29.068  -0.397  53.395  1.00  0.00    -0.204 F 
HETATM   25  C15 UNL     1      27.368   1.270  53.278  1.00  0.00     0.074 A 
HETATM   26 CL1  UNL     1      28.569   2.521  53.566  1.00  0.00    -0.081 Cl
HETATM   27  C16 UNL     1      26.056   1.656  53.110  1.00  0.00     0.056 A 
ENDBRANCH  11  20
BRANCH   1  28
HETATM   28  O1  UNL     1      25.559   4.775  50.324  1.00  0.00    -0.356 OA
HETATM   29  C1  UNL     1      26.487   3.924  49.726  1.00  0.00     0.210 C 
ENDBRANCH   1  28
TORSDOF 2
ENDMDL
MODEL 2
REMARK VINA RESULT:      -8.7      2.271      4.395
REMARK  2 active torsions:
REMARK  status: ('A' for Active; 'I' for Inactive)
REMARK    1  A    between atoms: O1_2  and  C2_3 
REMARK       I    between atoms: C10_12  and  N2_13 
REMARK    2  A    between atoms: N2_13  and  C11_14 
ROOT
HETATM    1  C2  UNL     1      22.367   0.499  52.850  1.00  0.00     0.069 A 
HETATM    2  C3  UNL     1      21.989   0.187  51.560  1.00  0.00     0.039 A 
HETATM    3  C4  UNL     1      21.999   1.238  50.632  1.00  0.00     0.034 A 
HETATM    4  C5  UNL     1      22.354   2.569  50.880  1.00  0.00     0.058 A 
HETATM    5  C6  UNL     1      22.729   2.857  52.182  1.00  0.00    -0.003 A 
HETATM    6  C7  UNL     1      22.717   1.813  53.096  1.00  0.00     0.050 A 
HETATM    7  C8  UNL     1      23.096   4.146  52.765  1.00  0.00     0.047 C 
HETATM    8  C9  UNL     1      23.586   4.988  51.865  1.00  0.00     0.084 C 
HETATM    9  N1  UNL     1      24.317   4.296  51.054  1.00  0.00    -0.241 NA
HETATM   10  C10 UNL     1      25.153   3.343  51.489  1.00  0.00     0.336 C 
HETATM   11  N2  UNL     1      25.454   2.009  51.336  1.00  0.00    -0.349 N 
HETATM   12  N3  UNL     1      26.241   3.749  50.507  1.00  0.00    -0.242 NA
HETATM   13  C17 UNL     1      25.798   3.671  49.263  1.00  0.00     0.189 C 
HETATM   14  N4  UNL     1      24.429   3.234  49.129  1.00  0.00    -0.215 NA
HETATM   15  O2  UNL     1      23.188   3.596  48.755  1.00  0.00     0.000 OA
HETATM   16  N5  UNL     1      22.247   3.255  49.661  1.00  0.00    -0.300 N 
HETATM   17  H9  UNL     1      24.914   1.460  50.636  1.00  0.00     0.163 HD
HETATM   18  H14 UNL     1      24.155   4.189  48.736  1.00  0.00     0.148 HD
HETATM   19  H15 UNL     1      21.238   3.462  49.558  1.00  0.00     0.187 HD
ENDROOT
BRANCH  11  20
HETATM   20  C11 UNL     1      26.469   1.318  52.060  1.00  0.00     0.032 A 
HETATM   21  C12 UNL     1      27.469   1.906  52.802  1.00  0.00     0.032 A 
HETATM   22  C13 UNL     1      28.425   1.202  53.489  1.00  0.00     0.046 A 
HETATM   23  C14 UNL     1      28.429  -0.159  53.467  1.00  0.00     0.138 A 
HETATM   24  F1  UNL     1      29.353  -0.894  54.130  1.00  0.00    -0.204 F 
HETATM   25  C15 UNL     1      27.433  -0.757  52.724  1.00  0.00     0.074 A 
HETATM   26 CL1  UNL     1      27.365  -2.512  52.642  1.00  0.00    -0.081 Cl
HETATM   27  C16 UNL     1      26.479  -0.037  52.040  1.00  0.00     0.056 A 
ENDBRANCH  11  20
BRANCH   1  28
HETATM   28  O1  UNL     1      22.381  -0.480  53.810  1.00  0.00    -0.356 OA
HETATM   29  C1  UNL     1      21.216  -1.167  54.143  1.00  0.00     0.210 C 
ENDBRANCH   1  28
TORSDOF 2
ENDMDL
MODEL 3
REMARK VINA RESULT:      -8.2      3.374      5.227
REMARK  2 active torsions:
REMARK  status: ('A' for Active; 'I' for Inactive)
REMARK    1  A    between atoms: O1_2  and  C2_3 
REMARK       I    between atoms: C10_12  and  N2_13 
REMARK    2  A    between atoms: N2_13  and  C11_14 
ROOT
HETATM    1  C2  UNL     1      21.294   2.444  49.239  1.00  0.00     0.069 A 
HETATM    2  C3  UNL     1      22.432   2.230  48.489  1.00  0.00     0.039 A 
HETATM    3  C4  UNL     1      23.573   2.956  48.859  1.00  0.00     0.034 A 
HETATM    4  C5  UNL     1      23.675   3.874  49.910  1.00  0.00     0.058 A 
HETATM    5  C6  UNL     1      22.519   4.072  50.647  1.00  0.00    -0.003 A 
HETATM    6  C7  UNL     1      21.393   3.351  50.277  1.00  0.00     0.050 A 
HETATM    7  C8  UNL     1      22.289   4.994  51.758  1.00  0.00     0.047 C 
HETATM    8  C9  UNL     1      23.403   5.283  52.416  1.00  0.00     0.084 C 
HETATM    9  N1  UNL     1      24.104   4.199  52.475  1.00  0.00    -0.241 NA
HETATM   10  C10 UNL     1      23.550   3.009  52.746  1.00  0.00     0.336 C 
HETATM   11  N2  UNL     1      23.421   1.731  52.250  1.00  0.00    -0.349 N 
HETATM   12  N3  UNL     1      24.704   2.595  53.644  1.00  0.00    -0.242 NA
HETATM   13  C17 UNL     1      25.845   2.614  52.975  1.00  0.00     0.189 C 
HETATM   14  N4  UNL     1      25.735   3.012  51.592  1.00  0.00    -0.215 NA
HETATM   15  O2  UNL     1      26.053   3.956  50.688  1.00  0.00     0.000 OA
HETATM   16  N5  UNL     1      25.002   4.330  49.928  1.00  0.00    -0.300 N 
HETATM   17  H9  UNL     1      23.918   1.495  51.367  1.00  0.00     0.163 HD
HETATM   18  H14 UNL     1      26.307   3.892  51.792  1.00  0.00     0.148 HD
HETATM   19  H15 UNL     1      25.046   5.053  49.189  1.00  0.00     0.187 HD
ENDROOT
BRANCH  11  20
HETATM   20  C11 UNL     1      22.666   0.693  52.869  1.00  0.00     0.032 A 
HETATM   21  C12 UNL     1      23.163  -0.256  53.734  1.00  0.00     0.032 A 
HETATM   22  C13 UNL     1      22.398  -1.237  54.313  1.00  0.00     0.046 A 
HETATM   23  C14 UNL     1      21.066  -1.318  54.049  1.00  0.00     0.138 A 
HETATM   24  F1  UNL     1      20.273  -2.269  54.598  1.00  0.00    -0.204 F 
HETATM   25  C15 UNL     1      20.558  -0.373  53.183  1.00  0.00     0.074 A 
HETATM   26 CL1  UNL     1      18.846  -0.405  52.788  1.00  0.00    -0.081 Cl
HETATM   27  C16 UNL     1      21.339   0.606  52.610  1.00  0.00     0.056 A 
ENDBRANCH  11  20
BRANCH   1  28
HETATM   28  O1  UNL     1      20.142   1.767  48.934  1.00  0.00    -0.356 OA
HETATM   29  C1  UNL     1      19.055   1.783  49.806  1.00  0.00     0.210 C 
ENDBRANCH   1  28
TORSDOF 2
ENDMDL
MODEL 4
REMARK VINA RESULT:      -8.2      3.063      4.959
REMARK  2 active torsions:
REMARK  status: ('A' for Active; 'I' for Inactive)
REMARK    1  A    between atoms: O1_2  and  C2_3 
REMARK       I    between atoms: C10_12  and  N2_13 
REMARK    2  A    between atoms: N2_13  and  C11_14 
ROOT
HETATM    1  C2  UNL     1      25.253   2.233  53.318  1.00  0.00     0.069 A 
HETATM    2  C3  UNL     1      25.084   0.919  52.934  1.00  0.00     0.039 A 
HETATM    3  C4  UNL     1      23.843   0.585  52.372  1.00  0.00     0.034 A 
HETATM    4  C5  UNL     1      22.762   1.447  52.161  1.00  0.00     0.058 A 
HETATM    5  C6  UNL     1      22.956   2.761  52.556  1.00  0.00    -0.003 A 
HETATM    6  C7  UNL     1      24.186   3.086  53.111  1.00  0.00     0.050 A 
HETATM    7  C8  UNL     1      22.013   3.876  52.520  1.00  0.00     0.047 C 
HETATM    8  C9  UNL     1      21.087   3.728  51.583  1.00  0.00     0.084 C 
HETATM    9  N1  UNL     1      21.667   3.204  50.553  1.00  0.00    -0.241 NA
HETATM   10  C10 UNL     1      22.873   3.612  50.134  1.00  0.00     0.336 C 
HETATM   11  N2  UNL     1      24.139   3.151  49.852  1.00  0.00    -0.349 N 
HETATM   12  N3  UNL     1      22.468   3.538  48.670  1.00  0.00    -0.242 NA
HETATM   13  C17 UNL     1      22.080   2.313  48.356  1.00  0.00     0.189 C 
HETATM   14  N4  UNL     1      22.126   1.361  49.440  1.00  0.00    -0.215 NA
HETATM   15  O2  UNL     1      21.392   0.580  50.254  1.00  0.00     0.000 OA
HETATM   16  N5  UNL     1      21.749   0.693  51.550  1.00  0.00    -0.300 N 
HETATM   17  H9  UNL     1      24.321   2.131  49.937  1.00  0.00     0.163 HD
HETATM   18  H14 UNL     1      21.062   1.268  49.414  1.00  0.00     0.148 HD
HETATM   19  H15 UNL     1      21.291   0.182  52.326  1.00  0.00     0.187 HD
ENDROOT
BRANCH  11  20
HETATM   20  C11 UNL     1      25.226   3.972  49.432  1.00  0.00     0.032 A 
HETATM   21  C12 UNL     1      26.541   3.576  49.333  1.00  0.00     0.032 A 
HETATM   22  C13 UNL     1      27.557   4.398  48.919  1.00  0.00     0.046 A 
HETATM   23  C14 UNL     1      27.303   5.689  48.572  1.00  0.00     0.138 A 
HETATM   24  F1  UNL     1      28.275   6.536  48.157  1.00  0.00    -0.204 F 
HETATM   25  C15 UNL     1      25.988   6.096  48.669  1.00  0.00     0.074 A 
HETATM   26 CL1  UNL     1      25.571   7.750  48.241  1.00  0.00    -0.081 Cl
HETATM   27  C16 UNL     1      24.978   5.258  49.087  1.00  0.00     0.056 A 
ENDBRANCH  11  20
BRANCH   1  28
HETATM   28  O1  UNL     1      26.442   2.631  53.874  1.00  0.00    -0.356 OA
HETATM   29  C1  UNL     1      27.652   2.127  53.403  1.00  0.00     0.210 C 
ENDBRANCH   1  28
TORSDOF 2
ENDMDL
MODEL 5
REMARK VINA RESULT:      -7.9      6.488      9.221
REMARK  2 active torsions:
REMARK  status: ('A' for Active; 'I' for Inactive)
REMARK    1  A    between atoms: O1_2  and  C2_3 
REMARK       I    between atoms: C10_12  and  N2_13 
REMARK    2  A    between atoms: N2_13  and  C11_14 
ROOT
HETATM    1  C2  UNL     1      31.234   5.622  48.236  1.00  0.00     0.069 A 
HETATM    2  C3  UNL     1      31.755   6.242  49.353  1.00  0.00     0.039 A 
HETATM    3  C4  UNL     1      31.532   7.621  49.466  1.00  0.00     0.034 A 
HETATM    4  C5  UNL     1      30.835   8.432  48.563  1.00  0.00     0.058 A 
HETATM    5  C6  UNL     1      30.323   7.786  47.450  1.00  0.00    -0.003 A 
HETATM    6  C7  UNL     1      30.547   6.421  47.344  1.00  0.00     0.050 A 
HETATM    7  C8  UNL     1      29.605   8.356  46.312  1.00  0.00     0.047 C 
HETATM    8  C9  UNL     1      28.971   9.478  46.622  1.00  0.00     0.084 C 
HETATM    9  N1  UNL     1      28.489   9.327  47.812  1.00  0.00    -0.241 NA
HETATM   10  C10 UNL     1      27.900   8.188  48.201  1.00  0.00     0.336 C 
HETATM   11  N2  UNL     1      27.960   7.207  49.165  1.00  0.00    -0.349 N 
HETATM   12  N3  UNL     1      26.806   8.928  48.954  1.00  0.00    -0.242 NA
HETATM   13  C17 UNL     1      27.327   9.709  49.885  1.00  0.00     0.189 C 
HETATM   14  N4  UNL     1      28.767   9.683  49.968  1.00  0.00    -0.215 NA
HETATM   15  O2  UNL     1      29.895  10.397  49.795  1.00  0.00     0.000 OA
HETATM   16  N5  UNL     1      30.836   9.731  49.094  1.00  0.00    -0.300 N 
HETATM   17  H9  UNL     1      28.662   7.308  49.926  1.00  0.00     0.163 HD
HETATM   18  H14 UNL     1      28.811  10.705  49.659  1.00  0.00     0.148 HD
HETATM   19  H15 UNL     1      31.763  10.120  48.849  1.00  0.00     0.187 HD
ENDROOT
BRANCH  11  20
HETATM   20  C11 UNL     1      27.113   6.062  49.210  1.00  0.00     0.032 A 
HETATM   21  C12 UNL     1      27.505   4.763  48.979  1.00  0.00     0.032 A 
HETATM   22  C13 UNL     1      26.657   3.686  49.038  1.00  0.00     0.046 A 
HETATM   23  C14 UNL     1      25.342   3.860  49.339  1.00  0.00     0.138 A 
HETATM   24  F1  UNL     1      24.469   2.827  49.408  1.00  0.00    -0.204 F 
HETATM   25  C15 UNL     1      24.938   5.158  49.571  1.00  0.00     0.074 A 
HETATM   26 CL1  UNL     1      23.254   5.473  49.967  1.00  0.00    -0.081 Cl
HETATM   27  C16 UNL     1      25.802   6.229  49.508  1.00  0.00     0.056 A 
ENDBRANCH  11  20
BRANCH   1  28
HETATM   28  O1  UNL     1      31.413   4.274  48.062  1.00  0.00    -0.356 OA
HETATM   29  C1  UNL     1      31.996   3.778  46.897  1.00  0.00     0.210 C 
ENDBRANCH   1  28
TORSDOF 2
ENDMDL
MODEL 6
REMARK VINA RESULT:      -7.8     11.024     13.443
REMARK  2 active torsions:
REMARK  status: ('A' for Active; 'I' for Inactive)
REMARK    1  A    between atoms: O1_2  and  C2_3 
REMARK       I    between atoms: C10_12  and  N2_13 
REMARK    2  A    between atoms: N2_13  and  C11_14 
ROOT
HETATM    1  C2  UNL     1      34.668   8.689  47.824  1.00  0.00     0.069 A 
HETATM    2  C3  UNL     1      35.854   8.105  48.220  1.00  0.00     0.039 A 
HETATM    3  C4  UNL     1      35.774   6.796  48.714  1.00  0.00     0.034 A 
HETATM    4  C5  UNL     1      34.616   6.021  48.846  1.00  0.00     0.058 A 
HETATM    5  C6  UNL     1      33.438   6.630  48.443  1.00  0.00    -0.003 A 
HETATM    6  C7  UNL     1      33.524   7.926  47.955  1.00  0.00     0.050 A 
HETATM    7  C8  UNL     1      32.073   6.113  48.506  1.00  0.00     0.047 C 
HETATM    8  C9  UNL     1      32.031   4.788  48.478  1.00  0.00     0.084 C 
HETATM    9  N1  UNL     1      32.943   4.394  47.652  1.00  0.00    -0.241 NA
HETATM   10  C10 UNL     1      33.148   5.004  46.476  1.00  0.00     0.336 C 
HETATM   11  N2  UNL     1      34.123   5.622  45.727  1.00  0.00    -0.349 N 
HETATM   12  N3  UNL     1      33.356   3.686  45.747  1.00  0.00    -0.242 NA
HETATM   13  C17 UNL     1      34.360   3.012  46.283  1.00  0.00     0.189 C 
HETATM   14  N4  UNL     1      35.004   3.660  47.400  1.00  0.00    -0.215 NA
HETATM   15  O2  UNL     1      35.240   3.600  48.724  1.00  0.00     0.000 OA
HETATM   16  N5  UNL     1      35.012   4.774  49.350  1.00  0.00    -0.300 N 
HETATM   17  H9  UNL     1      35.090   5.656  46.110  1.00  0.00     0.163 HD
HETATM   18  H14 UNL     1      34.667   2.885  48.053  1.00  0.00     0.148 HD
HETATM   19  H15 UNL     1      35.124   4.920  50.369  1.00  0.00     0.187 HD
ENDROOT
BRANCH  11  20
HETATM   20  C11 UNL     1      33.911   6.211  44.446  1.00  0.00     0.032 A 
HETATM   21  C12 UNL     1      32.887   7.069  44.115  1.00  0.00     0.032 A 
HETATM   22  C13 UNL     1      32.723   7.618  42.868  1.00  0.00     0.046 A 
HETATM   23  C14 UNL     1      33.597   7.329  41.867  1.00  0.00     0.138 A 
HETATM   24  F1  UNL     1      33.474   7.848  40.622  1.00  0.00    -0.204 F 
HETATM   25  C15 UNL     1      34.627   6.469  42.188  1.00  0.00     0.074 A 
HETATM   26 CL1  UNL     1      35.802   6.043  40.952  1.00  0.00    -0.081 Cl
HETATM   27  C16 UNL     1      34.778   5.926  43.445  1.00  0.00     0.056 A 
ENDBRANCH  11  20
BRANCH   1  28
HETATM   28  O1  UNL     1      34.671   9.968  47.330  1.00  0.00    -0.356 OA
HETATM   29  C1  UNL     1      33.577  10.460  46.622  1.00  0.00     0.210 C 
ENDBRANCH   1  28
TORSDOF 2
ENDMDL
MODEL 7
REMARK VINA RESULT:      -7.8      1.972      2.585
REMARK  2 active torsions:
REMARK  status: ('A' for Active; 'I' for Inactive)
REMARK    1  A    between atoms: O1_2  and  C2_3 
REMARK       I    between atoms: C10_12  and  N2_13 
REMARK    2  A    between atoms: N2_13  and  C11_14 
ROOT
HETATM    1  C2  UNL     1      24.881   3.932  49.400  1.00  0.00     0.069 A 
HETATM    2  C3  UNL     1      24.438   5.124  49.936  1.00  0.00     0.039 A 
HETATM    3  C4  UNL     1      23.057   5.361  49.883  1.00  0.00     0.034 A 
HETATM    4  C5  UNL     1      22.084   4.512  49.344  1.00  0.00     0.058 A 
HETATM    5  C6  UNL     1      22.554   3.323  48.811  1.00  0.00    -0.003 A 
HETATM    6  C7  UNL     1      23.921   3.095  48.866  1.00  0.00     0.050 A 
HETATM    7  C8  UNL     1      21.806   2.266  48.134  1.00  0.00     0.047 C 
HETATM    8  C9  UNL     1      20.536   2.222  48.509  1.00  0.00     0.084 C 
HETATM    9  N1  UNL     1      20.504   2.467  49.778  1.00  0.00    -0.241 NA
HETATM   10  C10 UNL     1      21.391   1.928  50.627  1.00  0.00     0.336 C 
HETATM   11  N2  UNL     1      22.322   2.263  51.583  1.00  0.00    -0.349 N 
HETATM   12  N3  UNL     1      20.329   1.669  51.684  1.00  0.00    -0.242 NA
HETATM   13  C17 UNL     1      19.736   2.798  52.034  1.00  0.00     0.189 C 
HETATM   14  N4  UNL     1      20.216   3.977  51.354  1.00  0.00    -0.215 NA
HETATM   15  O2  UNL     1      19.900   4.954  50.484  1.00  0.00     0.000 OA
HETATM   16  N5  UNL     1      20.843   5.138  49.537  1.00  0.00    -0.300 N 
HETATM   17  H9  UNL     1      22.436   3.268  51.828  1.00  0.00     0.163 HD
HETATM   18  H14 UNL     1      19.267   4.099  50.880  1.00  0.00     0.148 HD
HETATM   19  H15 UNL     1      20.772   5.833  48.773  1.00  0.00     0.187 HD
ENDROOT
BRANCH  11  20
HETATM   20  C11 UNL     1      23.139   1.328  52.282  1.00  0.00     0.032 A 
HETATM   21  C12 UNL     1      22.692   0.378  53.173  1.00  0.00     0.032 A 
HETATM   22  C13 UNL     1      23.514  -0.509  53.821  1.00  0.00     0.046 A 
HETATM   23  C14 UNL     1      24.858  -0.488  53.606  1.00  0.00     0.138 A 
HETATM   24  F1  UNL     1      25.706  -1.344  54.224  1.00  0.00    -0.204 F 
HETATM   25  C15 UNL     1      25.316   0.461  52.716  1.00  0.00     0.074 A 
HETATM   26 CL1  UNL     1      27.039   0.557  52.380  1.00  0.00    -0.081 Cl
HETATM   27  C16 UNL     1      24.478   1.344  52.073  1.00  0.00     0.056 A 
ENDBRANCH  11  20
BRANCH   1  28
HETATM   28  O1  UNL     1      26.219   3.634  49.418  1.00  0.00    -0.356 OA
HETATM   29  C1  UNL     1      27.160   4.554  48.959  1.00  0.00     0.210 C 
ENDBRANCH   1  28
TORSDOF 2
ENDMDL
MODEL 8
REMARK VINA RESULT:      -7.7      2.708      4.698
REMARK  2 active torsions:
REMARK  status: ('A' for Active; 'I' for Inactive)
REMARK    1  A    between atoms: O1_2  and  C2_3 
REMARK       I    between atoms: C10_12  and  N2_13 
REMARK    2  A    between atoms: N2_13  and  C11_14 
ROOT
HETATM    1  C2  UNL     1      20.210   1.362  50.487  1.00  0.00     0.069 A 
HETATM    2  C3  UNL     1      20.447   1.348  49.128  1.00  0.00     0.039 A 
HETATM    3  C4  UNL     1      20.976   2.521  48.572  1.00  0.00     0.034 A 
HETATM    4  C5  UNL     1      21.287   3.703  49.254  1.00  0.00     0.058 A 
HETATM    5  C6  UNL     1      21.039   3.692  50.616  1.00  0.00    -0.003 A 
HETATM    6  C7  UNL     1      20.516   2.528  51.161  1.00  0.00     0.050 A 
HETATM    7  C8  UNL     1      21.203   4.775  51.585  1.00  0.00     0.047 C 
HETATM    8  C9  UNL     1      22.123   5.653  51.212  1.00  0.00     0.084 C 
HETATM    9  N1  UNL     1      23.085   4.988  50.662  1.00  0.00    -0.241 NA
HETATM   10  C10 UNL     1      23.540   3.839  51.180  1.00  0.00     0.336 C 
HETATM   11  N2  UNL     1      23.763   2.517  50.865  1.00  0.00    -0.349 N 
HETATM   12  N3  UNL     1      24.989   4.200  50.893  1.00  0.00    -0.242 NA
HETATM   13  C17 UNL     1      25.168   4.416  49.601  1.00  0.00     0.189 C 
HETATM   14  N4  UNL     1      23.985   4.266  48.787  1.00  0.00    -0.215 NA
HETATM   15  O2  UNL     1      23.094   4.907  48.008  1.00  0.00     0.000 OA
HETATM   16  N5  UNL     1      21.816   4.594  48.308  1.00  0.00    -0.300 N 
HETATM   17  H9  UNL     1      23.564   2.203  49.893  1.00  0.00     0.163 HD
HETATM   18  H14 UNL     1      24.007   5.308  48.550  1.00  0.00     0.148 HD
HETATM   19  H15 UNL     1      20.991   4.996  47.828  1.00  0.00     0.187 HD
ENDROOT
BRANCH  11  20
HETATM   20  C11 UNL     1      24.265   1.540  51.773  1.00  0.00     0.032 A 
HETATM   21  C12 UNL     1      25.583   1.164  51.902  1.00  0.00     0.032 A 
HETATM   22  C13 UNL     1      26.025   0.221  52.795  1.00  0.00     0.046 A 
HETATM   23  C14 UNL     1      25.148  -0.408  53.624  1.00  0.00     0.138 A 
HETATM   24  F1  UNL     1      25.540  -1.344  54.520  1.00  0.00    -0.204 F 
HETATM   25  C15 UNL     1      23.825  -0.040  53.502  1.00  0.00     0.074 A 
HETATM   26 CL1  UNL     1      22.625  -0.804  54.535  1.00  0.00    -0.081 Cl
HETATM   27  C16 UNL     1      23.396   0.909  52.600  1.00  0.00     0.056 A 
ENDBRANCH  11  20
BRANCH   1  28
HETATM   28  O1  UNL     1      19.695   0.248  51.099  1.00  0.00    -0.356 OA
HETATM   29  C1  UNL     1      19.585   0.185  52.487  1.00  0.00     0.210 C 
ENDBRANCH   1  28
TORSDOF 2
ENDMDL
MODEL 9
REMARK VINA RESULT:      -7.4      5.125      7.443
REMARK  2 active torsions:
REMARK  status: ('A' for Active; 'I' for Inactive)
REMARK    1  A    between atoms: O1_2  and  C2_3 
REMARK       I    between atoms: C10_12  and  N2_13 
REMARK    2  A    between atoms: N2_13  and  C11_14 
ROOT
HETATM    1  C2  UNL     1      20.811   3.605  50.080  1.00  0.00     0.069 A 
HETATM    2  C3  UNL     1      20.527   4.529  51.064  1.00  0.00     0.039 A 
HETATM    3  C4  UNL     1      21.608   4.979  51.834  1.00  0.00     0.034 A 
HETATM    4  C5  UNL     1      22.946   4.588  51.706  1.00  0.00     0.058 A 
HETATM    5  C6  UNL     1      23.206   3.659  50.712  1.00  0.00    -0.003 A 
HETATM    6  C7  UNL     1      22.131   3.217  49.953  1.00  0.00     0.050 A 
HETATM    7  C8  UNL     1      24.473   3.018  50.367  1.00  0.00     0.047 C 
HETATM    8  C9  UNL     1      25.522   3.756  50.701  1.00  0.00     0.084 C 
HETATM    9  N1  UNL     1      25.215   4.988  50.457  1.00  0.00    -0.241 NA
HETATM   10  C10 UNL     1      24.568   5.350  49.341  1.00  0.00     0.336 C 
HETATM   11  N2  UNL     1      23.443   6.011  48.902  1.00  0.00    -0.349 N 
HETATM   12  N3  UNL     1      25.425   6.593  49.162  1.00  0.00    -0.242 NA
HETATM   13  C17 UNL     1      25.331   7.380  50.221  1.00  0.00     0.189 C 
HETATM   14  N4  UNL     1      24.466   6.893  51.269  1.00  0.00    -0.215 NA
HETATM   15  O2  UNL     1      24.416   6.437  52.534  1.00  0.00     0.000 OA
HETATM   16  N5  UNL     1      23.678   5.313  52.657  1.00  0.00    -0.300 N 
HETATM   17  H9  UNL     1      22.819   6.444  49.613  1.00  0.00     0.163 HD
HETATM   18  H14 UNL     1      25.305   6.792  51.923  1.00  0.00     0.148 HD
HETATM   19  H15 UNL     1      23.534   4.807  53.549  1.00  0.00     0.187 HD
ENDROOT
BRANCH  11  20
HETATM   20  C11 UNL     1      23.072   6.161  47.534  1.00  0.00     0.032 A 
HETATM   21  C12 UNL     1      23.305   7.272  46.756  1.00  0.00     0.032 A 
HETATM   22  C13 UNL     1      22.935   7.374  45.439  1.00  0.00     0.046 A 
HETATM   23  C14 UNL     1      22.299   6.343  44.819  1.00  0.00     0.138 A 
HETATM   24  F1  UNL     1      21.916   6.399  43.522  1.00  0.00    -0.204 F 
HETATM   25  C15 UNL     1      22.060   5.225  45.591  1.00  0.00     0.074 A 
HETATM   26 CL1  UNL     1      21.242   3.846  44.870  1.00  0.00    -0.081 Cl
HETATM   27  C16 UNL     1      22.437   5.138  46.913  1.00  0.00     0.056 A 
ENDBRANCH  11  20
BRANCH   1  28
HETATM   28  O1  UNL     1      19.802   3.122  49.288  1.00  0.00    -0.356 OA
HETATM   29  C1  UNL     1      20.080   2.556  48.046  1.00  0.00     0.210 C 
ENDBRANCH   1  28
TORSDOF 2
ENDMDL
