MODEL 1
REMARK VINA RESULT:      -9.7      0.000      0.000
REMARK  5 active torsions:
REMARK  status: ('A' for Active; 'I' for Inactive)
REMARK    1  A    between atoms: C7_7  and  C8_8 
REMARK    2  A    between atoms: C8_8  and  O1_9 
REMARK    3  A    between atoms: N2_11  and  O2_12 
REMARK    4  A    between atoms: N3_14  and  C10_15 
REMARK    5  A    between atoms: C14_19  and  C15_20 
ROOT
HETATM    1  C1  UNL     1      18.698   0.807  50.607  1.00  0.00     0.049 C 
HETATM    2  C2  UNL     1      19.515   0.237  51.710  1.00  0.00    -0.053 A 
HETATM    3  C3  UNL     1      20.865   0.516  51.764  1.00  0.00     0.022 A 
HETATM    4  C4  UNL     1      21.677   0.019  52.762  1.00  0.00     0.011 A 
HETATM    5  C5  UNL     1      21.109  -0.780  53.727  1.00  0.00     0.091 A 
HETATM    6  C6  UNL     1      19.758  -1.072  53.692  1.00  0.00     0.044 A 
HETATM    7  C7  UNL     1      18.953  -0.555  52.670  1.00  0.00    -0.026 A 
HETATM    8  N1  UNL     1      21.658  -1.358  54.743  1.00  0.00    -0.149 NA
HETATM    9  N2  UNL     1      23.015  -1.270  55.063  1.00  0.00    -0.159 N 
HETATM   10  C9  UNL     1      24.210  -0.710  54.545  1.00  0.00     0.308 A 
HETATM   11  N3  UNL     1      24.101   0.144  53.412  1.00  0.00    -0.335 N 
HETATM   12  C17 UNL     1      22.940   0.378  52.675  1.00  0.00     0.107 A 
ENDROOT
BRANCH  11  13
HETATM   13  C10 UNL     1      25.329   0.772  53.077  1.00  0.00     0.036 A 
HETATM   14  C11 UNL     1      25.540   1.675  52.062  1.00  0.00     0.029 A 
HETATM   15  C12 UNL     1      26.725   2.273  51.750  1.00  0.00     0.003 A 
HETATM   16  C13 UNL     1      27.838   1.967  52.497  1.00  0.00     0.016 A 
HETATM   17  C14 UNL     1      27.701   1.072  53.527  1.00  0.00     0.050 A 
HETATM   18  C16 UNL     1      26.485   0.515  53.781  1.00  0.00     0.045 A 
BRANCH  17  19
HETATM   19  C15 UNL     1      28.923   0.768  54.316  1.00  0.00     0.417 C 
HETATM   20  F1  UNL     1      28.584  -0.078  55.352  1.00  0.00    -0.166 F 
HETATM   21  F2  UNL     1      29.862   0.088  53.563  1.00  0.00    -0.166 F 
HETATM   22  F3  UNL     1      29.471   1.938  54.742  1.00  0.00    -0.166 F 
ENDBRANCH  17  19
ENDBRANCH  11  13
BRANCH   9  23
HETATM   23  O2  UNL     1      23.320  -1.903  56.220  1.00  0.00    -0.269 OA
HETATM   24  H9  UNL     1      22.644  -1.858  56.913  1.00  0.00     0.246 HD
ENDBRANCH   9  23
BRANCH   7  25
HETATM   25  C8  UNL     1      17.517  -0.831  52.588  1.00  0.00     0.203 C 
BRANCH  25  26
HETATM   26  O1  UNL     1      16.958  -1.186  53.826  1.00  0.00    -0.396 OA
HETATM   27  H8  UNL     1      16.805  -0.417  54.400  1.00  0.00     0.209 HD
ENDBRANCH  25  26
ENDBRANCH   7  25
TORSDOF 5
ENDMDL
MODEL 2
REMARK VINA RESULT:      -9.2      2.459      2.976
REMARK  5 active torsions:
REMARK  status: ('A' for Active; 'I' for Inactive)
REMARK    1  A    between atoms: C7_7  and  C8_8 
REMARK    2  A    between atoms: C8_8  and  O1_9 
REMARK    3  A    between atoms: N2_11  and  O2_12 
REMARK    4  A    between atoms: N3_14  and  C10_15 
REMARK    5  A    between atoms: C14_19  and  C15_20 
ROOT
HETATM    1  C1  UNL     1      17.911   0.371  50.666  1.00  0.00     0.049 C 
HETATM    2  C2  UNL     1      18.830  -0.122  51.725  1.00  0.00    -0.053 A 
HETATM    3  C3  UNL     1      20.158   0.248  51.692  1.00  0.00     0.022 A 
HETATM    4  C4  UNL     1      21.062  -0.174  52.645  1.00  0.00     0.011 A 
HETATM    5  C5  UNL     1      20.609  -0.992  53.654  1.00  0.00     0.091 A 
HETATM    6  C6  UNL     1      19.281  -1.376  53.706  1.00  0.00     0.044 A 
HETATM    7  C7  UNL     1      18.383  -0.933  52.728  1.00  0.00    -0.026 A 
HETATM    8  N1  UNL     1      21.256  -1.513  54.642  1.00  0.00    -0.149 NA
HETATM    9  N2  UNL     1      22.621  -1.328  54.877  1.00  0.00    -0.159 N 
HETATM   10  C9  UNL     1      23.742  -0.698  54.279  1.00  0.00     0.308 A 
HETATM   11  N3  UNL     1      23.506   0.127  53.144  1.00  0.00    -0.335 N 
HETATM   12  C17 UNL     1      22.290   0.268  52.476  1.00  0.00     0.107 A 
ENDROOT
BRANCH  11  13
HETATM   13  C10 UNL     1      24.665   0.830  52.725  1.00  0.00     0.036 A 
HETATM   14  C11 UNL     1      25.912   0.778  53.303  1.00  0.00     0.029 A 
HETATM   15  C12 UNL     1      27.019   1.459  52.891  1.00  0.00     0.003 A 
HETATM   16  C13 UNL     1      26.919   2.287  51.799  1.00  0.00     0.016 A 
HETATM   17  C14 UNL     1      25.704   2.387  51.171  1.00  0.00     0.050 A 
HETATM   18  C16 UNL     1      24.641   1.677  51.639  1.00  0.00     0.045 A 
BRANCH  17  19
HETATM   19  C15 UNL     1      25.633   3.289  49.991  1.00  0.00     0.417 C 
HETATM   20  F1  UNL     1      24.444   3.060  49.329  1.00  0.00    -0.166 F 
HETATM   21  F2  UNL     1      25.609   4.619  50.365  1.00  0.00    -0.166 F 
HETATM   22  F3  UNL     1      26.726   3.074  49.211  1.00  0.00    -0.166 F 
ENDBRANCH  17  19
ENDBRANCH  11  13
BRANCH   9  23
HETATM   23  O2  UNL     1      23.038  -1.918  56.022  1.00  0.00    -0.269 OA
HETATM   24  H9  UNL     1      23.788  -1.492  56.464  1.00  0.00     0.246 HD
ENDBRANCH   9  23
BRANCH   7  25
HETATM   25  C8  UNL     1      16.966  -1.307  52.738  1.00  0.00     0.203 C 
BRANCH  25  26
HETATM   26  O1  UNL     1      16.190  -0.478  53.563  1.00  0.00    -0.396 OA
HETATM   27  H8  UNL     1      15.817  -0.954  54.323  1.00  0.00     0.209 HD
ENDBRANCH  25  26
ENDBRANCH   7  25
TORSDOF 5
ENDMDL
MODEL 3
REMARK VINA RESULT:      -8.7      4.502      7.811
REMARK  5 active torsions:
REMARK  status: ('A' for Active; 'I' for Inactive)
REMARK    1  A    between atoms: C7_7  and  C8_8 
REMARK    2  A    between atoms: C8_8  and  O1_9 
REMARK    3  A    between atoms: N2_11  and  O2_12 
REMARK    4  A    between atoms: N3_14  and  C10_15 
REMARK    5  A    between atoms: C14_19  and  C15_20 
ROOT
HETATM    1  C1  UNL     1      26.165   2.912  50.982  1.00  0.00     0.049 C 
HETATM    2  C2  UNL     1      25.669   1.953  52.003  1.00  0.00    -0.053 A 
HETATM    3  C3  UNL     1      24.339   1.591  52.001  1.00  0.00     0.022 A 
HETATM    4  C4  UNL     1      23.817   0.706  52.921  1.00  0.00     0.011 A 
HETATM    5  C5  UNL     1      24.664   0.176  53.867  1.00  0.00     0.091 A 
HETATM    6  C6  UNL     1      26.002   0.524  53.888  1.00  0.00     0.044 A 
HETATM    7  C7  UNL     1      26.509   1.424  52.943  1.00  0.00    -0.026 A 
HETATM    8  N1  UNL     1      24.411  -0.656  54.821  1.00  0.00    -0.149 NA
HETATM    9  N2  UNL     1      23.151  -1.201  55.081  1.00  0.00    -0.159 N 
HETATM   10  C9  UNL     1      21.817  -1.104  54.610  1.00  0.00     0.308 A 
HETATM   11  N3  UNL     1      21.586  -0.328  53.440  1.00  0.00    -0.335 N 
HETATM   12  C17 UNL     1      22.531   0.461  52.784  1.00  0.00     0.107 A 
ENDROOT
BRANCH  11  13
HETATM   13  C10 UNL     1      20.252  -0.429  52.968  1.00  0.00     0.036 A 
HETATM   14  C11 UNL     1      19.236  -1.169  53.526  1.00  0.00     0.029 A 
HETATM   15  C12 UNL     1      17.957  -1.257  53.064  1.00  0.00     0.003 A 
HETATM   16  C13 UNL     1      17.611  -0.555  51.934  1.00  0.00     0.016 A 
HETATM   17  C14 UNL     1      18.575   0.206  51.324  1.00  0.00     0.050 A 
HETATM   18  C16 UNL     1      19.833   0.247  51.843  1.00  0.00     0.045 A 
BRANCH  17  19
HETATM   19  C15 UNL     1      18.166   0.955  50.107  1.00  0.00     0.417 C 
HETATM   20  F1  UNL     1      17.609   2.157  50.491  1.00  0.00    -0.166 F 
HETATM   21  F2  UNL     1      19.252   1.275  49.314  1.00  0.00    -0.166 F 
HETATM   22  F3  UNL     1      17.312   0.180  49.384  1.00  0.00    -0.166 F 
ENDBRANCH  17  19
ENDBRANCH  11  13
BRANCH   9  23
HETATM   23  O2  UNL     1      23.171  -2.106  56.088  1.00  0.00    -0.269 OA
HETATM   24  H9  UNL     1      23.892  -2.004  56.728  1.00  0.00     0.246 HD
ENDBRANCH   9  23
BRANCH   7  25
HETATM   25  C8  UNL     1      27.917   1.825  52.918  1.00  0.00     0.203 C 
BRANCH  25  26
HETATM   26  O1  UNL     1      28.234   2.764  53.912  1.00  0.00    -0.396 OA
HETATM   27  H8  UNL     1      28.748   3.513  53.566  1.00  0.00     0.209 HD
ENDBRANCH  25  26
ENDBRANCH   7  25
TORSDOF 5
ENDMDL
MODEL 4
REMARK VINA RESULT:      -8.7      4.318      5.773
REMARK  5 active torsions:
REMARK  status: ('A' for Active; 'I' for Inactive)
REMARK    1  A    between atoms: C7_7  and  C8_8 
REMARK    2  A    between atoms: C8_8  and  O1_9 
REMARK    3  A    between atoms: N2_11  and  O2_12 
REMARK    4  A    between atoms: N3_14  and  C10_15 
REMARK    5  A    between atoms: C14_19  and  C15_20 
ROOT
HETATM    1  C1  UNL     1      20.437  -0.083  53.501  1.00  0.00     0.049 C 
HETATM    2  C2  UNL     1      21.892   0.153  53.320  1.00  0.00    -0.053 A 
HETATM    3  C3  UNL     1      22.314   1.143  52.456  1.00  0.00     0.022 A 
HETATM    4  C4  UNL     1      23.649   1.412  52.245  1.00  0.00     0.011 A 
HETATM    5  C5  UNL     1      24.580   0.661  52.923  1.00  0.00     0.091 A 
HETATM    6  C6  UNL     1      24.181  -0.337  53.794  1.00  0.00     0.044 A 
HETATM    7  C7  UNL     1      22.819  -0.591  53.993  1.00  0.00    -0.026 A 
HETATM    8  N1  UNL     1      25.870   0.722  52.887  1.00  0.00    -0.149 NA
HETATM    9  N2  UNL     1      26.596   1.619  52.100  1.00  0.00    -0.159 N 
HETATM   10  C9  UNL     1      26.371   2.626  51.127  1.00  0.00     0.308 A 
HETATM   11  N3  UNL     1      25.024   3.007  50.873  1.00  0.00    -0.335 N 
HETATM   12  C17 UNL     1      23.888   2.388  51.394  1.00  0.00     0.107 A 
ENDROOT
BRANCH  11  13
HETATM   13  C10 UNL     1      24.924   4.125  50.005  1.00  0.00     0.036 A 
HETATM   14  C11 UNL     1      23.769   4.661  49.484  1.00  0.00     0.029 A 
HETATM   15  C12 UNL     1      23.686   5.737  48.650  1.00  0.00     0.003 A 
HETATM   16  C13 UNL     1      24.844   6.372  48.271  1.00  0.00     0.016 A 
HETATM   17  C14 UNL     1      26.035   5.891  48.753  1.00  0.00     0.050 A 
HETATM   18  C16 UNL     1      26.041   4.812  49.583  1.00  0.00     0.045 A 
BRANCH  17  19
HETATM   19  C15 UNL     1      27.267   6.604  48.326  1.00  0.00     0.417 C 
HETATM   20  F1  UNL     1      28.256   5.674  48.083  1.00  0.00    -0.166 F 
HETATM   21  F2  UNL     1      27.080   7.278  47.134  1.00  0.00    -0.166 F 
HETATM   22  F3  UNL     1      27.607   7.504  49.288  1.00  0.00    -0.166 F 
ENDBRANCH  17  19
ENDBRANCH  11  13
BRANCH   9  23
HETATM   23  O2  UNL     1      27.931   1.530  52.304  1.00  0.00    -0.269 OA
HETATM   24  H9  UNL     1      28.355   2.325  52.661  1.00  0.00     0.246 HD
ENDBRANCH   9  23
BRANCH   7  25
HETATM   25  C8  UNL     1      22.341  -1.633  54.906  1.00  0.00     0.203 C 
BRANCH  25  26
HETATM   26  O1  UNL     1      23.209  -1.849  55.988  1.00  0.00    -0.396 OA
HETATM   27  H8  UNL     1      23.349  -2.793  56.169  1.00  0.00     0.209 HD
ENDBRANCH  25  26
ENDBRANCH   7  25
TORSDOF 5
ENDMDL
MODEL 5
REMARK VINA RESULT:      -8.7      4.955      7.696
REMARK  5 active torsions:
REMARK  status: ('A' for Active; 'I' for Inactive)
REMARK    1  A    between atoms: C7_7  and  C8_8 
REMARK    2  A    between atoms: C8_8  and  O1_9 
REMARK    3  A    between atoms: N2_11  and  O2_12 
REMARK    4  A    between atoms: N3_14  and  C10_15 
REMARK    5  A    between atoms: C14_19  and  C15_20 
ROOT
HETATM    1  C1  UNL     1      24.031   5.607  48.618  1.00  0.00     0.049 C 
HETATM    2  C2  UNL     1      24.795   4.608  49.409  1.00  0.00    -0.053 A 
HETATM    3  C3  UNL     1      24.112   3.702  50.193  1.00  0.00     0.022 A 
HETATM    4  C4  UNL     1      24.763   2.750  50.950  1.00  0.00     0.011 A 
HETATM    5  C5  UNL     1      26.137   2.717  50.913  1.00  0.00     0.091 A 
HETATM    6  C6  UNL     1      26.842   3.617  50.136  1.00  0.00     0.044 A 
HETATM    7  C7  UNL     1      26.160   4.573  49.375  1.00  0.00    -0.026 A 
HETATM    8  N1  UNL     1      26.957   1.933  51.531  1.00  0.00    -0.149 NA
HETATM    9  N2  UNL     1      26.568   0.913  52.403  1.00  0.00    -0.159 N 
HETATM   10  C9  UNL     1      25.388   0.380  52.980  1.00  0.00     0.308 A 
HETATM   11  N3  UNL     1      24.141   0.885  52.516  1.00  0.00    -0.335 N 
HETATM   12  C17 UNL     1      23.970   1.957  51.639  1.00  0.00     0.107 A 
ENDROOT
BRANCH  11  13
HETATM   13  C10 UNL     1      23.031   0.175  53.040  1.00  0.00     0.036 A 
HETATM   14  C11 UNL     1      23.060  -0.795  54.014  1.00  0.00     0.029 A 
HETATM   15  C12 UNL     1      21.986  -1.471  54.512  1.00  0.00     0.003 A 
HETATM   16  C13 UNL     1      20.736  -1.184  54.016  1.00  0.00     0.016 A 
HETATM   17  C14 UNL     1      20.631  -0.225  53.041  1.00  0.00     0.050 A 
HETATM   18  C16 UNL     1      21.749   0.410  52.593  1.00  0.00     0.045 A 
BRANCH  17  19
HETATM   19  C15 UNL     1      19.264   0.062  52.530  1.00  0.00     0.417 C 
HETATM   20  F1  UNL     1      19.083   1.430  52.493  1.00  0.00    -0.166 F 
HETATM   21  F2  UNL     1      19.101  -0.378  51.230  1.00  0.00    -0.166 F 
HETATM   22  F3  UNL     1      18.359  -0.573  53.322  1.00  0.00    -0.166 F 
ENDBRANCH  17  19
ENDBRANCH  11  13
BRANCH   9  23
HETATM   23  O2  UNL     1      27.617   0.187  52.857  1.00  0.00    -0.269 OA
HETATM   24  H9  UNL     1      27.396  -0.681  53.227  1.00  0.00     0.246 HD
ENDBRANCH   9  23
BRANCH   7  25
HETATM   25  C8  UNL     1      26.857   5.547  48.531  1.00  0.00     0.203 C 
BRANCH  25  26
HETATM   26  O1  UNL     1      27.532   6.529  49.276  1.00  0.00    -0.396 OA
HETATM   27  H8  UNL     1      27.055   7.375  49.294  1.00  0.00     0.209 HD
ENDBRANCH  25  26
ENDBRANCH   7  25
TORSDOF 5
ENDMDL
MODEL 6
REMARK VINA RESULT:      -8.5      5.276      7.979
REMARK  5 active torsions:
REMARK  status: ('A' for Active; 'I' for Inactive)
REMARK    1  A    between atoms: C7_7  and  C8_8 
REMARK    2  A    between atoms: C8_8  and  O1_9 
REMARK    3  A    between atoms: N2_11  and  O2_12 
REMARK    4  A    between atoms: N3_14  and  C10_15 
REMARK    5  A    between atoms: C14_19  and  C15_20 
ROOT
HETATM    1  C1  UNL     1      28.922   5.761  48.077  1.00  0.00     0.049 C 
HETATM    2  C2  UNL     1      27.519   5.631  48.550  1.00  0.00    -0.053 A 
HETATM    3  C3  UNL     1      27.160   4.534  49.304  1.00  0.00     0.022 A 
HETATM    4  C4  UNL     1      25.876   4.355  49.774  1.00  0.00     0.011 A 
HETATM    5  C5  UNL     1      24.933   5.309  49.471  1.00  0.00     0.091 A 
HETATM    6  C6  UNL     1      25.271   6.417  48.715  1.00  0.00     0.044 A 
HETATM    7  C7  UNL     1      26.581   6.578  48.250  1.00  0.00    -0.026 A 
HETATM    8  N1  UNL     1      23.682   5.359  49.788  1.00  0.00    -0.149 NA
HETATM    9  N2  UNL     1      23.020   4.388  50.544  1.00  0.00    -0.159 N 
HETATM   10  C9  UNL     1      23.278   3.130  51.146  1.00  0.00     0.308 A 
HETATM   11  N3  UNL     1      24.622   2.661  51.143  1.00  0.00    -0.335 N 
HETATM   12  C17 UNL     1      25.694   3.260  50.481  1.00  0.00     0.107 A 
ENDROOT
BRANCH  11  13
HETATM   13  C10 UNL     1      24.792   1.477  51.905  1.00  0.00     0.036 A 
HETATM   14  C11 UNL     1      25.945   0.737  52.029  1.00  0.00     0.029 A 
HETATM   15  C12 UNL     1      26.097  -0.400  52.766  1.00  0.00     0.003 A 
HETATM   16  C13 UNL     1      25.017  -0.885  53.466  1.00  0.00     0.016 A 
HETATM   17  C14 UNL     1      23.834  -0.196  53.389  1.00  0.00     0.050 A 
HETATM   18  C16 UNL     1      23.756   0.933  52.633  1.00  0.00     0.045 A 
BRANCH  17  19
HETATM   19  C15 UNL     1      22.689  -0.746  54.161  1.00  0.00     0.417 C 
HETATM   20  F1  UNL     1      23.160  -1.251  55.356  1.00  0.00    -0.166 F 
HETATM   21  F2  UNL     1      21.779   0.238  54.498  1.00  0.00    -0.166 F 
HETATM   22  F3  UNL     1      22.058  -1.681  53.400  1.00  0.00    -0.166 F 
ENDBRANCH  17  19
ENDBRANCH  11  13
BRANCH   9  23
HETATM   23  O2  UNL     1      21.733   4.715  50.803  1.00  0.00    -0.269 OA
HETATM   24  H9  UNL     1      21.553   5.663  50.900  1.00  0.00     0.246 HD
ENDBRANCH   9  23
BRANCH   7  25
HETATM   25  C8  UNL     1      26.994   7.733  47.450  1.00  0.00     0.203 C 
BRANCH  25  26
HETATM   26  O1  UNL     1      26.049   8.084  46.473  1.00  0.00    -0.396 OA
HETATM   27  H8  UNL     1      26.416   8.057  45.574  1.00  0.00     0.209 HD
ENDBRANCH  25  26
ENDBRANCH   7  25
TORSDOF 5
ENDMDL
MODEL 7
REMARK VINA RESULT:      -8.4      4.310      5.644
REMARK  5 active torsions:
REMARK  status: ('A' for Active; 'I' for Inactive)
REMARK    1  A    between atoms: C7_7  and  C8_8 
REMARK    2  A    between atoms: C8_8  and  O1_9 
REMARK    3  A    between atoms: N2_11  and  O2_12 
REMARK    4  A    between atoms: N3_14  and  C10_15 
REMARK    5  A    between atoms: C14_19  and  C15_20 
ROOT
HETATM    1  C1  UNL     1      20.168   0.400  52.692  1.00  0.00     0.049 C 
HETATM    2  C2  UNL     1      21.650   0.379  52.806  1.00  0.00    -0.053 A 
HETATM    3  C3  UNL     1      22.396   1.284  52.081  1.00  0.00     0.022 A 
HETATM    4  C4  UNL     1      23.773   1.316  52.144  1.00  0.00     0.011 A 
HETATM    5  C5  UNL     1      24.410   0.409  52.959  1.00  0.00     0.091 A 
HETATM    6  C6  UNL     1      23.681  -0.508  53.694  1.00  0.00     0.044 A 
HETATM    7  C7  UNL     1      22.284  -0.521  53.615  1.00  0.00    -0.026 A 
HETATM    8  N1  UNL     1      25.672   0.243  53.175  1.00  0.00    -0.149 NA
HETATM    9  N2  UNL     1      26.682   1.004  52.581  1.00  0.00    -0.159 N 
HETATM   10  C9  UNL     1      26.829   2.041  51.625  1.00  0.00     0.308 A 
HETATM   11  N3  UNL     1      25.644   2.654  51.130  1.00  0.00    -0.335 N 
HETATM   12  C17 UNL     1      24.338   2.240  51.396  1.00  0.00     0.107 A 
ENDROOT
BRANCH  11  13
HETATM   13  C10 UNL     1      25.910   3.777  50.305  1.00  0.00     0.036 A 
HETATM   14  C11 UNL     1      26.965   3.928  49.437  1.00  0.00     0.029 A 
HETATM   15  C12 UNL     1      27.210   5.013  48.648  1.00  0.00     0.003 A 
HETATM   16  C13 UNL     1      26.342   6.078  48.699  1.00  0.00     0.016 A 
HETATM   17  C14 UNL     1      25.265   5.996  49.544  1.00  0.00     0.050 A 
HETATM   18  C16 UNL     1      25.084   4.880  50.302  1.00  0.00     0.045 A 
BRANCH  17  19
HETATM   19  C15 UNL     1      24.346   7.164  49.571  1.00  0.00     0.417 C 
HETATM   20  F1  UNL     1      24.269   7.698  48.301  1.00  0.00    -0.166 F 
HETATM   21  F2  UNL     1      23.057   6.793  49.905  1.00  0.00    -0.166 F 
HETATM   22  F3  UNL     1      24.797   8.054  50.496  1.00  0.00    -0.166 F 
ENDBRANCH  17  19
ENDBRANCH  11  13
BRANCH   9  23
HETATM   23  O2  UNL     1      27.915   0.681  53.036  1.00  0.00    -0.269 OA
HETATM   24  H9  UNL     1      28.061  -0.260  53.218  1.00  0.00     0.246 HD
ENDBRANCH   9  23
BRANCH   7  25
HETATM   25  C8  UNL     1      21.464  -1.468  54.375  1.00  0.00     0.203 C 
BRANCH  25  26
HETATM   26  O1  UNL     1      22.194  -2.151  55.362  1.00  0.00    -0.396 OA
HETATM   27  H8  UNL     1      22.112  -3.116  55.284  1.00  0.00     0.209 HD
ENDBRANCH  25  26
ENDBRANCH   7  25
TORSDOF 5
ENDMDL
MODEL 8
REMARK VINA RESULT:      -8.2      4.995      7.808
REMARK  5 active torsions:
REMARK  status: ('A' for Active; 'I' for Inactive)
REMARK    1  A    between atoms: C7_7  and  C8_8 
REMARK    2  A    between atoms: C8_8  and  O1_9 
REMARK    3  A    between atoms: N2_11  and  O2_12 
REMARK    4  A    between atoms: N3_14  and  C10_15 
REMARK    5  A    between atoms: C14_19  and  C15_20 
ROOT
HETATM    1  C1  UNL     1      28.834   5.490  47.952  1.00  0.00     0.049 C 
HETATM    2  C2  UNL     1      27.524   5.664  48.630  1.00  0.00    -0.053 A 
HETATM    3  C3  UNL     1      26.988   4.613  49.345  1.00  0.00     0.022 A 
HETATM    4  C4  UNL     1      25.777   4.711  49.997  1.00  0.00     0.011 A 
HETATM    5  C5  UNL     1      25.091   5.901  49.922  1.00  0.00     0.091 A 
HETATM    6  C6  UNL     1      25.609   6.968  49.210  1.00  0.00     0.044 A 
HETATM    7  C7  UNL     1      26.841   6.845  48.557  1.00  0.00    -0.026 A 
HETATM    8  N1  UNL     1      23.953   6.227  50.437  1.00  0.00    -0.149 NA
HETATM    9  N2  UNL     1      23.163   5.374  51.211  1.00  0.00    -0.159 N 
HETATM   10  C9  UNL     1      23.154   4.031  51.666  1.00  0.00     0.308 A 
HETATM   11  N3  UNL     1      24.311   3.242  51.414  1.00  0.00    -0.335 N 
HETATM   12  C17 UNL     1      25.406   3.623  50.639  1.00  0.00     0.107 A 
ENDROOT
BRANCH  11  13
HETATM   13  C10 UNL     1      24.259   1.974  52.046  1.00  0.00     0.036 A 
HETATM   14  C11 UNL     1      23.138   1.342  52.533  1.00  0.00     0.029 A 
HETATM   15  C12 UNL     1      23.101   0.121  53.139  1.00  0.00     0.003 A 
HETATM   16  C13 UNL     1      24.276  -0.575  53.299  1.00  0.00     0.016 A 
HETATM   17  C14 UNL     1      25.434  -0.005  52.837  1.00  0.00     0.050 A 
HETATM   18  C16 UNL     1      25.395   1.218  52.240  1.00  0.00     0.045 A 
BRANCH  17  19
HETATM   19  C15 UNL     1      26.685  -0.787  53.023  1.00  0.00     0.417 C 
HETATM   20  F1  UNL     1      27.730  -0.097  52.443  1.00  0.00    -0.166 F 
HETATM   21  F2  UNL     1      27.012  -0.918  54.359  1.00  0.00    -0.166 F 
HETATM   22  F3  UNL     1      26.508  -2.028  52.493  1.00  0.00    -0.166 F 
ENDBRANCH  17  19
ENDBRANCH  11  13
BRANCH   9  23
HETATM   23  O2  UNL     1      22.055   5.984  51.695  1.00  0.00    -0.269 OA
HETATM   24  H9  UNL     1      22.215   6.725  52.299  1.00  0.00     0.246 HD
ENDBRANCH   9  23
BRANCH   7  25
HETATM   25  C8  UNL     1      27.436   7.944  47.793  1.00  0.00     0.203 C 
BRANCH  25  26
HETATM   26  O1  UNL     1      27.684   9.082  48.577  1.00  0.00    -0.396 OA
HETATM   27  H8  UNL     1      26.968   9.735  48.521  1.00  0.00     0.209 HD
ENDBRANCH  25  26
ENDBRANCH   7  25
TORSDOF 5
ENDMDL
MODEL 9
REMARK VINA RESULT:      -8.1      4.679      6.974
REMARK  5 active torsions:
REMARK  status: ('A' for Active; 'I' for Inactive)
REMARK    1  A    between atoms: C7_7  and  C8_8 
REMARK    2  A    between atoms: C8_8  and  O1_9 
REMARK    3  A    between atoms: N2_11  and  O2_12 
REMARK    4  A    between atoms: N3_14  and  C10_15 
REMARK    5  A    between atoms: C14_19  and  C15_20 
ROOT
HETATM    1  C1  UNL     1      27.813   6.921  47.814  1.00  0.00     0.049 C 
HETATM    2  C2  UNL     1      26.618   6.242  48.378  1.00  0.00    -0.053 A 
HETATM    3  C3  UNL     1      26.785   5.113  49.153  1.00  0.00     0.022 A 
HETATM    4  C4  UNL     1      25.717   4.438  49.706  1.00  0.00     0.011 A 
HETATM    5  C5  UNL     1      24.450   4.917  49.468  1.00  0.00     0.091 A 
HETATM    6  C6  UNL     1      24.259   6.047  48.694  1.00  0.00     0.044 A 
HETATM    7  C7  UNL     1      25.358   6.717  48.144  1.00  0.00    -0.026 A 
HETATM    8  N1  UNL     1      23.311   4.460  49.868  1.00  0.00    -0.149 NA
HETATM    9  N2  UNL     1      23.151   3.323  50.664  1.00  0.00    -0.159 N 
HETATM   10  C9  UNL     1      23.937   2.295  51.244  1.00  0.00     0.308 A 
HETATM   11  N3  UNL     1      25.352   2.415  51.151  1.00  0.00    -0.335 N 
HETATM   12  C17 UNL     1      26.043   3.382  50.421  1.00  0.00     0.107 A 
ENDROOT
BRANCH  11  13
HETATM   13  C10 UNL     1      26.038   1.423  51.898  1.00  0.00     0.036 A 
HETATM   14  C11 UNL     1      25.682   0.101  52.032  1.00  0.00     0.029 A 
HETATM   15  C12 UNL     1      26.350  -0.844  52.753  1.00  0.00     0.003 A 
HETATM   16  C13 UNL     1      27.492  -0.478  53.426  1.00  0.00     0.016 A 
HETATM   17  C14 UNL     1      27.907   0.826  53.337  1.00  0.00     0.050 A 
HETATM   18  C16 UNL     1      27.189   1.715  52.597  1.00  0.00     0.045 A 
BRANCH  17  19
HETATM   19  C15 UNL     1      29.147   1.185  54.074  1.00  0.00     0.417 C 
HETATM   20  F1  UNL     1      29.247   2.560  54.130  1.00  0.00    -0.166 F 
HETATM   21  F2  UNL     1      29.105   0.755  55.387  1.00  0.00    -0.166 F 
HETATM   22  F3  UNL     1      30.208   0.598  53.456  1.00  0.00    -0.166 F 
ENDBRANCH  17  19
ENDBRANCH  11  13
BRANCH   9  23
HETATM   23  O2  UNL     1      21.861   3.103  51.007  1.00  0.00    -0.269 OA
HETATM   24  H9  UNL     1      21.230   3.079  50.272  1.00  0.00     0.246 HD
ENDBRANCH   9  23
BRANCH   7  25
HETATM   25  C8  UNL     1      25.212   7.919  47.321  1.00  0.00     0.203 C 
BRANCH  25  26
HETATM   26  O1  UNL     1      24.356   7.728  46.225  1.00  0.00    -0.396 OA
HETATM   27  H8  UNL     1      24.827   7.413  45.435  1.00  0.00     0.209 HD
ENDBRANCH  25  26
ENDBRANCH   7  25
TORSDOF 5
ENDMDL
