MODEL 1
REMARK VINA RESULT:      -7.2      0.000      0.000
REMARK  7 active torsions:
REMARK  status: ('A' for Active; 'I' for Inactive)
REMARK    1  A    between atoms: C2_2  and  N1_3 
REMARK    2  A    between atoms: N1_3  and  C3_4 
REMARK    3  A    between atoms: C6_7  and  C7_8 
REMARK    4  A    between atoms: C7_8  and  C8_9 
REMARK    5  A    between atoms: C8_9  and  O1_10 
REMARK    6  A    between atoms: O1_10  and  C9_11 
REMARK    7  A    between atoms: C9_11  and  C10_12 
ROOT
HETATM    1  C3  UNL     1      26.435   0.228  54.231  1.00  0.00     0.033 A 
HETATM    2  C4  UNL     1      26.538   1.483  53.696  1.00  0.00     0.030 A 
HETATM    3  C5  UNL     1      25.450   2.030  53.079  1.00  0.00     0.011 A 
HETATM    4  C6  UNL     1      24.260   1.332  52.991  1.00  0.00    -0.034 A 
HETATM    5  C16 UNL     1      24.166   0.054  53.538  1.00  0.00     0.042 A 
HETATM    6 CL1  UNL     1      22.696  -0.908  53.474  1.00  0.00    -0.084 Cl
HETATM    7  C17 UNL     1      25.260  -0.526  54.173  1.00  0.00     0.053 A 
ENDROOT
BRANCH   4   8
HETATM    8  C7  UNL     1      23.010   1.855  52.326  1.00  0.00     0.066 C 
BRANCH   8   9
HETATM    9  C8  UNL     1      23.046   3.332  52.109  1.00  0.00     0.172 C 
BRANCH   9  10
HETATM   10  O1  UNL     1      22.673   3.668  50.834  1.00  0.00    -0.386 OA
BRANCH  10  11
HETATM   11  C9  UNL     1      23.328   3.045  49.811  1.00  0.00     0.206 C 
BRANCH  11  12
HETATM   12  C10 UNL     1      24.511   3.899  49.454  1.00  0.00    -0.032 A 
HETATM   13  C11 UNL     1      25.783   3.400  49.566  1.00  0.00     0.009 A 
HETATM   14  C12 UNL     1      26.974   4.044  49.284  1.00  0.00     0.004 A 
HETATM   15  C13 UNL     1      26.795   5.348  48.840  1.00  0.00     0.042 A 
HETATM   16  C14 UNL     1      25.545   5.918  48.702  1.00  0.00     0.117 A 
HETATM   17  F1  UNL     1      25.394   7.205  48.263  1.00  0.00    -0.206 F 
HETATM   18  C15 UNL     1      24.405   5.204  49.005  1.00  0.00     0.051 A 
ENDBRANCH  11  12
ENDBRANCH  10  11
ENDBRANCH   9  10
ENDBRANCH   8   9
ENDBRANCH   4   8
BRANCH   1  19
HETATM   19  N1  UNL     1      27.572  -0.336  54.873  1.00  0.00    -0.369 N 
HETATM   20  H4  UNL     1      27.322  -0.989  55.641  1.00  0.00     0.165 HD
BRANCH  19  21
HETATM   21  C2  UNL     1      28.928  -0.074  54.546  1.00  0.00     0.061 C 
HETATM   22  C1  UNL     1      29.621  -0.795  53.682  1.00  0.00     0.049 C 
ENDBRANCH  19  21
ENDBRANCH   1  19
TORSDOF 7
ENDMDL
MODEL 2
REMARK VINA RESULT:      -7.0      3.318      5.331
REMARK  7 active torsions:
REMARK  status: ('A' for Active; 'I' for Inactive)
REMARK    1  A    between atoms: C2_2  and  N1_3 
REMARK    2  A    between atoms: N1_3  and  C3_4 
REMARK    3  A    between atoms: C6_7  and  C7_8 
REMARK    4  A    between atoms: C7_8  and  C8_9 
REMARK    5  A    between atoms: C8_9  and  O1_10 
REMARK    6  A    between atoms: O1_10  and  C9_11 
REMARK    7  A    between atoms: C9_11  and  C10_12 
ROOT
HETATM    1  C3  UNL     1      26.763   1.974  53.390  1.00  0.00     0.033 A 
HETATM    2  C4  UNL     1      25.528   2.270  53.899  1.00  0.00     0.030 A 
HETATM    3  C5  UNL     1      24.581   2.798  53.069  1.00  0.00     0.011 A 
HETATM    4  C6  UNL     1      24.859   3.033  51.735  1.00  0.00    -0.034 A 
HETATM    5  C16 UNL     1      26.121   2.728  51.228  1.00  0.00     0.042 A 
HETATM    6 CL1  UNL     1      26.565   2.992  49.547  1.00  0.00    -0.084 Cl
HETATM    7  C17 UNL     1      27.103   2.190  52.053  1.00  0.00     0.053 A 
ENDROOT
BRANCH   4   8
HETATM    8  C7  UNL     1      23.877   3.614  50.747  1.00  0.00     0.066 C 
BRANCH   8   9
HETATM    9  C8  UNL     1      22.572   2.887  50.735  1.00  0.00     0.172 C 
BRANCH   9  10
HETATM   10  O1  UNL     1      22.730   1.565  50.410  1.00  0.00    -0.386 OA
BRANCH  10  11
HETATM   11  C9  UNL     1      21.674   0.735  50.657  1.00  0.00     0.206 C 
BRANCH  11  12
HETATM   12  C10 UNL     1      21.754   0.329  52.100  1.00  0.00    -0.032 A 
HETATM   13  C11 UNL     1      20.686   0.532  52.937  1.00  0.00     0.009 A 
HETATM   14  C12 UNL     1      20.591   0.223  54.281  1.00  0.00     0.004 A 
HETATM   15  C13 UNL     1      21.746  -0.360  54.787  1.00  0.00     0.042 A 
HETATM   16  C14 UNL     1      22.860  -0.596  54.006  1.00  0.00     0.117 A 
HETATM   17  F1  UNL     1      23.986  -1.171  54.528  1.00  0.00    -0.206 F 
HETATM   18  C15 UNL     1      22.871  -0.256  52.670  1.00  0.00     0.051 A 
ENDBRANCH  11  12
ENDBRANCH  10  11
ENDBRANCH   9  10
ENDBRANCH   8   9
ENDBRANCH   4   8
BRANCH   1  19
HETATM   19  N1  UNL     1      27.746   1.426  54.260  1.00  0.00    -0.369 N 
HETATM   20  H4  UNL     1      28.135   2.123  54.924  1.00  0.00     0.165 HD
BRANCH  19  21
HETATM   21  C2  UNL     1      28.192   0.078  54.269  1.00  0.00     0.061 C 
HETATM   22  C1  UNL     1      29.330  -0.316  53.725  1.00  0.00     0.049 C 
ENDBRANCH  19  21
ENDBRANCH   1  19
TORSDOF 7
ENDMDL
MODEL 3
REMARK VINA RESULT:      -6.8      1.089      1.511
REMARK  7 active torsions:
REMARK  status: ('A' for Active; 'I' for Inactive)
REMARK    1  A    between atoms: C2_2  and  N1_3 
REMARK    2  A    between atoms: N1_3  and  C3_4 
REMARK    3  A    between atoms: C6_7  and  C7_8 
REMARK    4  A    between atoms: C7_8  and  C8_9 
REMARK    5  A    between atoms: C8_9  and  O1_10 
REMARK    6  A    between atoms: O1_10  and  C9_11 
REMARK    7  A    between atoms: C9_11  and  C10_12 
ROOT
HETATM    1  C3  UNL     1      26.625  -0.340  53.372  1.00  0.00     0.033 A 
HETATM    2  C4  UNL     1      26.773   0.736  52.541  1.00  0.00     0.030 A 
HETATM    3  C5  UNL     1      25.664   1.436  52.162  1.00  0.00     0.011 A 
HETATM    4  C6  UNL     1      24.408   1.069  52.607  1.00  0.00    -0.034 A 
HETATM    5  C16 UNL     1      24.269  -0.030  53.453  1.00  0.00     0.042 A 
HETATM    6 CL1  UNL     1      22.713  -0.572  54.069  1.00  0.00    -0.084 Cl
HETATM    7  C17 UNL     1      25.383  -0.760  53.853  1.00  0.00     0.053 A 
ENDROOT
BRANCH   4   8
HETATM    8  C7  UNL     1      23.129   1.781  52.240  1.00  0.00     0.066 C 
BRANCH   8   9
HETATM    9  C8  UNL     1      23.334   3.235  51.972  1.00  0.00     0.172 C 
BRANCH   9  10
HETATM   10  O1  UNL     1      22.955   3.576  50.700  1.00  0.00    -0.386 OA
BRANCH  10  11
HETATM   11  C9  UNL     1      23.714   3.089  49.674  1.00  0.00     0.206 C 
BRANCH  11  12
HETATM   12  C10 UNL     1      24.700   4.159  49.301  1.00  0.00    -0.032 A 
HETATM   13  C11 UNL     1      24.264   5.415  48.966  1.00  0.00     0.009 A 
HETATM   14  C12 UNL     1      25.029   6.507  48.599  1.00  0.00     0.004 A 
HETATM   15  C13 UNL     1      26.391   6.237  48.585  1.00  0.00     0.042 A 
HETATM   16  C14 UNL     1      26.903   4.998  48.911  1.00  0.00     0.117 A 
HETATM   17  F1  UNL     1      28.250   4.756  48.890  1.00  0.00    -0.206 F 
HETATM   18  C15 UNL     1      26.069   3.959  49.268  1.00  0.00     0.051 A 
ENDBRANCH  11  12
ENDBRANCH  10  11
ENDBRANCH   9  10
ENDBRANCH   8   9
ENDBRANCH   4   8
BRANCH   1  19
HETATM   19  N1  UNL     1      27.785  -1.066  53.762  1.00  0.00    -0.369 N 
HETATM   20  H4  UNL     1      27.650  -2.095  53.727  1.00  0.00     0.165 HD
BRANCH  19  21
HETATM   21  C2  UNL     1      29.023  -0.502  54.167  1.00  0.00     0.061 C 
HETATM   22  C1  UNL     1      30.156  -0.687  53.514  1.00  0.00     0.049 C 
ENDBRANCH  19  21
ENDBRANCH   1  19
TORSDOF 7
ENDMDL
MODEL 4
REMARK VINA RESULT:      -6.8      3.581      5.379
REMARK  7 active torsions:
REMARK  status: ('A' for Active; 'I' for Inactive)
REMARK    1  A    between atoms: C2_2  and  N1_3 
REMARK    2  A    between atoms: N1_3  and  C3_4 
REMARK    3  A    between atoms: C6_7  and  C7_8 
REMARK    4  A    between atoms: C7_8  and  C8_9 
REMARK    5  A    between atoms: C8_9  and  O1_10 
REMARK    6  A    between atoms: O1_10  and  C9_11 
REMARK    7  A    between atoms: C9_11  and  C10_12 
ROOT
HETATM    1  C3  UNL     1      26.757  -0.487  53.139  1.00  0.00     0.033 A 
HETATM    2  C4  UNL     1      25.550  -0.422  53.779  1.00  0.00     0.030 A 
HETATM    3  C5  UNL     1      24.651   0.533  53.398  1.00  0.00     0.011 A 
HETATM    4  C6  UNL     1      24.950   1.423  52.384  1.00  0.00    -0.034 A 
HETATM    5  C16 UNL     1      26.184   1.348  51.739  1.00  0.00     0.042 A 
HETATM    6 CL1  UNL     1      26.652   2.436  50.440  1.00  0.00    -0.084 Cl
HETATM    7  C17 UNL     1      27.117   0.385  52.109  1.00  0.00     0.053 A 
ENDROOT
BRANCH   4   8
HETATM    8  C7  UNL     1      24.022   2.509  51.898  1.00  0.00     0.066 C 
BRANCH   8   9
HETATM    9  C8  UNL     1      23.227   2.098  50.703  1.00  0.00     0.172 C 
BRANCH   9  10
HETATM   10  O1  UNL     1      21.885   2.051  50.977  1.00  0.00    -0.386 OA
BRANCH  10  11
HETATM   11  C9  UNL     1      21.277   0.831  50.897  1.00  0.00     0.206 C 
BRANCH  11  12
HETATM   12  C10 UNL     1      21.295   0.232  52.274  1.00  0.00    -0.032 A 
HETATM   13  C11 UNL     1      21.772  -1.038  52.470  1.00  0.00     0.009 A 
HETATM   14  C12 UNL     1      21.858  -1.737  53.660  1.00  0.00     0.004 A 
HETATM   15  C13 UNL     1      21.388  -1.014  54.750  1.00  0.00     0.042 A 
HETATM   16  C14 UNL     1      20.893   0.268  54.629  1.00  0.00     0.117 A 
HETATM   17  F1  UNL     1      20.435   0.960  55.718  1.00  0.00    -0.206 F 
HETATM   18  C15 UNL     1      20.843   0.895  53.402  1.00  0.00     0.051 A 
ENDBRANCH  11  12
ENDBRANCH  10  11
ENDBRANCH   9  10
ENDBRANCH   8   9
ENDBRANCH   4   8
BRANCH   1  19
HETATM   19  N1  UNL     1      27.690  -1.484  53.542  1.00  0.00    -0.369 N 
HETATM   20  H4  UNL     1      27.269  -2.210  54.154  1.00  0.00     0.165 HD
BRANCH  19  21
HETATM   21  C2  UNL     1      29.061  -1.535  53.180  1.00  0.00     0.061 C 
HETATM   22  C1  UNL     1      29.997  -0.812  53.770  1.00  0.00     0.049 C 
ENDBRANCH  19  21
ENDBRANCH   1  19
TORSDOF 7
ENDMDL
MODEL 5
REMARK VINA RESULT:      -6.7      3.351      6.104
REMARK  7 active torsions:
REMARK  status: ('A' for Active; 'I' for Inactive)
REMARK    1  A    between atoms: C2_2  and  N1_3 
REMARK    2  A    between atoms: N1_3  and  C3_4 
REMARK    3  A    between atoms: C6_7  and  C7_8 
REMARK    4  A    between atoms: C7_8  and  C8_9 
REMARK    5  A    between atoms: C8_9  and  O1_10 
REMARK    6  A    between atoms: O1_10  and  C9_11 
REMARK    7  A    between atoms: C9_11  and  C10_12 
ROOT
HETATM    1  C3  UNL     1      26.639   5.333  49.064  1.00  0.00     0.033 A 
HETATM    2  C4  UNL     1      26.893   4.073  49.532  1.00  0.00     0.030 A 
HETATM    3  C5  UNL     1      25.846   3.221  49.736  1.00  0.00     0.011 A 
HETATM    4  C6  UNL     1      24.548   3.619  49.477  1.00  0.00    -0.034 A 
HETATM    5  C16 UNL     1      24.300   4.905  49.001  1.00  0.00     0.042 A 
HETATM    6 CL1  UNL     1      22.684   5.498  48.643  1.00  0.00    -0.084 Cl
HETATM    7  C17 UNL     1      25.350   5.792  48.785  1.00  0.00     0.053 A 
ENDROOT
BRANCH   4   8
HETATM    8  C7  UNL     1      23.331   2.747  49.674  1.00  0.00     0.066 C 
BRANCH   8   9
HETATM    9  C8  UNL     1      22.595   3.060  50.935  1.00  0.00     0.172 C 
BRANCH   9  10
HETATM   10  O1  UNL     1      23.422   3.028  52.027  1.00  0.00    -0.386 OA
BRANCH  10  11
HETATM   11  C9  UNL     1      23.527   1.840  52.693  1.00  0.00     0.206 C 
BRANCH  11  12
HETATM   12  C10 UNL     1      24.986   1.494  52.761  1.00  0.00    -0.032 A 
HETATM   13  C11 UNL     1      25.436   0.291  52.280  1.00  0.00     0.009 A 
HETATM   14  C12 UNL     1      26.734  -0.185  52.266  1.00  0.00     0.004 A 
HETATM   15  C13 UNL     1      27.645   0.706  52.819  1.00  0.00     0.042 A 
HETATM   16  C14 UNL     1      27.267   1.934  53.323  1.00  0.00     0.117 A 
HETATM   17  F1  UNL     1      28.184   2.795  53.863  1.00  0.00    -0.206 F 
HETATM   18  C15 UNL     1      25.947   2.333  53.297  1.00  0.00     0.051 A 
ENDBRANCH  11  12
ENDBRANCH  10  11
ENDBRANCH   9  10
ENDBRANCH   8   9
ENDBRANCH   4   8
BRANCH   1  19
HETATM   19  N1  UNL     1      27.734   6.217  48.854  1.00  0.00    -0.369 N 
HETATM   20  H4  UNL     1      27.542   7.185  49.179  1.00  0.00     0.165 HD
BRANCH  19  21
HETATM   21  C2  UNL     1      28.980   5.874  48.267  1.00  0.00     0.061 C 
HETATM   22  C1  UNL     1      29.611   6.642  47.396  1.00  0.00     0.049 C 
ENDBRANCH  19  21
ENDBRANCH   1  19
TORSDOF 7
ENDMDL
MODEL 6
REMARK VINA RESULT:      -6.4      3.407      6.400
REMARK  7 active torsions:
REMARK  status: ('A' for Active; 'I' for Inactive)
REMARK    1  A    between atoms: C2_2  and  N1_3 
REMARK    2  A    between atoms: N1_3  and  C3_4 
REMARK    3  A    between atoms: C6_7  and  C7_8 
REMARK    4  A    between atoms: C7_8  and  C8_9 
REMARK    5  A    between atoms: C8_9  and  O1_10 
REMARK    6  A    between atoms: O1_10  and  C9_11 
REMARK    7  A    between atoms: C9_11  and  C10_12 
ROOT
HETATM    1  C3  UNL     1      26.152   4.073  49.882  1.00  0.00     0.033 A 
HETATM    2  C4  UNL     1      26.705   3.004  50.534  1.00  0.00     0.030 A 
HETATM    3  C5  UNL     1      26.038   2.460  51.594  1.00  0.00     0.011 A 
HETATM    4  C6  UNL     1      24.824   2.976  52.007  1.00  0.00    -0.034 A 
HETATM    5  C16 UNL     1      24.271   4.065  51.337  1.00  0.00     0.042 A 
HETATM    6 CL1  UNL     1      22.733   4.787  51.791  1.00  0.00    -0.084 Cl
HETATM    7  C17 UNL     1      24.930   4.638  50.254  1.00  0.00     0.053 A 
ENDROOT
BRANCH   4   8
HETATM    8  C7  UNL     1      24.019   2.441  53.167  1.00  0.00     0.066 C 
BRANCH   8   9
HETATM    9  C8  UNL     1      23.371   1.131  52.864  1.00  0.00     0.172 C 
BRANCH   9  10
HETATM   10  O1  UNL     1      24.296   0.140  52.661  1.00  0.00    -0.386 OA
BRANCH  10  11
HETATM   11  C9  UNL     1      24.685  -0.579  53.755  1.00  0.00     0.206 C 
BRANCH  11  12
HETATM   12  C10 UNL     1      26.186  -0.626  53.746  1.00  0.00    -0.032 A 
HETATM   13  C11 UNL     1      26.844  -1.591  53.026  1.00  0.00     0.009 A 
HETATM   14  C12 UNL     1      28.209  -1.779  52.911  1.00  0.00     0.004 A 
HETATM   15  C13 UNL     1      28.949  -0.851  53.633  1.00  0.00     0.042 A 
HETATM   16  C14 UNL     1      28.357   0.147  54.380  1.00  0.00     0.117 A 
HETATM   17  F1  UNL     1      29.107   1.050  55.083  1.00  0.00    -0.206 F 
HETATM   18  C15 UNL     1      26.984   0.265  54.441  1.00  0.00     0.051 A 
ENDBRANCH  11  12
ENDBRANCH  10  11
ENDBRANCH   9  10
ENDBRANCH   8   9
ENDBRANCH   4   8
BRANCH   1  19
HETATM   19  N1  UNL     1      26.853   4.636  48.779  1.00  0.00    -0.369 N 
HETATM   20  H4  UNL     1      27.299   3.920  48.174  1.00  0.00     0.165 HD
BRANCH  19  21
HETATM   21  C2  UNL     1      26.967   6.019  48.484  1.00  0.00     0.061 C 
HETATM   22  C1  UNL     1      28.123   6.651  48.389  1.00  0.00     0.049 C 
ENDBRANCH  19  21
ENDBRANCH   1  19
TORSDOF 7
ENDMDL
MODEL 7
REMARK VINA RESULT:      -6.4      4.280      6.892
REMARK  7 active torsions:
REMARK  status: ('A' for Active; 'I' for Inactive)
REMARK    1  A    between atoms: C2_2  and  N1_3 
REMARK    2  A    between atoms: N1_3  and  C3_4 
REMARK    3  A    between atoms: C6_7  and  C7_8 
REMARK    4  A    between atoms: C7_8  and  C8_9 
REMARK    5  A    between atoms: C8_9  and  O1_10 
REMARK    6  A    between atoms: O1_10  and  C9_11 
REMARK    7  A    between atoms: C9_11  and  C10_12 
ROOT
HETATM    1  C3  UNL     1      19.550  -0.853  53.364  1.00  0.00     0.033 A 
HETATM    2  C4  UNL     1      20.675  -1.186  54.067  1.00  0.00     0.030 A 
HETATM    3  C5  UNL     1      21.796  -0.421  53.922  1.00  0.00     0.011 A 
HETATM    4  C6  UNL     1      21.802   0.674  53.078  1.00  0.00    -0.034 A 
HETATM    5  C16 UNL     1      20.651   1.004  52.366  1.00  0.00     0.042 A 
HETATM    6 CL1  UNL     1      20.565   2.378  51.271  1.00  0.00    -0.084 Cl
HETATM    7  C17 UNL     1      19.495   0.241  52.496  1.00  0.00     0.053 A 
ENDROOT
BRANCH   4   8
HETATM    8  C7  UNL     1      22.993   1.574  52.854  1.00  0.00     0.066 C 
BRANCH   8   9
HETATM    9  C8  UNL     1      23.827   1.148  51.690  1.00  0.00     0.172 C 
BRANCH   9  10
HETATM   10  O1  UNL     1      25.151   1.043  52.025  1.00  0.00    -0.386 OA
BRANCH  10  11
HETATM   11  C9  UNL     1      25.510  -0.014  52.812  1.00  0.00     0.206 C 
BRANCH  11  12
HETATM   12  C10 UNL     1      26.966   0.151  53.143  1.00  0.00    -0.032 A 
HETATM   13  C11 UNL     1      27.828  -0.910  53.022  1.00  0.00     0.009 A 
HETATM   14  C12 UNL     1      29.185  -0.933  53.284  1.00  0.00     0.004 A 
HETATM   15  C13 UNL     1      29.675   0.292  53.720  1.00  0.00     0.042 A 
HETATM   16  C14 UNL     1      28.869   1.402  53.867  1.00  0.00     0.117 A 
HETATM   17  F1  UNL     1      29.376   2.598  54.298  1.00  0.00    -0.206 F 
HETATM   18  C15 UNL     1      27.521   1.340  53.582  1.00  0.00     0.051 A 
ENDBRANCH  11  12
ENDBRANCH  10  11
ENDBRANCH   9  10
ENDBRANCH   8   9
ENDBRANCH   4   8
BRANCH   1  19
HETATM   19  N1  UNL     1      18.385  -1.654  53.519  1.00  0.00    -0.369 N 
HETATM   20  H4  UNL     1      18.583  -2.578  53.950  1.00  0.00     0.165 HD
BRANCH  19  21
HETATM   21  C2  UNL     1      17.066  -1.288  53.144  1.00  0.00     0.061 C 
HETATM   22  C1  UNL     1      16.158  -2.156  52.732  1.00  0.00     0.049 C 
ENDBRANCH  19  21
ENDBRANCH   1  19
TORSDOF 7
ENDMDL
MODEL 8
REMARK VINA RESULT:      -6.3      4.392      6.804
REMARK  7 active torsions:
REMARK  status: ('A' for Active; 'I' for Inactive)
REMARK    1  A    between atoms: C2_2  and  N1_3 
REMARK    2  A    between atoms: N1_3  and  C3_4 
REMARK    3  A    between atoms: C6_7  and  C7_8 
REMARK    4  A    between atoms: C7_8  and  C8_9 
REMARK    5  A    between atoms: C8_9  and  O1_10 
REMARK    6  A    between atoms: O1_10  and  C9_11 
REMARK    7  A    between atoms: C9_11  and  C10_12 
ROOT
HETATM    1  C3  UNL     1      19.304  -0.150  52.338  1.00  0.00     0.033 A 
HETATM    2  C4  UNL     1      19.649   0.548  51.213  1.00  0.00     0.030 A 
HETATM    3  C5  UNL     1      20.950   0.925  51.042  1.00  0.00     0.011 A 
HETATM    4  C6  UNL     1      21.908   0.610  51.987  1.00  0.00    -0.034 A 
HETATM    5  C16 UNL     1      21.546  -0.100  53.129  1.00  0.00     0.042 A 
HETATM    6 CL1  UNL     1      22.696  -0.545  54.383  1.00  0.00    -0.084 Cl
HETATM    7  C17 UNL     1      20.227  -0.496  53.327  1.00  0.00     0.053 A 
ENDROOT
BRANCH   4   8
HETATM    8  C7  UNL     1      23.367   0.987  51.883  1.00  0.00     0.066 C 
BRANCH   8   9
HETATM    9  C8  UNL     1      23.740   2.108  52.796  1.00  0.00     0.172 C 
BRANCH   9  10
HETATM   10  O1  UNL     1      25.099   2.246  52.902  1.00  0.00    -0.386 OA
BRANCH  10  11
HETATM   11  C9  UNL     1      25.860   1.667  51.927  1.00  0.00     0.206 C 
BRANCH  11  12
HETATM   12  C10 UNL     1      27.028   1.009  52.604  1.00  0.00    -0.032 A 
HETATM   13  C11 UNL     1      27.946   1.764  53.288  1.00  0.00     0.009 A 
HETATM   14  C12 UNL     1      29.071   1.324  53.961  1.00  0.00     0.004 A 
HETATM   15  C13 UNL     1      29.238  -0.054  53.900  1.00  0.00     0.042 A 
HETATM   16  C14 UNL     1      28.355  -0.877  53.230  1.00  0.00     0.117 A 
HETATM   17  F1  UNL     1      28.541  -2.232  53.184  1.00  0.00    -0.206 F 
HETATM   18  C15 UNL     1      27.254  -0.356  52.584  1.00  0.00     0.051 A 
ENDBRANCH  11  12
ENDBRANCH  10  11
ENDBRANCH   9  10
ENDBRANCH   8   9
ENDBRANCH   4   8
BRANCH   1  19
HETATM   19  N1  UNL     1      17.946  -0.539  52.511  1.00  0.00    -0.369 N 
HETATM   20  H4  UNL     1      17.307  -0.099  51.820  1.00  0.00     0.165 HD
BRANCH  19  21
HETATM   21  C2  UNL     1      17.455  -1.428  53.502  1.00  0.00     0.061 C 
HETATM   22  C1  UNL     1      17.728  -2.721  53.520  1.00  0.00     0.049 C 
ENDBRANCH  19  21
ENDBRANCH   1  19
TORSDOF 7
ENDMDL
MODEL 9
REMARK VINA RESULT:      -6.3      4.486      7.693
REMARK  7 active torsions:
REMARK  status: ('A' for Active; 'I' for Inactive)
REMARK    1  A    between atoms: C2_2  and  N1_3 
REMARK    2  A    between atoms: N1_3  and  C3_4 
REMARK    3  A    between atoms: C6_7  and  C7_8 
REMARK    4  A    between atoms: C7_8  and  C8_9 
REMARK    5  A    between atoms: C8_9  and  O1_10 
REMARK    6  A    between atoms: O1_10  and  C9_11 
REMARK    7  A    between atoms: C9_11  and  C10_12 
ROOT
HETATM    1  C3  UNL     1      28.437   7.101  48.297  1.00  0.00     0.033 A 
HETATM    2  C4  UNL     1      28.846   5.799  48.198  1.00  0.00     0.030 A 
HETATM    3  C5  UNL     1      27.976   4.805  48.541  1.00  0.00     0.011 A 
HETATM    4  C6  UNL     1      26.700   5.101  48.984  1.00  0.00    -0.034 A 
HETATM    5  C16 UNL     1      26.293   6.431  49.082  1.00  0.00     0.042 A 
HETATM    6 CL1  UNL     1      24.692   6.903  49.633  1.00  0.00    -0.084 Cl
HETATM    7  C17 UNL     1      27.161   7.462  48.738  1.00  0.00     0.053 A 
ENDROOT
BRANCH   4   8
HETATM    8  C7  UNL     1      25.674   4.070  49.386  1.00  0.00     0.066 C 
BRANCH   8   9
HETATM    9  C8  UNL     1      26.271   2.921  50.130  1.00  0.00     0.172 C 
BRANCH   9  10
HETATM   10  O1  UNL     1      25.804   2.852  51.417  1.00  0.00    -0.386 OA
BRANCH  10  11
HETATM   11  C9  UNL     1      25.576   1.606  51.928  1.00  0.00     0.206 C 
BRANCH  11  12
HETATM   12  C10 UNL     1      26.843   1.161  52.600  1.00  0.00    -0.032 A 
HETATM   13  C11 UNL     1      27.661   2.077  53.211  1.00  0.00     0.009 A 
HETATM   14  C12 UNL     1      28.855   1.841  53.868  1.00  0.00     0.004 A 
HETATM   15  C13 UNL     1      29.215   0.500  53.876  1.00  0.00     0.042 A 
HETATM   16  C14 UNL     1      28.443  -0.478  53.282  1.00  0.00     0.117 A 
HETATM   17  F1  UNL     1      28.820  -1.793  53.303  1.00  0.00    -0.206 F 
HETATM   18  C15 UNL     1      27.262  -0.157  52.646  1.00  0.00     0.051 A 
ENDBRANCH  11  12
ENDBRANCH  10  11
ENDBRANCH   9  10
ENDBRANCH   8   9
ENDBRANCH   4   8
BRANCH   1  19
HETATM   19  N1  UNL     1      29.348   8.133  47.939  1.00  0.00    -0.369 N 
HETATM   20  H4  UNL     1      29.212   8.476  46.968  1.00  0.00     0.165 HD
BRANCH  19  21
HETATM   21  C2  UNL     1      30.360   8.676  48.773  1.00  0.00     0.061 C 
HETATM   22  C1  UNL     1      30.275   9.867  49.339  1.00  0.00     0.049 C 
ENDBRANCH  19  21
ENDBRANCH   1  19
TORSDOF 7
ENDMDL
