MODEL 1
REMARK VINA RESULT:      -9.2      0.000      0.000
REMARK  5 active torsions:
REMARK  status: ('A' for Active; 'I' for Inactive)
REMARK       I    between atoms: C1_2  and  N1_3 
REMARK       I    between atoms: C1_2  and  N3_12 
REMARK    1  A    between atoms: N1_3  and  C2_4 
REMARK    2  A    between atoms: C2_4  and  C3_5 
REMARK    3  A    between atoms: C3_5  and  N2_6 
REMARK    4  A    between atoms: C12_16  and  N4_17 
REMARK    5  A    between atoms: N4_17  and  C13_18 
ROOT
HETATM    1  O1  UNL     1      26.717   4.001  48.981  1.00  0.00    -0.246 OA
HETATM    2  C1  UNL     1      26.104   5.009  49.481  1.00  0.00     0.326 C 
HETATM    3  N1  UNL     1      24.925   4.626  50.171  1.00  0.00    -0.341 N 
HETATM    4  N3  UNL     1      26.742   6.248  49.227  1.00  0.00    -0.285 N 
HETATM    5  C9  UNL     1      27.942   6.069  48.457  1.00  0.00     0.114 C 
HETATM    6  C10 UNL     1      28.763   6.836  47.771  1.00  0.00     0.009 C 
HETATM    7  C11 UNL     1      29.374   7.874  48.232  1.00  0.00     0.051 A 
HETATM    8  C12 UNL     1      30.634   7.792  47.629  1.00  0.00     0.143 A 
HETATM    9  N5  UNL     1      31.524   8.774  47.926  1.00  0.00    -0.223 NA
HETATM   10  C19 UNL     1      31.169   9.767  48.769  1.00  0.00     0.236 A 
HETATM   11  N6  UNL     1      29.959   9.852  49.352  1.00  0.00    -0.241 NA
HETATM   12  C20 UNL     1      29.026   8.896  49.093  1.00  0.00     0.073 A 
HETATM   13  C21 UNL     1      27.968   9.258  49.801  1.00  0.00     0.034 C 
HETATM   14  C22 UNL     1      26.621   8.674  49.976  1.00  0.00     0.020 C 
HETATM   15  C23 UNL     1      26.158   7.441  49.730  1.00  0.00     0.101 C 
HETATM   16  H1  UNL     1      24.466   5.481  50.558  1.00  0.00     0.164 HD
ENDROOT
BRANCH   3  17
HETATM   17  C2  UNL     1      24.827   3.193  50.062  1.00  0.00     0.154 C 
BRANCH  17  18
HETATM   18  C3  UNL     1      24.571   2.450  51.320  1.00  0.00     0.292 C 
BRANCH  18  19
HETATM   19  N2  UNL     1      25.692   2.335  52.195  1.00  0.00     0.090 N 
HETATM   20  C4  UNL     1      25.376   2.057  53.548  1.00  0.00     0.272 C 
HETATM   21  C5  UNL     1      26.408   1.150  54.211  1.00  0.00     0.030 C 
HETATM   22  C6  UNL     1      26.458  -0.189  53.479  1.00  0.00     0.003 C 
HETATM   23  C7  UNL     1      26.549   0.068  52.010  1.00  0.00     0.030 C 
HETATM   24  C8  UNL     1      26.754   1.538  51.666  1.00  0.00     0.272 C 
ENDBRANCH  18  19
ENDBRANCH  17  18
ENDBRANCH   3  17
BRANCH   8  25
HETATM   25  N4  UNL     1      30.867   6.668  46.756  1.00  0.00    -0.340 N 
HETATM   26  H17 UNL     1      30.366   6.394  45.864  1.00  0.00     0.167 HD
BRANCH  25  27
HETATM   27  C13 UNL     1      31.941   5.802  47.171  1.00  0.00     0.035 A 
HETATM   28  C14 UNL     1      33.098   6.330  47.691  1.00  0.00     0.032 A 
HETATM   29  C15 UNL     1      34.200   5.593  48.116  1.00  0.00     0.046 A 
HETATM   30  C16 UNL     1      34.066   4.210  47.982  1.00  0.00     0.138 A 
HETATM   31  F1  UNL     1      35.116   3.450  48.385  1.00  0.00    -0.204 F 
HETATM   32  C17 UNL     1      32.923   3.639  47.467  1.00  0.00     0.074 A 
HETATM   33 CL1  UNL     1      32.819   1.889  47.324  1.00  0.00    -0.081 Cl
HETATM   34  C18 UNL     1      31.853   4.435  47.058  1.00  0.00     0.056 A 
ENDBRANCH  25  27
ENDBRANCH   8  25
TORSDOF 5
ENDMDL
MODEL 2
REMARK VINA RESULT:      -9.1      1.758      2.585
REMARK  5 active torsions:
REMARK  status: ('A' for Active; 'I' for Inactive)
REMARK       I    between atoms: C1_2  and  N1_3 
REMARK       I    between atoms: C1_2  and  N3_12 
REMARK    1  A    between atoms: N1_3  and  C2_4 
REMARK    2  A    between atoms: C2_4  and  C3_5 
REMARK    3  A    between atoms: C3_5  and  N2_6 
REMARK    4  A    between atoms: C12_16  and  N4_17 
REMARK    5  A    between atoms: N4_17  and  C13_18 
ROOT
HETATM    1  O1  UNL     1      26.477   2.102  50.748  1.00  0.00    -0.246 OA
HETATM    2  C1  UNL     1      25.480   2.908  50.776  1.00  0.00     0.326 C 
HETATM    3  N1  UNL     1      24.391   2.381  51.515  1.00  0.00    -0.341 N 
HETATM    4  N3  UNL     1      25.704   4.115  50.068  1.00  0.00    -0.285 N 
HETATM    5  C9  UNL     1      27.015   4.143  49.483  1.00  0.00     0.114 C 
HETATM    6  C10 UNL     1      27.646   4.861  48.579  1.00  0.00     0.009 C 
HETATM    7  C11 UNL     1      27.778   6.145  48.606  1.00  0.00     0.051 A 
HETATM    8  C12 UNL     1      29.082   6.337  48.137  1.00  0.00     0.143 A 
HETATM    9  N5  UNL     1      29.521   7.619  48.047  1.00  0.00    -0.223 NA
HETATM   10  C19 UNL     1      28.705   8.633  48.404  1.00  0.00     0.236 A 
HETATM   11  N6  UNL     1      27.449   8.455  48.855  1.00  0.00    -0.241 NA
HETATM   12  C20 UNL     1      26.954   7.192  48.968  1.00  0.00     0.073 A 
HETATM   13  C21 UNL     1      25.724   7.353  49.428  1.00  0.00     0.034 C 
HETATM   14  C22 UNL     1      24.642   6.405  49.771  1.00  0.00     0.020 C 
HETATM   15  C23 UNL     1      24.672   5.090  50.026  1.00  0.00     0.101 C 
HETATM   16  H1  UNL     1      23.608   3.074  51.507  1.00  0.00     0.164 HD
ENDROOT
BRANCH   3  17
HETATM   17  C2  UNL     1      24.799   1.083  51.989  1.00  0.00     0.154 C 
BRANCH  17  18
HETATM   18  C3  UNL     1      25.003   0.948  53.452  1.00  0.00     0.292 C 
BRANCH  18  19
HETATM   19  N2  UNL     1      25.834  -0.140  53.850  1.00  0.00     0.090 N 
HETATM   20  C4  UNL     1      26.416  -0.876  52.788  1.00  0.00     0.272 C 
HETATM   21  C5  UNL     1      27.818  -1.373  53.124  1.00  0.00     0.030 C 
HETATM   22  C6  UNL     1      28.732  -0.180  53.394  1.00  0.00     0.003 C 
HETATM   23  C7  UNL     1      28.042   0.752  54.337  1.00  0.00     0.030 C 
HETATM   24  C8  UNL     1      26.745   0.188  54.902  1.00  0.00     0.272 C 
ENDBRANCH  18  19
ENDBRANCH  17  18
ENDBRANCH   3  17
BRANCH   8  25
HETATM   25  N4  UNL     1      29.835   5.154  47.800  1.00  0.00    -0.340 N 
HETATM   26  H17 UNL     1      29.490   4.180  47.568  1.00  0.00     0.167 HD
BRANCH  25  27
HETATM   27  C13 UNL     1      31.264   5.341  47.782  1.00  0.00     0.035 A 
HETATM   28  C14 UNL     1      31.931   5.707  48.926  1.00  0.00     0.032 A 
HETATM   29  C15 UNL     1      33.303   5.923  49.023  1.00  0.00     0.046 A 
HETATM   30  C16 UNL     1      34.011   5.738  47.834  1.00  0.00     0.138 A 
HETATM   31  F1  UNL     1      35.353   5.936  47.882  1.00  0.00    -0.204 F 
HETATM   32  C17 UNL     1      33.381   5.371  46.665  1.00  0.00     0.074 A 
HETATM   33 CL1  UNL     1      34.331   5.155  45.202  1.00  0.00    -0.081 Cl
HETATM   34  C18 UNL     1      32.001   5.171  46.634  1.00  0.00     0.056 A 
ENDBRANCH  25  27
ENDBRANCH   8  25
TORSDOF 5
ENDMDL
MODEL 3
REMARK VINA RESULT:      -9.1      2.471      3.022
REMARK  5 active torsions:
REMARK  status: ('A' for Active; 'I' for Inactive)
REMARK       I    between atoms: C1_2  and  N1_3 
REMARK       I    between atoms: C1_2  and  N3_12 
REMARK    1  A    between atoms: N1_3  and  C2_4 
REMARK    2  A    between atoms: C2_4  and  C3_5 
REMARK    3  A    between atoms: C3_5  and  N2_6 
REMARK    4  A    between atoms: C12_16  and  N4_17 
REMARK    5  A    between atoms: N4_17  and  C13_18 
ROOT
HETATM    1  O1  UNL     1      24.863   3.945  51.211  1.00  0.00    -0.246 OA
HETATM    2  C1  UNL     1      24.019   4.474  50.404  1.00  0.00     0.326 C 
HETATM    3  N1  UNL     1      22.681   4.161  50.754  1.00  0.00    -0.341 N 
HETATM    4  N3  UNL     1      24.619   5.235  49.370  1.00  0.00    -0.285 N 
HETATM    5  C9  UNL     1      26.052   5.227  49.480  1.00  0.00     0.114 C 
HETATM    6  C10 UNL     1      27.073   5.547  48.713  1.00  0.00     0.009 C 
HETATM    7  C11 UNL     1      27.256   6.696  48.157  1.00  0.00     0.051 A 
HETATM    8  C12 UNL     1      28.637   6.884  48.269  1.00  0.00     0.143 A 
HETATM    9  N5  UNL     1      29.146   8.034  47.757  1.00  0.00    -0.223 NA
HETATM   10  C19 UNL     1      28.322   8.930  47.173  1.00  0.00     0.236 A 
HETATM   11  N6  UNL     1      26.991   8.755  47.062  1.00  0.00    -0.241 NA
HETATM   12  C20 UNL     1      26.425   7.622  47.557  1.00  0.00     0.073 A 
HETATM   13  C21 UNL     1      25.134   7.749  47.295  1.00  0.00     0.034 C 
HETATM   14  C22 UNL     1      23.960   6.889  47.557  1.00  0.00     0.020 C 
HETATM   15  C23 UNL     1      23.787   5.871  48.411  1.00  0.00     0.101 C 
HETATM   16  H1  UNL     1      22.036   4.615  50.067  1.00  0.00     0.164 HD
ENDROOT
BRANCH   3  17
HETATM   17  C2  UNL     1      22.742   3.330  51.929  1.00  0.00     0.154 C 
BRANCH  17  18
HETATM   18  C3  UNL     1      21.782   2.201  51.990  1.00  0.00     0.292 C 
BRANCH  18  19
HETATM   19  N2  UNL     1      22.373   0.902  51.996  1.00  0.00     0.090 N 
HETATM   20  C4  UNL     1      23.591   0.796  52.713  1.00  0.00     0.272 C 
HETATM   21  C5  UNL     1      23.738  -0.551  53.412  1.00  0.00     0.030 C 
HETATM   22  C6  UNL     1      22.607  -0.730  54.423  1.00  0.00     0.003 C 
HETATM   23  C7  UNL     1      21.311  -0.388  53.762  1.00  0.00     0.030 C 
HETATM   24  C8  UNL     1      21.443  -0.150  52.262  1.00  0.00     0.272 C 
ENDBRANCH  18  19
ENDBRANCH  17  18
ENDBRANCH   3  17
BRANCH   8  25
HETATM   25  N4  UNL     1      29.386   5.840  48.924  1.00  0.00    -0.340 N 
HETATM   26  H17 UNL     1      29.075   5.156  49.670  1.00  0.00     0.167 HD
BRANCH  25  27
HETATM   27  C13 UNL     1      30.755   5.725  48.490  1.00  0.00     0.035 A 
HETATM   28  C14 UNL     1      31.762   6.333  49.200  1.00  0.00     0.032 A 
HETATM   29  C15 UNL     1      33.115   6.295  48.870  1.00  0.00     0.046 A 
HETATM   30  C16 UNL     1      33.417   5.568  47.719  1.00  0.00     0.138 A 
HETATM   31  F1  UNL     1      34.725   5.503  47.359  1.00  0.00    -0.204 F 
HETATM   32  C17 UNL     1      32.439   4.942  46.978  1.00  0.00     0.074 A 
HETATM   33 CL1  UNL     1      32.887   4.041  45.536  1.00  0.00    -0.081 Cl
HETATM   34  C18 UNL     1      31.099   5.019  47.362  1.00  0.00     0.056 A 
ENDBRANCH  25  27
ENDBRANCH   8  25
TORSDOF 5
ENDMDL
MODEL 4
REMARK VINA RESULT:      -9.0      4.157      9.382
REMARK  5 active torsions:
REMARK  status: ('A' for Active; 'I' for Inactive)
REMARK       I    between atoms: C1_2  and  N1_3 
REMARK       I    between atoms: C1_2  and  N3_12 
REMARK    1  A    between atoms: N1_3  and  C2_4 
REMARK    2  A    between atoms: C2_4  and  C3_5 
REMARK    3  A    between atoms: C3_5  and  N2_6 
REMARK    4  A    between atoms: C12_16  and  N4_17 
REMARK    5  A    between atoms: N4_17  and  C13_18 
ROOT
HETATM    1  O1  UNL     1      27.165   4.403  48.765  1.00  0.00    -0.246 OA
HETATM    2  C1  UNL     1      26.839   5.561  49.206  1.00  0.00     0.326 C 
HETATM    3  N1  UNL     1      27.777   6.557  48.830  1.00  0.00    -0.341 N 
HETATM    4  N3  UNL     1      25.636   5.568  49.956  1.00  0.00    -0.285 N 
HETATM    5  C9  UNL     1      25.066   4.253  50.039  1.00  0.00     0.114 C 
HETATM    6  C10 UNL     1      24.139   3.654  50.757  1.00  0.00     0.009 C 
HETATM    7  C11 UNL     1      22.915   4.046  50.870  1.00  0.00     0.051 A 
HETATM    8  C12 UNL     1      22.198   2.845  50.873  1.00  0.00     0.143 A 
HETATM    9  N5  UNL     1      20.848   2.933  50.987  1.00  0.00    -0.223 NA
HETATM   10  C19 UNL     1      20.263   4.146  51.090  1.00  0.00     0.236 A 
HETATM   11  N6  UNL     1      20.947   5.305  51.089  1.00  0.00    -0.241 NA
HETATM   12  C20 UNL     1      22.302   5.279  50.977  1.00  0.00     0.073 A 
HETATM   13  C21 UNL     1      22.666   6.551  51.007  1.00  0.00     0.034 C 
HETATM   14  C22 UNL     1      23.979   7.228  50.934  1.00  0.00     0.020 C 
HETATM   15  C23 UNL     1      25.170   6.795  50.499  1.00  0.00     0.101 C 
HETATM   16  H1  UNL     1      27.465   7.479  49.213  1.00  0.00     0.164 HD
ENDROOT
BRANCH   3  17
HETATM   17  C2  UNL     1      28.799   5.895  48.061  1.00  0.00     0.154 C 
BRANCH  17  18
HETATM   18  C3  UNL     1      30.141   6.526  48.064  1.00  0.00     0.292 C 
BRANCH  18  19
HETATM   19  N2  UNL     1      31.185   5.728  48.620  1.00  0.00     0.090 N 
HETATM   20  C4  UNL     1      31.833   4.859  47.706  1.00  0.00     0.272 C 
HETATM   21  C5  UNL     1      33.320   4.707  48.005  1.00  0.00     0.030 C 
HETATM   22  C6  UNL     1      34.007   6.066  47.892  1.00  0.00     0.003 C 
HETATM   23  C7  UNL     1      33.209   7.074  48.655  1.00  0.00     0.030 C 
HETATM   24  C8  UNL     1      32.076   6.458  49.467  1.00  0.00     0.272 C 
ENDBRANCH  18  19
ENDBRANCH  17  18
ENDBRANCH   3  17
BRANCH   8  25
HETATM   25  N4  UNL     1      22.963   1.629  50.749  1.00  0.00    -0.340 N 
HETATM   26  H17 UNL     1      23.553   1.285  49.939  1.00  0.00     0.167 HD
BRANCH  25  27
HETATM   27  C13 UNL     1      22.908   0.768  51.903  1.00  0.00     0.035 A 
HETATM   28  C14 UNL     1      21.731   0.152  52.253  1.00  0.00     0.032 A 
HETATM   29  C15 UNL     1      21.558  -0.692  53.348  1.00  0.00     0.046 A 
HETATM   30  C16 UNL     1      22.705  -0.895  54.117  1.00  0.00     0.138 A 
HETATM   31  F1  UNL     1      22.585  -1.712  55.194  1.00  0.00    -0.204 F 
HETATM   32  C17 UNL     1      23.905  -0.297  53.801  1.00  0.00     0.074 A 
HETATM   33 CL1  UNL     1      25.313  -0.594  54.812  1.00  0.00    -0.081 Cl
HETATM   34  C18 UNL     1      24.012   0.540  52.690  1.00  0.00     0.056 A 
ENDBRANCH  25  27
ENDBRANCH   8  25
TORSDOF 5
ENDMDL
MODEL 5
REMARK VINA RESULT:      -8.8      6.394      9.394
REMARK  5 active torsions:
REMARK  status: ('A' for Active; 'I' for Inactive)
REMARK       I    between atoms: C1_2  and  N1_3 
REMARK       I    between atoms: C1_2  and  N3_12 
REMARK    1  A    between atoms: N1_3  and  C2_4 
REMARK    2  A    between atoms: C2_4  and  C3_5 
REMARK    3  A    between atoms: C3_5  and  N2_6 
REMARK    4  A    between atoms: C12_16  and  N4_17 
REMARK    5  A    between atoms: N4_17  and  C13_18 
ROOT
HETATM    1  O1  UNL     1      19.228   3.247  52.199  1.00  0.00    -0.246 OA
HETATM    2  C1  UNL     1      19.190   3.594  50.966  1.00  0.00     0.326 C 
HETATM    3  N1  UNL     1      17.888   3.986  50.564  1.00  0.00    -0.341 N 
HETATM    4  N3  UNL     1      20.443   3.504  50.310  1.00  0.00    -0.285 N 
HETATM    5  C9  UNL     1      21.468   3.037  51.202  1.00  0.00     0.114 C 
HETATM    6  C10 UNL     1      22.692   2.567  51.092  1.00  0.00     0.009 C 
HETATM    7  C11 UNL     1      23.669   3.165  50.499  1.00  0.00     0.051 A 
HETATM    8  C12 UNL     1      24.763   2.874  51.321  1.00  0.00     0.143 A 
HETATM    9  N5  UNL     1      25.967   3.377  50.946  1.00  0.00    -0.223 NA
HETATM   10  C19 UNL     1      26.062   4.119  49.822  1.00  0.00     0.236 A 
HETATM   11  N6  UNL     1      25.014   4.402  49.025  1.00  0.00    -0.241 NA
HETATM   12  C20 UNL     1      23.782   3.925  49.351  1.00  0.00     0.073 A 
HETATM   13  C21 UNL     1      22.986   4.367  48.391  1.00  0.00     0.034 C 
HETATM   14  C22 UNL     1      21.538   4.218  48.130  1.00  0.00     0.020 C 
HETATM   15  C23 UNL     1      20.530   3.863  48.939  1.00  0.00     0.101 C 
HETATM   16  H1  UNL     1      17.913   4.259  49.555  1.00  0.00     0.164 HD
ENDROOT
BRANCH   3  17
HETATM   17  C2  UNL     1      17.038   3.849  51.719  1.00  0.00     0.154 C 
BRANCH  17  18
HETATM   18  C3  UNL     1      15.814   3.028  51.545  1.00  0.00     0.292 C 
BRANCH  18  19
HETATM   19  N2  UNL     1      14.939   2.998  52.671  1.00  0.00     0.090 N 
HETATM   20  C4  UNL     1      14.874   4.202  53.417  1.00  0.00     0.272 C 
HETATM   21  C5  UNL     1      13.479   4.465  53.974  1.00  0.00     0.030 C 
HETATM   22  C6  UNL     1      12.485   4.598  52.823  1.00  0.00     0.003 C 
HETATM   23  C7  UNL     1      12.690   3.461  51.875  1.00  0.00     0.030 C 
HETATM   24  C8  UNL     1      13.666   2.412  52.393  1.00  0.00     0.272 C 
ENDBRANCH  18  19
ENDBRANCH  17  18
ENDBRANCH   3  17
BRANCH   8  25
HETATM   25  N4  UNL     1      24.503   2.074  52.492  1.00  0.00    -0.340 N 
HETATM   26  H17 UNL     1      23.625   2.009  53.082  1.00  0.00     0.167 HD
BRANCH  25  27
HETATM   27  C13 UNL     1      25.608   1.248  52.909  1.00  0.00     0.035 A 
HETATM   28  C14 UNL     1      26.556   1.741  53.772  1.00  0.00     0.032 A 
HETATM   29  C15 UNL     1      27.667   1.039  54.235  1.00  0.00     0.046 A 
HETATM   30  C16 UNL     1      27.777  -0.265  53.752  1.00  0.00     0.138 A 
HETATM   31  F1  UNL     1      28.844  -0.989  54.177  1.00  0.00    -0.204 F 
HETATM   32  C17 UNL     1      26.849  -0.799  52.885  1.00  0.00     0.074 A 
HETATM   33 CL1  UNL     1      27.048  -2.450  52.313  1.00  0.00    -0.081 Cl
HETATM   34  C18 UNL     1      25.758  -0.042  52.458  1.00  0.00     0.056 A 
ENDBRANCH  25  27
ENDBRANCH   8  25
TORSDOF 5
ENDMDL
MODEL 6
REMARK VINA RESULT:      -8.8      5.803     11.386
REMARK  5 active torsions:
REMARK  status: ('A' for Active; 'I' for Inactive)
REMARK       I    between atoms: C1_2  and  N1_3 
REMARK       I    between atoms: C1_2  and  N3_12 
REMARK    1  A    between atoms: N1_3  and  C2_4 
REMARK    2  A    between atoms: C2_4  and  C3_5 
REMARK    3  A    between atoms: C3_5  and  N2_6 
REMARK    4  A    between atoms: C12_16  and  N4_17 
REMARK    5  A    between atoms: N4_17  and  C13_18 
ROOT
HETATM    1  O1  UNL     1      24.053   5.289  50.675  1.00  0.00    -0.246 OA
HETATM    2  C1  UNL     1      25.126   4.596  50.573  1.00  0.00     0.326 C 
HETATM    3  N1  UNL     1      26.198   5.352  50.034  1.00  0.00    -0.341 N 
HETATM    4  N3  UNL     1      24.985   3.258  51.017  1.00  0.00    -0.285 N 
HETATM    5  C9  UNL     1      23.650   3.000  51.482  1.00  0.00     0.114 C 
HETATM    6  C10 UNL     1      22.925   1.941  51.771  1.00  0.00     0.009 C 
HETATM    7  C11 UNL     1      23.252   1.021  52.615  1.00  0.00     0.051 A 
HETATM    8  C12 UNL     1      22.036   0.716  53.236  1.00  0.00     0.143 A 
HETATM    9  N5  UNL     1      22.058  -0.246  54.194  1.00  0.00    -0.223 NA
HETATM   10  C19 UNL     1      23.222  -0.856  54.504  1.00  0.00     0.236 A 
HETATM   11  N6  UNL     1      24.395  -0.567  53.910  1.00  0.00    -0.241 NA
HETATM   12  C20 UNL     1      24.435   0.388  52.942  1.00  0.00     0.073 A 
HETATM   13  C21 UNL     1      25.703   0.433  52.567  1.00  0.00     0.034 C 
HETATM   14  C22 UNL     1      26.431   1.241  51.565  1.00  0.00     0.020 C 
HETATM   15  C23 UNL     1      26.107   2.389  50.955  1.00  0.00     0.101 C 
HETATM   16  H1  UNL     1      27.046   4.743  49.972  1.00  0.00     0.164 HD
ENDROOT
BRANCH   3  17
HETATM   17  C2  UNL     1      25.687   6.675  49.779  1.00  0.00     0.154 C 
BRANCH  17  18
HETATM   18  C3  UNL     1      25.792   7.167  48.384  1.00  0.00     0.292 C 
BRANCH  18  19
HETATM   19  N2  UNL     1      26.805   8.146  48.162  1.00  0.00     0.090 N 
HETATM   20  C4  UNL     1      27.511   8.559  49.320  1.00  0.00     0.272 C 
HETATM   21  C5  UNL     1      28.979   8.854  49.031  1.00  0.00     0.030 C 
HETATM   22  C6  UNL     1      29.664   7.590  48.518  1.00  0.00     0.003 C 
HETATM   23  C7  UNL     1      28.817   6.983  47.446  1.00  0.00     0.030 C 
HETATM   24  C8  UNL     1      27.641   7.862  47.037  1.00  0.00     0.272 C 
ENDBRANCH  18  19
ENDBRANCH  17  18
ENDBRANCH   3  17
BRANCH   8  25
HETATM   25  N4  UNL     1      20.878   1.457  52.801  1.00  0.00    -0.340 N 
HETATM   26  H17 UNL     1      20.761   2.501  52.661  1.00  0.00     0.167 HD
BRANCH  25  27
HETATM   27  C13 UNL     1      19.720   0.647  52.521  1.00  0.00     0.035 A 
HETATM   28  C14 UNL     1      18.862   0.990  51.504  1.00  0.00     0.032 A 
HETATM   29  C15 UNL     1      17.713   0.288  51.150  1.00  0.00     0.046 A 
HETATM   30  C16 UNL     1      17.458  -0.847  51.921  1.00  0.00     0.138 A 
HETATM   31  F1  UNL     1      16.348  -1.563  51.611  1.00  0.00    -0.204 F 
HETATM   32  C17 UNL     1      18.292  -1.227  52.950  1.00  0.00     0.074 A 
HETATM   33 CL1  UNL     1      17.914  -2.668  53.883  1.00  0.00    -0.081 Cl
HETATM   34  C18 UNL     1      19.430  -0.479  53.255  1.00  0.00     0.056 A 
ENDBRANCH  25  27
ENDBRANCH   8  25
TORSDOF 5
ENDMDL
MODEL 7
REMARK VINA RESULT:      -8.7      6.682     10.427
REMARK  5 active torsions:
REMARK  status: ('A' for Active; 'I' for Inactive)
REMARK       I    between atoms: C1_2  and  N1_3 
REMARK       I    between atoms: C1_2  and  N3_12 
REMARK    1  A    between atoms: N1_3  and  C2_4 
REMARK    2  A    between atoms: C2_4  and  C3_5 
REMARK    3  A    between atoms: C3_5  and  N2_6 
REMARK    4  A    between atoms: C12_16  and  N4_17 
REMARK    5  A    between atoms: N4_17  and  C13_18 
ROOT
HETATM    1  O1  UNL     1      18.882  -0.020  52.030  1.00  0.00    -0.246 OA
HETATM    2  C1  UNL     1      19.273  -0.602  53.103  1.00  0.00     0.326 C 
HETATM    3  N1  UNL     1      18.248  -1.392  53.683  1.00  0.00    -0.341 N 
HETATM    4  N3  UNL     1      20.618  -0.319  53.447  1.00  0.00    -0.285 N 
HETATM    5  C9  UNL     1      21.226   0.567  52.493  1.00  0.00     0.114 C 
HETATM    6  C10 UNL     1      22.311   1.309  52.431  1.00  0.00     0.009 C 
HETATM    7  C11 UNL     1      23.517   0.882  52.601  1.00  0.00     0.051 A 
HETATM    8  C12 UNL     1      24.245   1.605  51.650  1.00  0.00     0.143 A 
HETATM    9  N5  UNL     1      25.581   1.371  51.588  1.00  0.00    -0.223 NA
HETATM   10  C19 UNL     1      26.143   0.473  52.425  1.00  0.00     0.236 A 
HETATM   11  N6  UNL     1      25.448  -0.226  53.343  1.00  0.00    -0.241 NA
HETATM   12  C20 UNL     1      24.106  -0.033  53.451  1.00  0.00     0.073 A 
HETATM   13  C21 UNL     1      23.727  -0.849  54.422  1.00  0.00     0.034 C 
HETATM   14  C22 UNL     1      22.417  -1.138  55.045  1.00  0.00     0.020 C 
HETATM   15  C23 UNL     1      21.168  -0.906  54.617  1.00  0.00     0.101 C 
HETATM   16  H1  UNL     1      18.618  -1.843  54.551  1.00  0.00     0.164 HD
ENDROOT
BRANCH   3  17
HETATM   17  C2  UNL     1      17.090  -1.256  52.837  1.00  0.00     0.154 C 
BRANCH  17  18
HETATM   18  C3  UNL     1      16.204  -2.442  52.735  1.00  0.00     0.292 C 
BRANCH  18  19
HETATM   19  N2  UNL     1      14.862  -2.163  52.338  1.00  0.00     0.090 N 
HETATM   20  C4  UNL     1      14.494  -0.794  52.373  1.00  0.00     0.272 C 
HETATM   21  C5  UNL     1      13.532  -0.422  51.250  1.00  0.00     0.030 C 
HETATM   22  C6  UNL     1      14.200  -0.671  49.900  1.00  0.00     0.003 C 
HETATM   23  C7  UNL     1      14.819  -2.031  49.911  1.00  0.00     0.030 C 
HETATM   24  C8  UNL     1      14.462  -2.846  51.148  1.00  0.00     0.272 C 
ENDBRANCH  18  19
ENDBRANCH  17  18
ENDBRANCH   3  17
BRANCH   8  25
HETATM   25  N4  UNL     1      23.503   2.525  50.823  1.00  0.00    -0.340 N 
HETATM   26  H17 UNL     1      22.573   2.390  50.334  1.00  0.00     0.167 HD
BRANCH  25  27
HETATM   27  C13 UNL     1      24.131   3.810  50.647  1.00  0.00     0.035 A 
HETATM   28  C14 UNL     1      23.670   4.908  51.332  1.00  0.00     0.032 A 
HETATM   29  C15 UNL     1      24.192   6.195  51.236  1.00  0.00     0.046 A 
HETATM   30  C16 UNL     1      25.270   6.325  50.359  1.00  0.00     0.138 A 
HETATM   31  F1  UNL     1      25.813   7.563  50.233  1.00  0.00    -0.204 F 
HETATM   32  C17 UNL     1      25.764   5.251  49.653  1.00  0.00     0.074 A 
HETATM   33 CL1  UNL     1      27.125   5.483  48.564  1.00  0.00    -0.081 Cl
HETATM   34  C18 UNL     1      25.195   3.985  49.794  1.00  0.00     0.056 A 
ENDBRANCH  25  27
ENDBRANCH   8  25
TORSDOF 5
ENDMDL
MODEL 8
REMARK VINA RESULT:      -8.7      1.986      2.520
REMARK  5 active torsions:
REMARK  status: ('A' for Active; 'I' for Inactive)
REMARK       I    between atoms: C1_2  and  N1_3 
REMARK       I    between atoms: C1_2  and  N3_12 
REMARK    1  A    between atoms: N1_3  and  C2_4 
REMARK    2  A    between atoms: C2_4  and  C3_5 
REMARK    3  A    between atoms: C3_5  and  N2_6 
REMARK    4  A    between atoms: C12_16  and  N4_17 
REMARK    5  A    between atoms: N4_17  and  C13_18 
ROOT
HETATM    1  O1  UNL     1      25.905   4.374  48.922  1.00  0.00    -0.246 OA
HETATM    2  C1  UNL     1      25.589   5.616  48.904  1.00  0.00     0.326 C 
HETATM    3  N1  UNL     1      24.204   5.816  49.139  1.00  0.00    -0.341 N 
HETATM    4  N3  UNL     1      26.685   6.480  48.657  1.00  0.00    -0.285 N 
HETATM    5  C9  UNL     1      27.904   5.740  48.484  1.00  0.00     0.114 C 
HETATM    6  C10 UNL     1      29.115   5.982  48.027  1.00  0.00     0.009 C 
HETATM    7  C11 UNL     1      29.899   6.914  48.453  1.00  0.00     0.051 A 
HETATM    8  C12 UNL     1      31.157   6.303  48.430  1.00  0.00     0.143 A 
HETATM    9  N5  UNL     1      32.214   7.055  48.830  1.00  0.00    -0.223 NA
HETATM   10  C19 UNL     1      32.018   8.331  49.224  1.00  0.00     0.236 A 
HETATM   11  N6  UNL     1      30.810   8.925  49.248  1.00  0.00    -0.241 NA
HETATM   12  C20 UNL     1      29.713   8.221  48.858  1.00  0.00     0.073 A 
HETATM   13  C21 UNL     1      28.705   9.068  48.993  1.00  0.00     0.034 C 
HETATM   14  C22 UNL     1      27.252   8.956  48.745  1.00  0.00     0.020 C 
HETATM   15  C23 UNL     1      26.461   7.882  48.614  1.00  0.00     0.101 C 
HETATM   16  H1  UNL     1      24.001   6.841  49.115  1.00  0.00     0.164 HD
ENDROOT
BRANCH   3  17
HETATM   17  C2  UNL     1      23.621   4.511  49.317  1.00  0.00     0.154 C 
BRANCH  17  18
HETATM   18  C3  UNL     1      22.390   4.445  50.143  1.00  0.00     0.292 C 
BRANCH  18  19
HETATM   19  N2  UNL     1      22.286   3.297  50.983  1.00  0.00     0.090 N 
HETATM   20  C4  UNL     1      23.041   2.172  50.567  1.00  0.00     0.272 C 
HETATM   21  C5  UNL     1      23.600   1.380  51.744  1.00  0.00     0.030 C 
HETATM   22  C6  UNL     1      24.535   2.268  52.562  1.00  0.00     0.003 C 
HETATM   23  C7  UNL     1      23.856   3.575  52.818  1.00  0.00     0.030 C 
HETATM   24  C8  UNL     1      22.397   3.594  52.377  1.00  0.00     0.272 C 
ENDBRANCH  18  19
ENDBRANCH  17  18
ENDBRANCH   3  17
BRANCH   8  25
HETATM   25  N4  UNL     1      31.207   4.931  47.990  1.00  0.00    -0.340 N 
HETATM   26  H17 UNL     1      30.508   4.149  48.144  1.00  0.00     0.167 HD
BRANCH  25  27
HETATM   27  C13 UNL     1      32.383   4.589  47.231  1.00  0.00     0.035 A 
HETATM   28  C14 UNL     1      33.413   3.896  47.821  1.00  0.00     0.032 A 
HETATM   29  C15 UNL     1      34.596   3.521  47.190  1.00  0.00     0.046 A 
HETATM   30  C16 UNL     1      34.692   3.902  45.851  1.00  0.00     0.138 A 
HETATM   31  F1  UNL     1      35.828   3.556  45.194  1.00  0.00    -0.204 F 
HETATM   32  C17 UNL     1      33.683   4.597  45.221  1.00  0.00     0.074 A 
HETATM   33 CL1  UNL     1      33.868   5.048  43.532  1.00  0.00    -0.081 Cl
HETATM   34  C18 UNL     1      32.521   4.945  45.911  1.00  0.00     0.056 A 
ENDBRANCH  25  27
ENDBRANCH   8  25
TORSDOF 5
ENDMDL
MODEL 9
REMARK VINA RESULT:      -8.6      4.243      9.397
REMARK  5 active torsions:
REMARK  status: ('A' for Active; 'I' for Inactive)
REMARK       I    between atoms: C1_2  and  N1_3 
REMARK       I    between atoms: C1_2  and  N3_12 
REMARK    1  A    between atoms: N1_3  and  C2_4 
REMARK    2  A    between atoms: C2_4  and  C3_5 
REMARK    3  A    between atoms: C3_5  and  N2_6 
REMARK    4  A    between atoms: C12_16  and  N4_17 
REMARK    5  A    between atoms: N4_17  and  C13_18 
ROOT
HETATM    1  O1  UNL     1      27.400   5.011  48.582  1.00  0.00    -0.246 OA
HETATM    2  C1  UNL     1      27.057   6.155  49.049  1.00  0.00     0.326 C 
HETATM    3  N1  UNL     1      27.990   7.168  48.711  1.00  0.00    -0.341 N 
HETATM    4  N3  UNL     1      25.844   6.131  49.782  1.00  0.00    -0.285 N 
HETATM    5  C9  UNL     1      25.285   4.808  49.824  1.00  0.00     0.114 C 
HETATM    6  C10 UNL     1      24.355   4.183  50.513  1.00  0.00     0.009 C 
HETATM    7  C11 UNL     1      23.125   4.561  50.619  1.00  0.00     0.051 A 
HETATM    8  C12 UNL     1      22.420   3.353  50.582  1.00  0.00     0.143 A 
HETATM    9  N5  UNL     1      21.068   3.426  50.679  1.00  0.00    -0.223 NA
HETATM   10  C19 UNL     1      20.470   4.629  50.805  1.00  0.00     0.236 A 
HETATM   11  N6  UNL     1      21.142   5.795  50.843  1.00  0.00    -0.241 NA
HETATM   12  C20 UNL     1      22.499   5.784  50.749  1.00  0.00     0.073 A 
HETATM   13  C21 UNL     1      22.851   7.059  50.817  1.00  0.00     0.034 C 
HETATM   14  C22 UNL     1      24.158   7.749  50.779  1.00  0.00     0.020 C 
HETATM   15  C23 UNL     1      25.359   7.339  50.350  1.00  0.00     0.101 C 
HETATM   16  H1  UNL     1      27.664   8.077  49.114  1.00  0.00     0.164 HD
ENDROOT
BRANCH   3  17
HETATM   17  C2  UNL     1      29.029   6.536  47.939  1.00  0.00     0.154 C 
BRANCH  17  18
HETATM   18  C3  UNL     1      30.363   6.440  48.581  1.00  0.00     0.292 C 
BRANCH  18  19
HETATM   19  N2  UNL     1      31.284   7.469  48.222  1.00  0.00     0.090 N 
HETATM   20  C4  UNL     1      30.949   8.197  47.053  1.00  0.00     0.272 C 
HETATM   21  C5  UNL     1      31.345   9.667  47.152  1.00  0.00     0.030 C 
HETATM   22  C6  UNL     1      30.601  10.320  48.314  1.00  0.00     0.003 C 
HETATM   23  C7  UNL     1      30.728   9.447  49.520  1.00  0.00     0.030 C 
HETATM   24  C8  UNL     1      31.692   8.283  49.323  1.00  0.00     0.272 C 
ENDBRANCH  18  19
ENDBRANCH  17  18
ENDBRANCH   3  17
BRANCH   8  25
HETATM   25  N4  UNL     1      23.199   2.148  50.437  1.00  0.00    -0.340 N 
HETATM   26  H17 UNL     1      23.775   1.814  49.612  1.00  0.00     0.167 HD
BRANCH  25  27
HETATM   27  C13 UNL     1      23.182   1.283  51.589  1.00  0.00     0.035 A 
HETATM   28  C14 UNL     1      24.340   1.030  52.284  1.00  0.00     0.032 A 
HETATM   29  C15 UNL     1      24.444   0.208  53.403  1.00  0.00     0.046 A 
HETATM   30  C16 UNL     1      23.245  -0.380  53.811  1.00  0.00     0.138 A 
HETATM   31  F1  UNL     1      23.298  -1.189  54.900  1.00  0.00    -0.204 F 
HETATM   32  C17 UNL     1      22.062  -0.153  53.143  1.00  0.00     0.074 A 
HETATM   33 CL1  UNL     1      20.587  -0.925  53.709  1.00  0.00    -0.081 Cl
HETATM   34  C18 UNL     1      22.026   0.682  52.026  1.00  0.00     0.056 A 
ENDBRANCH  25  27
ENDBRANCH   8  25
TORSDOF 5
ENDMDL
