MODEL 1
REMARK VINA RESULT:      -8.5      0.000      0.000
REMARK  2 active torsions:
REMARK  status: ('A' for Active; 'I' for Inactive)
REMARK    1  A    between atoms: C4_5  and  N1_6 
REMARK    2  A    between atoms: N1_6  and  C5_7 
ROOT
HETATM    1  C5  UNL     1      26.292   0.262  53.102  1.00  0.00     0.126 A 
HETATM    2  N2  UNL     1      25.972   1.532  53.356  1.00  0.00    -0.227 NA
HETATM    3  C6  UNL     1      26.953   2.452  53.791  1.00  0.00     0.234 A 
HETATM    4  N3  UNL     1      28.167   2.377  54.088  1.00  0.00    -0.254 NA
HETATM    5  C7  UNL     1      29.168   1.430  54.155  1.00  0.00     0.123 A 
HETATM    6  C8  UNL     1      28.872   0.303  53.798  1.00  0.00    -0.035 A 
HETATM    7  C9  UNL     1      30.171  -1.078  53.838  1.00  0.00     0.073 A 
HETATM    8  C10 UNL     1      29.096  -1.473  53.346  1.00  0.00    -0.048 A 
HETATM    9  C11 UNL     1      28.313  -1.737  52.996  1.00  0.00    -0.045 A 
HETATM   10  C12 UNL     1      27.277  -2.059  52.545  1.00  0.00     0.054 A 
HETATM   11  C13 UNL     1      27.547  -0.616  53.159  1.00  0.00     0.078 A 
ENDROOT
BRANCH   1  12
HETATM   12  N1  UNL     1      25.110  -0.395  52.697  1.00  0.00    -0.343 N 
HETATM   13  H3  UNL     1      25.282  -1.127  51.925  1.00  0.00     0.167 HD
BRANCH  12  14
HETATM   14  C4  UNL     1      23.815  -0.156  53.212  1.00  0.00     0.035 A 
HETATM   15  C3  UNL     1      23.414  -0.879  54.318  1.00  0.00     0.032 A 
HETATM   16  C2  UNL     1      22.185  -0.747  54.912  1.00  0.00     0.046 A 
HETATM   17  C1  UNL     1      21.279   0.152  54.396  1.00  0.00     0.138 A 
HETATM   18  F1  UNL     1      20.059   0.301  54.966  1.00  0.00    -0.204 F 
HETATM   19  C15 UNL     1      21.658   0.887  53.291  1.00  0.00     0.074 A 
HETATM   20  C14 UNL     1      22.901   0.730  52.719  1.00  0.00     0.056 A 
HETATM   21 CL1  UNL     1      20.567   2.053  52.572  1.00  0.00    -0.081 Cl
ENDBRANCH  12  14
ENDBRANCH   1  12
TORSDOF 2
ENDMDL
MODEL 2
REMARK VINA RESULT:      -8.4      3.447      6.566
REMARK  2 active torsions:
REMARK  status: ('A' for Active; 'I' for Inactive)
REMARK    1  A    between atoms: C4_5  and  N1_6 
REMARK    2  A    between atoms: N1_6  and  C5_7 
ROOT
HETATM    1  C5  UNL     1      24.031  -0.023  53.498  1.00  0.00     0.126 A 
HETATM    2  N2  UNL     1      24.594   0.751  52.569  1.00  0.00    -0.227 NA
HETATM    3  C6  UNL     1      23.802   1.409  51.599  1.00  0.00     0.234 A 
HETATM    4  N3  UNL     1      22.584   1.420  51.312  1.00  0.00    -0.254 NA
HETATM    5  C7  UNL     1      21.405   0.845  51.741  1.00  0.00     0.123 A 
HETATM    6  C8  UNL     1      21.480   0.118  52.716  1.00  0.00    -0.035 A 
HETATM    7  C9  UNL     1      19.921  -0.717  53.400  1.00  0.00     0.073 A 
HETATM    8  C10 UNL     1      20.917  -0.952  54.111  1.00  0.00    -0.048 A 
HETATM    9  C11 UNL     1      21.648  -1.108  54.609  1.00  0.00    -0.045 A 
HETATM   10  C12 UNL     1      22.619  -1.302  55.241  1.00  0.00     0.054 A 
HETATM   11  C13 UNL     1      22.620  -0.487  53.875  1.00  0.00     0.078 A 
ENDROOT
BRANCH   1  12
HETATM   12  N1  UNL     1      25.072  -0.535  54.304  1.00  0.00    -0.343 N 
HETATM   13  H3  UNL     1      24.710  -1.064  55.170  1.00  0.00     0.167 HD
BRANCH  12  14
HETATM   14  C4  UNL     1      26.457  -0.394  54.050  1.00  0.00     0.035 A 
HETATM   15  C3  UNL     1      27.085  -1.385  53.321  1.00  0.00     0.032 A 
HETATM   16  C2  UNL     1      28.421  -1.372  53.010  1.00  0.00     0.046 A 
HETATM   17  C1  UNL     1      29.204  -0.323  53.437  1.00  0.00     0.138 A 
HETATM   18  F1  UNL     1      30.525  -0.288  53.141  1.00  0.00    -0.204 F 
HETATM   19  C15 UNL     1      28.597   0.679  54.167  1.00  0.00     0.074 A 
HETATM   20  C14 UNL     1      27.252   0.635  54.462  1.00  0.00     0.056 A 
HETATM   21 CL1  UNL     1      29.519   2.049  54.748  1.00  0.00    -0.081 Cl
ENDBRANCH  12  14
ENDBRANCH   1  12
TORSDOF 2
ENDMDL
MODEL 3
REMARK VINA RESULT:      -8.4      3.434      6.720
REMARK  2 active torsions:
REMARK  status: ('A' for Active; 'I' for Inactive)
REMARK    1  A    between atoms: C4_5  and  N1_6 
REMARK    2  A    between atoms: N1_6  and  C5_7 
ROOT
HETATM    1  C5  UNL     1      23.886   0.031  53.440  1.00  0.00     0.126 A 
HETATM    2  N2  UNL     1      24.319  -0.625  54.518  1.00  0.00    -0.227 NA
HETATM    3  C6  UNL     1      23.434  -1.415  55.287  1.00  0.00     0.234 A 
HETATM    4  N3  UNL     1      22.205  -1.649  55.258  1.00  0.00    -0.254 NA
HETATM    5  C7  UNL     1      21.093  -1.302  54.518  1.00  0.00     0.123 A 
HETATM    6  C8  UNL     1      21.287  -0.575  53.559  1.00  0.00    -0.035 A 
HETATM    7  C9  UNL     1      19.833  -0.042  52.464  1.00  0.00     0.073 A 
HETATM    8  C10 UNL     1      20.921   0.371  52.016  1.00  0.00    -0.048 A 
HETATM    9  C11 UNL     1      21.715   0.658  51.712  1.00  0.00    -0.045 A 
HETATM   10  C12 UNL     1      22.766   1.025  51.336  1.00  0.00     0.054 A 
HETATM   11  C13 UNL     1      22.560   0.227  52.697  1.00  0.00     0.078 A 
ENDROOT
BRANCH   1  12
HETATM   12  N1  UNL     1      24.991   0.723  52.899  1.00  0.00    -0.343 N 
HETATM   13  H3  UNL     1      24.702   1.523  52.237  1.00  0.00     0.167 HD
BRANCH  12  14
HETATM   14  C4  UNL     1      26.352   0.439  53.161  1.00  0.00     0.035 A 
HETATM   15  C3  UNL     1      26.836  -0.802  52.794  1.00  0.00     0.032 A 
HETATM   16  C2  UNL     1      28.131  -1.205  52.995  1.00  0.00     0.046 A 
HETATM   17  C1  UNL     1      29.022  -0.343  53.596  1.00  0.00     0.138 A 
HETATM   18  F1  UNL     1      30.306  -0.719  53.805  1.00  0.00    -0.204 F 
HETATM   19  C15 UNL     1      28.560   0.903  53.970  1.00  0.00     0.074 A 
HETATM   20  C14 UNL     1      27.252   1.276  53.754  1.00  0.00     0.056 A 
HETATM   21 CL1  UNL     1      29.625   2.060  54.740  1.00  0.00    -0.081 Cl
ENDBRANCH  12  14
ENDBRANCH   1  12
TORSDOF 2
ENDMDL
MODEL 4
REMARK VINA RESULT:      -8.2      3.696      6.437
REMARK  2 active torsions:
REMARK  status: ('A' for Active; 'I' for Inactive)
REMARK    1  A    between atoms: C4_5  and  N1_6 
REMARK    2  A    between atoms: N1_6  and  C5_7 
ROOT
HETATM    1  C5  UNL     1      24.717   2.104  52.085  1.00  0.00     0.126 A 
HETATM    2  N2  UNL     1      25.402   2.981  51.349  1.00  0.00    -0.227 NA
HETATM    3  C6  UNL     1      24.898   3.431  50.107  1.00  0.00     0.234 A 
HETATM    4  N3  UNL     1      23.897   3.158  49.407  1.00  0.00    -0.254 NA
HETATM    5  C7  UNL     1      22.794   2.330  49.440  1.00  0.00     0.123 A 
HETATM    6  C8  UNL     1      22.661   1.646  50.441  1.00  0.00    -0.035 A 
HETATM    7  C9  UNL     1      21.176   0.478  50.600  1.00  0.00     0.073 A 
HETATM    8  C10 UNL     1      21.869   0.484  51.637  1.00  0.00    -0.048 A 
HETATM    9  C11 UNL     1      22.383   0.504  52.373  1.00  0.00    -0.045 A 
HETATM   10  C12 UNL     1      23.073   0.545  53.323  1.00  0.00     0.054 A 
HETATM   11  C13 UNL     1      23.399   1.328  51.978  1.00  0.00     0.078 A 
ENDROOT
BRANCH   1  12
HETATM   12  N1  UNL     1      25.475   1.852  53.250  1.00  0.00    -0.343 N 
HETATM   13  H3  UNL     1      25.065   2.325  54.126  1.00  0.00     0.167 HD
BRANCH  12  14
HETATM   14  C4  UNL     1      26.654   1.073  53.314  1.00  0.00     0.035 A 
HETATM   15  C3  UNL     1      27.828   1.705  53.674  1.00  0.00     0.032 A 
HETATM   16  C2  UNL     1      29.039   1.067  53.770  1.00  0.00     0.046 A 
HETATM   17  C1  UNL     1      29.116  -0.280  53.496  1.00  0.00     0.138 A 
HETATM   18  F1  UNL     1      30.301  -0.931  53.584  1.00  0.00    -0.204 F 
HETATM   19  C15 UNL     1      27.954  -0.932  53.135  1.00  0.00     0.074 A 
HETATM   20  C14 UNL     1      26.755  -0.262  53.048  1.00  0.00     0.056 A 
HETATM   21 CL1  UNL     1      27.964  -2.645  52.770  1.00  0.00    -0.081 Cl
ENDBRANCH  12  14
ENDBRANCH   1  12
TORSDOF 2
ENDMDL
MODEL 5
REMARK VINA RESULT:      -8.1      4.598      6.430
REMARK  2 active torsions:
REMARK  status: ('A' for Active; 'I' for Inactive)
REMARK    1  A    between atoms: C4_5  and  N1_6 
REMARK    2  A    between atoms: N1_6  and  C5_7 
ROOT
HETATM    1  C5  UNL     1      24.997   3.078  51.228  1.00  0.00     0.126 A 
HETATM    2  N2  UNL     1      24.051   3.204  52.160  1.00  0.00    -0.227 NA
HETATM    3  C6  UNL     1      23.423   4.450  52.390  1.00  0.00     0.234 A 
HETATM    4  N3  UNL     1      23.569   5.609  51.942  1.00  0.00    -0.254 NA
HETATM    5  C7  UNL     1      24.360   6.288  51.037  1.00  0.00     0.123 A 
HETATM    6  C8  UNL     1      25.166   5.618  50.415  1.00  0.00    -0.035 A 
HETATM    7  C9  UNL     1      26.299   6.442  49.137  1.00  0.00     0.073 A 
HETATM    8  C10 UNL     1      26.453   5.206  49.156  1.00  0.00    -0.048 A 
HETATM    9  C11 UNL     1      26.547   4.314  49.188  1.00  0.00    -0.045 A 
HETATM   10  C12 UNL     1      26.656   3.145  49.250  1.00  0.00     0.054 A 
HETATM   11  C13 UNL     1      25.710   3.983  50.216  1.00  0.00     0.078 A 
ENDROOT
BRANCH   1  12
HETATM   12  N1  UNL     1      25.426   1.733  51.245  1.00  0.00    -0.343 N 
HETATM   13  H3  UNL     1      24.878   1.110  50.557  1.00  0.00     0.167 HD
BRANCH  12  14
HETATM   14  C4  UNL     1      26.456   1.206  52.059  1.00  0.00     0.035 A 
HETATM   15  C3  UNL     1      26.536  -0.166  52.193  1.00  0.00     0.032 A 
HETATM   16  C2  UNL     1      27.482  -0.804  52.954  1.00  0.00     0.046 A 
HETATM   17  C1  UNL     1      28.417  -0.057  53.635  1.00  0.00     0.138 A 
HETATM   18  F1  UNL     1      29.361  -0.665  54.393  1.00  0.00    -0.204 F 
HETATM   19  C15 UNL     1      28.356   1.317  53.515  1.00  0.00     0.074 A 
HETATM   20  C14 UNL     1      27.393   1.925  52.742  1.00  0.00     0.056 A 
HETATM   21 CL1  UNL     1      29.506   2.341  54.347  1.00  0.00    -0.081 Cl
ENDBRANCH  12  14
ENDBRANCH   1  12
TORSDOF 2
ENDMDL
MODEL 6
REMARK VINA RESULT:      -8.0      2.830      3.615
REMARK  2 active torsions:
REMARK  status: ('A' for Active; 'I' for Inactive)
REMARK    1  A    between atoms: C4_5  and  N1_6 
REMARK    2  A    between atoms: N1_6  and  C5_7 
ROOT
HETATM    1  C5  UNL     1      26.867   1.143  53.552  1.00  0.00     0.126 A 
HETATM    2  N2  UNL     1      27.635   2.156  53.955  1.00  0.00    -0.227 NA
HETATM    3  C6  UNL     1      29.032   1.992  54.097  1.00  0.00     0.234 A 
HETATM    4  N3  UNL     1      29.825   1.030  53.986  1.00  0.00    -0.254 NA
HETATM    5  C7  UNL     1      29.798  -0.317  53.684  1.00  0.00     0.123 A 
HETATM    6  C8  UNL     1      28.712  -0.783  53.389  1.00  0.00    -0.035 A 
HETATM    7  C9  UNL     1      28.557  -2.620  52.945  1.00  0.00     0.073 A 
HETATM    8  C10 UNL     1      27.473  -2.021  52.805  1.00  0.00    -0.048 A 
HETATM    9  C11 UNL     1      26.702  -1.570  52.712  1.00  0.00    -0.045 A 
HETATM   10  C12 UNL     1      25.705  -0.958  52.601  1.00  0.00     0.054 A 
HETATM   11  C13 UNL     1      27.053  -0.328  53.163  1.00  0.00     0.078 A 
ENDROOT
BRANCH   1  12
HETATM   12  N1  UNL     1      25.536   1.615  53.515  1.00  0.00    -0.343 N 
HETATM   13  H3  UNL     1      24.939   1.247  54.333  1.00  0.00     0.167 HD
BRANCH  12  14
HETATM   14  C4  UNL     1      24.993   2.475  52.533  1.00  0.00     0.035 A 
HETATM   15  C3  UNL     1      25.548   2.446  51.268  1.00  0.00     0.032 A 
HETATM   16  C2  UNL     1      25.119   3.231  50.229  1.00  0.00     0.046 A 
HETATM   17  C1  UNL     1      24.077   4.108  50.430  1.00  0.00     0.138 A 
HETATM   18  F1  UNL     1      23.636   4.893  49.418  1.00  0.00    -0.204 F 
HETATM   19  C15 UNL     1      23.506   4.154  51.686  1.00  0.00     0.074 A 
HETATM   20  C14 UNL     1      23.962   3.352  52.708  1.00  0.00     0.056 A 
HETATM   21 CL1  UNL     1      22.177   5.241  52.028  1.00  0.00    -0.081 Cl
ENDBRANCH  12  14
ENDBRANCH   1  12
TORSDOF 2
ENDMDL
MODEL 7
REMARK VINA RESULT:      -7.9      3.932      6.570
REMARK  2 active torsions:
REMARK  status: ('A' for Active; 'I' for Inactive)
REMARK    1  A    between atoms: C4_5  and  N1_6 
REMARK    2  A    between atoms: N1_6  and  C5_7 
ROOT
HETATM    1  C5  UNL     1      24.633   2.312  52.256  1.00  0.00     0.126 A 
HETATM    2  N2  UNL     1      23.851   1.746  53.177  1.00  0.00    -0.227 NA
HETATM    3  C6  UNL     1      22.503   1.435  52.889  1.00  0.00     0.234 A 
HETATM    4  N3  UNL     1      21.743   1.616  51.911  1.00  0.00    -0.254 NA
HETATM    5  C7  UNL     1      21.779   2.178  50.651  1.00  0.00     0.123 A 
HETATM    6  C8  UNL     1      22.853   2.625  50.288  1.00  0.00    -0.035 A 
HETATM    7  C9  UNL     1      23.023   3.410  48.570  1.00  0.00     0.073 A 
HETATM    8  C10 UNL     1      24.119   3.359  49.162  1.00  0.00    -0.048 A 
HETATM    9  C11 UNL     1      24.897   3.313  49.607  1.00  0.00    -0.045 A 
HETATM   10  C12 UNL     1      25.903   3.244  50.210  1.00  0.00     0.054 A 
HETATM   11  C13 UNL     1      24.497   2.803  50.811  1.00  0.00     0.078 A 
ENDROOT
BRANCH   1  12
HETATM   12  N1  UNL     1      25.904   2.500  52.843  1.00  0.00    -0.343 N 
HETATM   13  H3  UNL     1      26.086   3.522  53.129  1.00  0.00     0.167 HD
BRANCH  12  14
HETATM   14  C4  UNL     1      26.872   1.490  53.053  1.00  0.00     0.035 A 
HETATM   15  C3  UNL     1      28.087   1.862  53.594  1.00  0.00     0.032 A 
HETATM   16  C2  UNL     1      29.111   0.984  53.843  1.00  0.00     0.046 A 
HETATM   17  C1  UNL     1      28.945  -0.350  53.546  1.00  0.00     0.138 A 
HETATM   18  F1  UNL     1      29.942  -1.236  53.783  1.00  0.00    -0.204 F 
HETATM   19  C15 UNL     1      27.738  -0.744  53.004  1.00  0.00     0.074 A 
HETATM   20  C14 UNL     1      26.730   0.163  52.767  1.00  0.00     0.056 A 
HETATM   21 CL1  UNL     1      27.442  -2.422  52.597  1.00  0.00    -0.081 Cl
ENDBRANCH  12  14
ENDBRANCH   1  12
TORSDOF 2
ENDMDL
MODEL 8
REMARK VINA RESULT:      -7.7      3.656      5.552
REMARK  2 active torsions:
REMARK  status: ('A' for Active; 'I' for Inactive)
REMARK    1  A    between atoms: C4_5  and  N1_6 
REMARK    2  A    between atoms: N1_6  and  C5_7 
ROOT
HETATM    1  C5  UNL     1      24.483   0.887  52.286  1.00  0.00     0.126 A 
HETATM    2  N2  UNL     1      25.803   1.009  52.438  1.00  0.00    -0.227 NA
HETATM    3  C6  UNL     1      26.480   0.312  53.465  1.00  0.00     0.234 A 
HETATM    4  N3  UNL     1      26.129  -0.431  54.409  1.00  0.00    -0.254 NA
HETATM    5  C7  UNL     1      24.974  -0.958  54.950  1.00  0.00     0.123 A 
HETATM    6  C8  UNL     1      23.936  -0.696  54.367  1.00  0.00    -0.035 A 
HETATM    7  C9  UNL     1      22.288  -1.375  55.015  1.00  0.00     0.073 A 
HETATM    8  C10 UNL     1      22.140  -0.752  53.945  1.00  0.00    -0.048 A 
HETATM    9  C11 UNL     1      22.056  -0.300  53.174  1.00  0.00    -0.045 A 
HETATM   10  C12 UNL     1      21.972   0.301  52.168  1.00  0.00     0.054 A 
HETATM   11  C13 UNL     1      23.333   0.145  52.975  1.00  0.00     0.078 A 
ENDROOT
BRANCH   1  12
HETATM   12  N1  UNL     1      24.111   1.701  51.193  1.00  0.00    -0.343 N 
HETATM   13  H3  UNL     1      23.760   1.132  50.348  1.00  0.00     0.167 HD
BRANCH  12  14
HETATM   14  C4  UNL     1      24.173   3.113  51.158  1.00  0.00     0.035 A 
HETATM   15  C3  UNL     1      23.445   3.818  52.096  1.00  0.00     0.032 A 
HETATM   16  C2  UNL     1      23.415   5.187  52.168  1.00  0.00     0.046 A 
HETATM   17  C1  UNL     1      24.145   5.927  51.265  1.00  0.00     0.138 A 
HETATM   18  F1  UNL     1      24.132   7.280  51.316  1.00  0.00    -0.204 F 
HETATM   19  C15 UNL     1      24.882   5.244  50.318  1.00  0.00     0.074 A 
HETATM   20  C14 UNL     1      24.890   3.867  50.274  1.00  0.00     0.056 A 
HETATM   21 CL1  UNL     1      25.839   6.107  49.132  1.00  0.00    -0.081 Cl
ENDBRANCH  12  14
ENDBRANCH   1  12
TORSDOF 2
ENDMDL
MODEL 9
REMARK VINA RESULT:      -7.6      4.564      6.717
REMARK  2 active torsions:
REMARK  status: ('A' for Active; 'I' for Inactive)
REMARK    1  A    between atoms: C4_5  and  N1_6 
REMARK    2  A    between atoms: N1_6  and  C5_7 
ROOT
HETATM    1  C5  UNL     1      25.656   2.904  50.938  1.00  0.00     0.126 A 
HETATM    2  N2  UNL     1      26.660   2.885  50.060  1.00  0.00    -0.227 NA
HETATM    3  C6  UNL     1      26.928   4.007  49.243  1.00  0.00     0.234 A 
HETATM    4  N3  UNL     1      26.383   5.119  49.061  1.00  0.00    -0.254 NA
HETATM    5  C7  UNL     1      25.297   5.836  49.518  1.00  0.00     0.123 A 
HETATM    6  C8  UNL     1      24.631   5.311  50.393  1.00  0.00    -0.035 A 
HETATM    7  C9  UNL     1      23.120   6.210  51.105  1.00  0.00     0.073 A 
HETATM    8  C10 UNL     1      23.336   5.135  51.698  1.00  0.00    -0.048 A 
HETATM    9  C11 UNL     1      23.511   4.358  52.112  1.00  0.00    -0.045 A 
HETATM   10  C12 UNL     1      23.757   3.334  52.634  1.00  0.00     0.054 A 
HETATM   11  C13 UNL     1      24.561   3.883  51.376  1.00  0.00     0.078 A 
ENDROOT
BRANCH   1  12
HETATM   12  N1  UNL     1      25.644   1.652  51.589  1.00  0.00    -0.343 N 
HETATM   13  H3  UNL     1      24.708   1.130  51.478  1.00  0.00     0.167 HD
BRANCH  12  14
HETATM   14  C4  UNL     1      26.716   1.094  52.325  1.00  0.00     0.035 A 
HETATM   15  C3  UNL     1      26.877  -0.277  52.296  1.00  0.00     0.032 A 
HETATM   16  C2  UNL     1      27.871  -0.943  52.967  1.00  0.00     0.046 A 
HETATM   17  C1  UNL     1      28.774  -0.227  53.722  1.00  0.00     0.138 A 
HETATM   18  F1  UNL     1      29.764  -0.862  54.393  1.00  0.00    -0.204 F 
HETATM   19  C15 UNL     1      28.632   1.146  53.765  1.00  0.00     0.074 A 
HETATM   20  C14 UNL     1      27.623   1.783  53.078  1.00  0.00     0.056 A 
HETATM   21 CL1  UNL     1      29.736   2.132  54.699  1.00  0.00    -0.081 Cl
ENDBRANCH  12  14
ENDBRANCH   1  12
TORSDOF 2
ENDMDL
