MODEL 1
REMARK VINA RESULT:      -7.7      0.000      0.000
REMARK  7 active torsions:
REMARK  status: ('A' for Active; 'I' for Inactive)
REMARK    1  A    between atoms: C2_2  and  C3_3 
REMARK    2  A    between atoms: C3_3  and  C4_4 
REMARK    3  A    between atoms: C4_4  and  N1_5 
REMARK    4  A    between atoms: N1_5  and  C5_6 
REMARK       I    between atoms: N1_5  and  C11_13 
REMARK    5  A    between atoms: C5_6  and  C6_7 
REMARK       I    between atoms: C11_13  and  N2_15 
REMARK    6  A    between atoms: N2_15  and  C12_16 
REMARK    7  A    between atoms: C17_21  and  O2_22 
ROOT
HETATM    1  N1  UNL     1      24.901   3.130  50.961  1.00  0.00    -0.330 N 
HETATM    2  C11 UNL     1      26.067   2.392  51.304  1.00  0.00     0.323 C 
HETATM    3  O1  UNL     1      26.920   2.445  50.396  1.00  0.00    -0.247 OA
HETATM    4  N2  UNL     1      26.192   1.701  52.538  1.00  0.00    -0.306 N 
HETATM    5  H16 UNL     1      25.380   1.755  53.200  1.00  0.00     0.171 HD
ENDROOT
BRANCH   1   6
HETATM    6  C4  UNL     1      24.911   3.792  49.660  1.00  0.00     0.128 C 
BRANCH   6   7
HETATM    7  C3  UNL     1      25.083   5.271  49.861  1.00  0.00     0.020 C 
BRANCH   7   8
HETATM    8  C2  UNL     1      25.904   5.907  48.771  1.00  0.00    -0.003 C 
HETATM    9  C1  UNL     1      27.279   5.341  48.643  1.00  0.00     0.005 C 
ENDBRANCH   7   8
ENDBRANCH   6   7
ENDBRANCH   1   6
BRANCH   1  10
HETATM   10  C5  UNL     1      23.704   3.287  51.785  1.00  0.00     0.165 C 
BRANCH  10  11
HETATM   11  C6  UNL     1      22.887   2.050  51.842  1.00  0.00    -0.043 A 
HETATM   12  C7  UNL     1      22.208   1.420  50.870  1.00  0.00    -0.013 A 
HETATM   13  C8  UNL     1      21.532   0.198  51.431  1.00  0.00     0.074 A 
HETATM   14  C9  UNL     1      21.942   0.253  52.853  1.00  0.00    -0.007 A 
HETATM   15 BR1  UNL     1      21.297  -1.153  54.000  1.00  0.00    -0.055 Br
HETATM   16  C10 UNL     1      22.708   1.309  53.062  1.00  0.00     0.023 A 
ENDBRANCH  10  11
ENDBRANCH   1  10
BRANCH   4  17
HETATM   17  C12 UNL     1      27.284   0.940  52.993  1.00  0.00     0.069 A 
HETATM   18  C13 UNL     1      27.277  -0.413  52.709  1.00  0.00     0.032 A 
HETATM   19  C14 UNL     1      28.299  -1.221  53.116  1.00  0.00     0.002 A 
HETATM   20  C15 UNL     1      29.337  -0.670  53.813  1.00  0.00     0.003 A 
HETATM   21  C16 UNL     1      29.416   0.670  54.136  1.00  0.00     0.039 A 
HETATM   22  C17 UNL     1      28.350   1.451  53.699  1.00  0.00     0.092 A 
BRANCH  22  23
HETATM   23  O2  UNL     1      28.373   2.798  53.992  1.00  0.00    -0.358 OA
HETATM   24  H21 UNL     1      28.793   3.457  53.373  1.00  0.00     0.217 HD
ENDBRANCH  22  23
ENDBRANCH   4  17
TORSDOF 7
ENDMDL
MODEL 2
REMARK VINA RESULT:      -7.6      3.243      5.102
REMARK  7 active torsions:
REMARK  status: ('A' for Active; 'I' for Inactive)
REMARK    1  A    between atoms: C2_2  and  C3_3 
REMARK    2  A    between atoms: C3_3  and  C4_4 
REMARK    3  A    between atoms: C4_4  and  N1_5 
REMARK    4  A    between atoms: N1_5  and  C5_6 
REMARK       I    between atoms: N1_5  and  C11_13 
REMARK    5  A    between atoms: C5_6  and  C6_7 
REMARK       I    between atoms: C11_13  and  N2_15 
REMARK    6  A    between atoms: N2_15  and  C12_16 
REMARK    7  A    between atoms: C17_21  and  O2_22 
ROOT
HETATM    1  N1  UNL     1      23.718  -0.288  53.583  1.00  0.00    -0.330 N 
HETATM    2  C11 UNL     1      25.075  -0.558  53.912  1.00  0.00     0.323 C 
HETATM    3  O1  UNL     1      25.176  -1.054  55.052  1.00  0.00    -0.247 OA
HETATM    4  N2  UNL     1      26.142  -0.278  53.018  1.00  0.00    -0.306 N 
HETATM    5  H16 UNL     1      25.890   0.142  52.089  1.00  0.00     0.171 HD
ENDROOT
BRANCH   1   6
HETATM    6  C4  UNL     1      22.725  -0.628  54.598  1.00  0.00     0.128 C 
BRANCH   6   7
HETATM    7  C3  UNL     1      21.507  -1.195  53.924  1.00  0.00     0.020 C 
BRANCH   7   8
HETATM    8  C2  UNL     1      20.307  -0.295  54.056  1.00  0.00    -0.003 C 
HETATM    9  C1  UNL     1      19.567  -0.086  52.776  1.00  0.00     0.005 C 
ENDBRANCH   7   8
ENDBRANCH   6   7
ENDBRANCH   1   6
BRANCH   1  10
HETATM   10  C5  UNL     1      23.230   0.291  52.333  1.00  0.00     0.165 C 
BRANCH  10  11
HETATM   11  C6  UNL     1      23.226   1.774  52.357  1.00  0.00    -0.043 A 
HETATM   12  C7  UNL     1      24.061   2.629  52.971  1.00  0.00    -0.013 A 
HETATM   13  C8  UNL     1      23.635   4.045  52.693  1.00  0.00     0.074 A 
HETATM   14  C9  UNL     1      22.444   3.839  51.837  1.00  0.00    -0.007 A 
HETATM   15 BR1  UNL     1      21.534   5.419  51.216  1.00  0.00    -0.055 Br
HETATM   16  C10 UNL     1      22.232   2.548  51.661  1.00  0.00     0.023 A 
ENDBRANCH  10  11
ENDBRANCH   1  10
BRANCH   4  17
HETATM   17  C12 UNL     1      27.517  -0.495  53.222  1.00  0.00     0.069 A 
HETATM   18  C13 UNL     1      28.292   0.604  53.543  1.00  0.00     0.032 A 
HETATM   19  C14 UNL     1      29.635   0.479  53.756  1.00  0.00     0.002 A 
HETATM   20  C15 UNL     1      30.205  -0.757  53.647  1.00  0.00     0.003 A 
HETATM   21  C16 UNL     1      29.501  -1.901  53.329  1.00  0.00     0.039 A 
HETATM   22  C17 UNL     1      28.136  -1.720  53.121  1.00  0.00     0.092 A 
BRANCH  22  23
HETATM   23  O2  UNL     1      27.379  -2.827  52.800  1.00  0.00    -0.358 OA
HETATM   24  H21 UNL     1      27.759  -3.580  52.268  1.00  0.00     0.217 HD
ENDBRANCH  22  23
ENDBRANCH   4  17
TORSDOF 7
ENDMDL
MODEL 3
REMARK VINA RESULT:      -7.6      2.974      4.634
REMARK  7 active torsions:
REMARK  status: ('A' for Active; 'I' for Inactive)
REMARK    1  A    between atoms: C2_2  and  C3_3 
REMARK    2  A    between atoms: C3_3  and  C4_4 
REMARK    3  A    between atoms: C4_4  and  N1_5 
REMARK    4  A    between atoms: N1_5  and  C5_6 
REMARK       I    between atoms: N1_5  and  C11_13 
REMARK    5  A    between atoms: C5_6  and  C6_7 
REMARK       I    between atoms: C11_13  and  N2_15 
REMARK    6  A    between atoms: N2_15  and  C12_16 
REMARK    7  A    between atoms: C17_21  and  O2_22 
ROOT
HETATM    1  N1  UNL     1      24.514   3.226  51.582  1.00  0.00    -0.330 N 
HETATM    2  C11 UNL     1      25.433   2.511  52.399  1.00  0.00     0.323 C 
HETATM    3  O1  UNL     1      25.208   2.704  53.611  1.00  0.00    -0.247 OA
HETATM    4  N2  UNL     1      26.458   1.695  51.853  1.00  0.00    -0.306 N 
HETATM    5  H16 UNL     1      26.516   1.636  50.807  1.00  0.00     0.171 HD
ENDROOT
BRANCH   1   6
HETATM    6  C4  UNL     1      23.510   4.024  52.280  1.00  0.00     0.128 C 
BRANCH   6   7
HETATM    7  C3  UNL     1      22.144   3.483  51.964  1.00  0.00     0.020 C 
BRANCH   7   8
HETATM    8  C2  UNL     1      21.211   4.547  51.451  1.00  0.00    -0.003 C 
HETATM    9  C1  UNL     1      21.860   5.879  51.261  1.00  0.00     0.005 C 
ENDBRANCH   7   8
ENDBRANCH   6   7
ENDBRANCH   1   6
BRANCH   1  10
HETATM   10  C5  UNL     1      24.480   3.232  50.121  1.00  0.00     0.165 C 
BRANCH  10  11
HETATM   11  C6  UNL     1      25.324   4.304  49.538  1.00  0.00    -0.043 A 
HETATM   12  C7  UNL     1      24.995   5.550  49.159  1.00  0.00    -0.013 A 
HETATM   13  C8  UNL     1      26.211   6.257  48.624  1.00  0.00     0.074 A 
HETATM   14  C9  UNL     1      27.253   5.215  48.768  1.00  0.00    -0.007 A 
HETATM   15 BR1  UNL     1      29.033   5.678  48.194  1.00  0.00    -0.055 Br
HETATM   16  C10 UNL     1      26.729   4.119  49.287  1.00  0.00     0.023 A 
ENDBRANCH  10  11
ENDBRANCH   1  10
BRANCH   4  17
HETATM   17  C12 UNL     1      27.424   0.944  52.547  1.00  0.00     0.069 A 
HETATM   18  C13 UNL     1      27.230  -0.423  52.623  1.00  0.00     0.032 A 
HETATM   19  C14 UNL     1      28.121  -1.223  53.279  1.00  0.00     0.002 A 
HETATM   20  C15 UNL     1      29.214  -0.649  53.863  1.00  0.00     0.003 A 
HETATM   21  C16 UNL     1      29.478   0.706  53.832  1.00  0.00     0.039 A 
HETATM   22  C17 UNL     1      28.540   1.477  53.152  1.00  0.00     0.092 A 
BRANCH  22  23
HETATM   23  O2  UNL     1      28.748   2.839  53.087  1.00  0.00    -0.358 OA
HETATM   24  H21 UNL     1      29.667   3.221  53.028  1.00  0.00     0.217 HD
ENDBRANCH  22  23
ENDBRANCH   4  17
TORSDOF 7
ENDMDL
MODEL 4
REMARK VINA RESULT:      -7.5      2.609      6.088
REMARK  7 active torsions:
REMARK  status: ('A' for Active; 'I' for Inactive)
REMARK    1  A    between atoms: C2_2  and  C3_3 
REMARK    2  A    between atoms: C3_3  and  C4_4 
REMARK    3  A    between atoms: C4_4  and  N1_5 
REMARK    4  A    between atoms: N1_5  and  C5_6 
REMARK       I    between atoms: N1_5  and  C11_13 
REMARK    5  A    between atoms: C5_6  and  C6_7 
REMARK       I    between atoms: C11_13  and  N2_15 
REMARK    6  A    between atoms: N2_15  and  C12_16 
REMARK    7  A    between atoms: C17_21  and  O2_22 
ROOT
HETATM    1  N1  UNL     1      23.930   1.490  52.262  1.00  0.00    -0.330 N 
HETATM    2  C11 UNL     1      24.269   2.435  51.255  1.00  0.00     0.323 C 
HETATM    3  O1  UNL     1      23.436   2.428  50.327  1.00  0.00    -0.247 OA
HETATM    4  N2  UNL     1      25.422   3.259  51.345  1.00  0.00    -0.306 N 
HETATM    5  H16 UNL     1      26.026   3.145  52.196  1.00  0.00     0.171 HD
ENDROOT
BRANCH   1   6
HETATM    6  C4  UNL     1      22.715   0.712  52.038  1.00  0.00     0.128 C 
BRANCH   6   7
HETATM    7  C3  UNL     1      21.956   0.600  53.330  1.00  0.00     0.020 C 
BRANCH   7   8
HETATM    8  C2  UNL     1      21.650  -0.828  53.694  1.00  0.00    -0.003 C 
HETATM    9  C1  UNL     1      22.430  -1.334  54.863  1.00  0.00     0.005 C 
ENDBRANCH   7   8
ENDBRANCH   6   7
ENDBRANCH   1   6
BRANCH   1  10
HETATM   10  C5  UNL     1      24.678   1.230  53.490  1.00  0.00     0.165 C 
BRANCH  10  11
HETATM   11  C6  UNL     1      25.788   0.267  53.286  1.00  0.00    -0.043 A 
HETATM   12  C7  UNL     1      25.770  -0.972  52.766  1.00  0.00    -0.013 A 
HETATM   13  C8  UNL     1      27.161  -1.547  52.774  1.00  0.00     0.074 A 
HETATM   14  C9  UNL     1      27.941  -0.441  53.375  1.00  0.00    -0.007 A 
HETATM   15 BR1  UNL     1      29.833  -0.728  53.594  1.00  0.00    -0.055 Br
HETATM   16  C10 UNL     1      27.144   0.574  53.657  1.00  0.00     0.023 A 
ENDBRANCH  10  11
ENDBRANCH   1  10
BRANCH   4  17
HETATM   17  C12 UNL     1      25.866   4.225  50.424  1.00  0.00     0.069 A 
HETATM   18  C13 UNL     1      26.885   3.861  49.564  1.00  0.00     0.032 A 
HETATM   19  C14 UNL     1      27.373   4.740  48.641  1.00  0.00     0.002 A 
HETATM   20  C15 UNL     1      26.835   5.994  48.578  1.00  0.00     0.003 A 
HETATM   21  C16 UNL     1      25.818   6.434  49.401  1.00  0.00     0.039 A 
HETATM   22  C17 UNL     1      25.356   5.500  50.325  1.00  0.00     0.092 A 
BRANCH  22  23
HETATM   23  O2  UNL     1      24.339   5.881  51.175  1.00  0.00    -0.358 OA
HETATM   24  H21 UNL     1      23.978   5.257  51.864  1.00  0.00     0.217 HD
ENDBRANCH  22  23
ENDBRANCH   4  17
TORSDOF 7
ENDMDL
MODEL 5
REMARK VINA RESULT:      -7.3      2.595      4.835
REMARK  7 active torsions:
REMARK  status: ('A' for Active; 'I' for Inactive)
REMARK    1  A    between atoms: C2_2  and  C3_3 
REMARK    2  A    between atoms: C3_3  and  C4_4 
REMARK    3  A    between atoms: C4_4  and  N1_5 
REMARK    4  A    between atoms: N1_5  and  C5_6 
REMARK       I    between atoms: N1_5  and  C11_13 
REMARK    5  A    between atoms: C5_6  and  C6_7 
REMARK       I    between atoms: C11_13  and  N2_15 
REMARK    6  A    between atoms: N2_15  and  C12_16 
REMARK    7  A    between atoms: C17_21  and  O2_22 
ROOT
HETATM    1  N1  UNL     1      23.220   0.196  52.968  1.00  0.00    -0.330 N 
HETATM    2  C11 UNL     1      24.537  -0.009  53.464  1.00  0.00     0.323 C 
HETATM    3  O1  UNL     1      24.521  -0.598  54.563  1.00  0.00    -0.247 OA
HETATM    4  N2  UNL     1      25.690   0.421  52.756  1.00  0.00    -0.306 N 
HETATM    5  H16 UNL     1      25.534   0.904  51.837  1.00  0.00     0.171 HD
ENDROOT
BRANCH   1   6
HETATM    6  C4  UNL     1      22.129  -0.300  53.802  1.00  0.00     0.128 C 
BRANCH   6   7
HETATM    7  C3  UNL     1      20.904   0.537  53.558  1.00  0.00     0.020 C 
BRANCH   7   8
HETATM    8  C2  UNL     1      19.697  -0.298  53.223  1.00  0.00    -0.003 C 
HETATM    9  C1  UNL     1      19.108   0.004  51.884  1.00  0.00     0.005 C 
ENDBRANCH   7   8
ENDBRANCH   6   7
ENDBRANCH   1   6
BRANCH   1  10
HETATM   10  C5  UNL     1      22.862   0.851  51.711  1.00  0.00     0.165 C 
BRANCH  10  11
HETATM   11  C6  UNL     1      23.324   2.259  51.653  1.00  0.00    -0.043 A 
HETATM   12  C7  UNL     1      23.091   3.279  52.495  1.00  0.00    -0.013 A 
HETATM   13  C8  UNL     1      23.784   4.519  51.997  1.00  0.00     0.074 A 
HETATM   14  C9  UNL     1      24.430   4.027  50.759  1.00  0.00    -0.007 A 
HETATM   15 BR1  UNL     1      25.462   5.301  49.749  1.00  0.00    -0.055 Br
HETATM   16  C10 UNL     1      24.157   2.746  50.585  1.00  0.00     0.023 A 
ENDBRANCH  10  11
ENDBRANCH   1  10
BRANCH   4  17
HETATM   17  C12 UNL     1      27.037   0.280  53.135  1.00  0.00     0.069 A 
HETATM   18  C13 UNL     1      27.626  -0.956  52.939  1.00  0.00     0.032 A 
HETATM   19  C14 UNL     1      28.929  -1.175  53.281  1.00  0.00     0.002 A 
HETATM   20  C15 UNL     1      29.649  -0.148  53.823  1.00  0.00     0.003 A 
HETATM   21  C16 UNL     1      29.134   1.113  54.050  1.00  0.00     0.039 A 
HETATM   22  C17 UNL     1      27.801   1.285  53.685  1.00  0.00     0.092 A 
BRANCH  22  23
HETATM   23  O2  UNL     1      27.230   2.523  53.888  1.00  0.00    -0.358 OA
HETATM   24  H21 UNL     1      27.057   2.870  54.807  1.00  0.00     0.217 HD
ENDBRANCH  22  23
ENDBRANCH   4  17
TORSDOF 7
ENDMDL
MODEL 6
REMARK VINA RESULT:      -7.1      1.771      5.307
REMARK  7 active torsions:
REMARK  status: ('A' for Active; 'I' for Inactive)
REMARK    1  A    between atoms: C2_2  and  C3_3 
REMARK    2  A    between atoms: C3_3  and  C4_4 
REMARK    3  A    between atoms: C4_4  and  N1_5 
REMARK    4  A    between atoms: N1_5  and  C5_6 
REMARK       I    between atoms: N1_5  and  C11_13 
REMARK    5  A    between atoms: C5_6  and  C6_7 
REMARK       I    between atoms: C11_13  and  N2_15 
REMARK    6  A    between atoms: N2_15  and  C12_16 
REMARK    7  A    between atoms: C17_21  and  O2_22 
ROOT
HETATM    1  N1  UNL     1      25.884   0.605  53.569  1.00  0.00    -0.330 N 
HETATM    2  C11 UNL     1      26.030   1.831  52.864  1.00  0.00     0.323 C 
HETATM    3  O1  UNL     1      26.704   2.652  53.518  1.00  0.00    -0.247 OA
HETATM    4  N2  UNL     1      25.461   2.041  51.580  1.00  0.00    -0.306 N 
HETATM    5  H16 UNL     1      24.919   1.245  51.162  1.00  0.00     0.171 HD
ENDROOT
BRANCH   1   6
HETATM    6  C4  UNL     1      26.524   0.530  54.879  1.00  0.00     0.128 C 
BRANCH   6   7
HETATM    7  C3  UNL     1      27.684  -0.424  54.807  1.00  0.00     0.020 C 
BRANCH   7   8
HETATM    8  C2  UNL     1      28.970   0.264  54.434  1.00  0.00    -0.003 C 
HETATM    9  C1  UNL     1      29.872  -0.565  53.580  1.00  0.00     0.005 C 
ENDBRANCH   7   8
ENDBRANCH   6   7
ENDBRANCH   1   6
BRANCH   1  10
HETATM   10  C5  UNL     1      25.160  -0.577  53.106  1.00  0.00     0.165 C 
BRANCH  10  11
HETATM   11  C6  UNL     1      23.739  -0.576  53.531  1.00  0.00    -0.043 A 
HETATM   12  C7  UNL     1      23.186  -0.956  54.695  1.00  0.00    -0.013 A 
HETATM   13  C8  UNL     1      21.695  -0.763  54.637  1.00  0.00     0.074 A 
HETATM   14  C9  UNL     1      21.513  -0.221  53.271  1.00  0.00    -0.007 A 
HETATM   15 BR1  UNL     1      19.711   0.191  52.730  1.00  0.00    -0.055 Br
HETATM   16  C10 UNL     1      22.682  -0.125  52.664  1.00  0.00     0.023 A 
ENDBRANCH  10  11
ENDBRANCH   1  10
BRANCH   4  17
HETATM   17  C12 UNL     1      25.532   3.199  50.785  1.00  0.00     0.069 A 
HETATM   18  C13 UNL     1      26.600   3.305  49.912  1.00  0.00     0.032 A 
HETATM   19  C14 UNL     1      26.741   4.398  49.106  1.00  0.00     0.002 A 
HETATM   20  C15 UNL     1      25.806   5.391  49.174  1.00  0.00     0.003 A 
HETATM   21  C16 UNL     1      24.714   5.359  50.017  1.00  0.00     0.039 A 
HETATM   22  C17 UNL     1      24.615   4.225  50.818  1.00  0.00     0.092 A 
BRANCH  22  23
HETATM   23  O2  UNL     1      23.545   4.136  51.683  1.00  0.00    -0.358 OA
HETATM   24  H21 UNL     1      23.047   3.280  51.807  1.00  0.00     0.217 HD
ENDBRANCH  22  23
ENDBRANCH   4  17
TORSDOF 7
ENDMDL
MODEL 7
REMARK VINA RESULT:      -7.0      1.915      5.664
REMARK  7 active torsions:
REMARK  status: ('A' for Active; 'I' for Inactive)
REMARK    1  A    between atoms: C2_2  and  C3_3 
REMARK    2  A    between atoms: C3_3  and  C4_4 
REMARK    3  A    between atoms: C4_4  and  N1_5 
REMARK    4  A    between atoms: N1_5  and  C5_6 
REMARK       I    between atoms: N1_5  and  C11_13 
REMARK    5  A    between atoms: C5_6  and  C6_7 
REMARK       I    between atoms: C11_13  and  N2_15 
REMARK    6  A    between atoms: N2_15  and  C12_16 
REMARK    7  A    between atoms: C17_21  and  O2_22 
ROOT
HETATM    1  N1  UNL     1      25.687   2.135  52.002  1.00  0.00    -0.330 N 
HETATM    2  C11 UNL     1      25.635   3.231  51.098  1.00  0.00     0.323 C 
HETATM    3  O1  UNL     1      26.451   3.089  50.165  1.00  0.00    -0.247 OA
HETATM    4  N2  UNL     1      24.747   4.324  51.280  1.00  0.00    -0.306 N 
HETATM    5  H16 UNL     1      24.119   4.294  52.120  1.00  0.00     0.171 HD
ENDROOT
BRANCH   1   6
HETATM    6  C4  UNL     1      26.648   1.081  51.689  1.00  0.00     0.128 C 
BRANCH   6   7
HETATM    7  C3  UNL     1      27.520   0.837  52.889  1.00  0.00     0.020 C 
BRANCH   7   8
HETATM    8  C2  UNL     1      27.471  -0.594  53.352  1.00  0.00    -0.003 C 
HETATM    9  C1  UNL     1      26.779  -1.513  52.400  1.00  0.00     0.005 C 
ENDBRANCH   7   8
ENDBRANCH   6   7
ENDBRANCH   1   6
BRANCH   1  10
HETATM   10  C5  UNL     1      24.873   1.967  53.205  1.00  0.00     0.165 C 
BRANCH  10  11
HETATM   11  C6  UNL     1      23.707   1.078  52.982  1.00  0.00    -0.043 A 
HETATM   12  C7  UNL     1      23.509  -0.195  53.360  1.00  0.00    -0.013 A 
HETATM   13  C8  UNL     1      22.156  -0.660  52.891  1.00  0.00     0.074 A 
HETATM   14  C9  UNL     1      21.644   0.546  52.202  1.00  0.00    -0.007 A 
HETATM   15 BR1  UNL     1      19.890   0.422  51.417  1.00  0.00    -0.055 Br
HETATM   16  C10 UNL     1      22.538   1.516  52.266  1.00  0.00     0.023 A 
ENDBRANCH  10  11
ENDBRANCH   1  10
BRANCH   4  17
HETATM   17  C12 UNL     1      24.600   5.461  50.465  1.00  0.00     0.069 A 
HETATM   18  C13 UNL     1      24.576   5.262  49.097  1.00  0.00     0.032 A 
HETATM   19  C14 UNL     1      24.437   6.313  48.237  1.00  0.00     0.002 A 
HETATM   20  C15 UNL     1      24.321   7.573  48.751  1.00  0.00     0.003 A 
HETATM   21  C16 UNL     1      24.337   7.854  50.103  1.00  0.00     0.039 A 
HETATM   22  C17 UNL     1      24.481   6.749  50.937  1.00  0.00     0.092 A 
BRANCH  22  23
HETATM   23  O2  UNL     1      24.504   6.965  52.299  1.00  0.00    -0.358 OA
HETATM   24  H21 UNL     1      25.058   6.400  52.905  1.00  0.00     0.217 HD
ENDBRANCH  22  23
ENDBRANCH   4  17
TORSDOF 7
ENDMDL
MODEL 8
REMARK VINA RESULT:      -7.0      3.261      6.736
REMARK  7 active torsions:
REMARK  status: ('A' for Active; 'I' for Inactive)
REMARK    1  A    between atoms: C2_2  and  C3_3 
REMARK    2  A    between atoms: C3_3  and  C4_4 
REMARK    3  A    between atoms: C4_4  and  N1_5 
REMARK    4  A    between atoms: N1_5  and  C5_6 
REMARK       I    between atoms: N1_5  and  C11_13 
REMARK    5  A    between atoms: C5_6  and  C6_7 
REMARK       I    between atoms: C11_13  and  N2_15 
REMARK    6  A    between atoms: N2_15  and  C12_16 
REMARK    7  A    between atoms: C17_21  and  O2_22 
ROOT
HETATM    1  N1  UNL     1      24.944   0.588  53.399  1.00  0.00    -0.330 N 
HETATM    2  C11 UNL     1      23.652   0.041  53.171  1.00  0.00     0.323 C 
HETATM    3  O1  UNL     1      23.677  -1.206  53.193  1.00  0.00    -0.247 OA
HETATM    4  N2  UNL     1      22.510   0.856  52.951  1.00  0.00    -0.306 N 
HETATM    5  H16 UNL     1      22.655   1.895  52.963  1.00  0.00     0.171 HD
ENDROOT
BRANCH   1   6
HETATM    6  C4  UNL     1      26.026  -0.369  53.611  1.00  0.00     0.128 C 
BRANCH   6   7
HETATM    7  C3  UNL     1      27.071   0.257  54.492  1.00  0.00     0.020 C 
BRANCH   7   8
HETATM    8  C2  UNL     1      28.405   0.373  53.806  1.00  0.00    -0.003 C 
HETATM    9  C1  UNL     1      29.114  -0.931  53.640  1.00  0.00     0.005 C 
ENDBRANCH   7   8
ENDBRANCH   6   7
ENDBRANCH   1   6
BRANCH   1  10
HETATM   10  C5  UNL     1      25.285   2.009  53.442  1.00  0.00     0.165 C 
BRANCH  10  11
HETATM   11  C6  UNL     1      25.508   2.581  52.091  1.00  0.00    -0.043 A 
HETATM   12  C7  UNL     1      26.526   2.399  51.234  1.00  0.00    -0.013 A 
HETATM   13  C8  UNL     1      26.290   3.203  49.985  1.00  0.00     0.074 A 
HETATM   14  C9  UNL     1      24.993   3.852  50.284  1.00  0.00    -0.007 A 
HETATM   15 BR1  UNL     1      24.268   5.015  48.930  1.00  0.00    -0.055 Br
HETATM   16  C10 UNL     1      24.570   3.485  51.480  1.00  0.00     0.023 A 
ENDBRANCH  10  11
ENDBRANCH   1  10
BRANCH   4  17
HETATM   17  C12 UNL     1      21.187   0.441  52.715  1.00  0.00     0.069 A 
HETATM   18  C13 UNL     1      20.628   0.768  51.493  1.00  0.00     0.032 A 
HETATM   19  C14 UNL     1      19.349   0.403  51.186  1.00  0.00     0.002 A 
HETATM   20  C15 UNL     1      18.624  -0.296  52.109  1.00  0.00     0.003 A 
HETATM   21  C16 UNL     1      19.110  -0.659  53.349  1.00  0.00     0.039 A 
HETATM   22  C17 UNL     1      20.418  -0.263  53.614  1.00  0.00     0.092 A 
BRANCH  22  23
HETATM   23  O2  UNL     1      20.959  -0.597  54.838  1.00  0.00    -0.358 OA
HETATM   24  H21 UNL     1      21.140   0.096  55.532  1.00  0.00     0.217 HD
ENDBRANCH  22  23
ENDBRANCH   4  17
TORSDOF 7
ENDMDL
MODEL 9
REMARK VINA RESULT:      -6.9      1.808      2.799
REMARK  7 active torsions:
REMARK  status: ('A' for Active; 'I' for Inactive)
REMARK    1  A    between atoms: C2_2  and  C3_3 
REMARK    2  A    between atoms: C3_3  and  C4_4 
REMARK    3  A    between atoms: C4_4  and  N1_5 
REMARK    4  A    between atoms: N1_5  and  C5_6 
REMARK       I    between atoms: N1_5  and  C11_13 
REMARK    5  A    between atoms: C5_6  and  C6_7 
REMARK       I    between atoms: C11_13  and  N2_15 
REMARK    6  A    between atoms: N2_15  and  C12_16 
REMARK    7  A    between atoms: C17_21  and  O2_22 
ROOT
HETATM    1  N1  UNL     1      24.337   1.887  52.610  1.00  0.00    -0.330 N 
HETATM    2  C11 UNL     1      25.651   1.532  53.022  1.00  0.00     0.323 C 
HETATM    3  O1  UNL     1      26.175   2.440  53.698  1.00  0.00    -0.247 OA
HETATM    4  N2  UNL     1      26.245   0.288  52.680  1.00  0.00    -0.306 N 
HETATM    5  H16 UNL     1      25.669  -0.372  52.102  1.00  0.00     0.171 HD
ENDROOT
BRANCH   1   6
HETATM    6  C4  UNL     1      23.856   3.198  53.036  1.00  0.00     0.128 C 
BRANCH   6   7
HETATM    7  C3  UNL     1      23.120   3.845  51.896  1.00  0.00     0.020 C 
BRANCH   7   8
HETATM    8  C2  UNL     1      24.015   4.716  51.056  1.00  0.00    -0.003 C 
HETATM    9  C1  UNL     1      23.841   4.520  49.586  1.00  0.00     0.005 C 
ENDBRANCH   7   8
ENDBRANCH   6   7
ENDBRANCH   1   6
BRANCH   1  10
HETATM   10  C5  UNL     1      23.433   1.066  51.807  1.00  0.00     0.165 C 
BRANCH  10  11
HETATM   11  C6  UNL     1      22.406   0.381  52.630  1.00  0.00    -0.043 A 
HETATM   12  C7  UNL     1      22.510  -0.185  53.844  1.00  0.00    -0.013 A 
HETATM   13  C8  UNL     1      21.179  -0.753  54.257  1.00  0.00     0.074 A 
HETATM   14  C9  UNL     1      20.332  -0.414  53.091  1.00  0.00    -0.007 A 
HETATM   15 BR1  UNL     1      18.486  -0.959  53.167  1.00  0.00    -0.055 Br
HETATM   16  C10 UNL     1      21.047   0.227  52.183  1.00  0.00     0.023 A 
ENDBRANCH  10  11
ENDBRANCH   1  10
BRANCH   4  17
HETATM   17  C12 UNL     1      27.526  -0.179  53.022  1.00  0.00     0.069 A 
HETATM   18  C13 UNL     1      28.473   0.766  53.373  1.00  0.00     0.032 A 
HETATM   19  C14 UNL     1      29.741   0.395  53.718  1.00  0.00     0.002 A 
HETATM   20  C15 UNL     1      30.063  -0.933  53.711  1.00  0.00     0.003 A 
HETATM   21  C16 UNL     1      29.176  -1.935  53.372  1.00  0.00     0.039 A 
HETATM   22  C17 UNL     1      27.897  -1.505  53.029  1.00  0.00     0.092 A 
BRANCH  22  23
HETATM   23  O2  UNL     1      26.966  -2.460  52.681  1.00  0.00    -0.358 OA
HETATM   24  H21 UNL     1      26.047  -2.455  53.069  1.00  0.00     0.217 HD
ENDBRANCH  22  23
ENDBRANCH   4  17
TORSDOF 7
ENDMDL
