MODEL 1
REMARK VINA RESULT:     -10.0      0.000      0.000
REMARK  0 active torsions:
REMARK  status: ('A' for Active; 'I' for Inactive)
ROOT
HETATM    1  O1  UNL     1      27.803  -0.527  54.695  1.00  0.00    -0.268 OA
HETATM    2  C1  UNL     1      26.653  -0.286  54.281  1.00  0.00     0.252 A 
HETATM    3  N1  UNL     1      25.370  -0.795  54.543  1.00  0.00    -0.329 N 
HETATM    4  C2  UNL     1      24.327  -0.206  53.822  1.00  0.00     0.006 A 
HETATM    5  C3  UNL     1      22.968  -0.304  53.686  1.00  0.00     0.059 A 
HETATM    6  C4  UNL     1      22.225   0.465  52.835  1.00  0.00     0.019 A 
HETATM    7  C5  UNL     1      22.928   1.422  52.045  1.00  0.00    -0.030 A 
HETATM    8  C6  UNL     1      23.703   0.674  52.887  1.00  0.00     0.088 A 
HETATM    9  C7  UNL     1      25.056   0.745  53.054  1.00  0.00     0.027 A 
HETATM   10  C8  UNL     1      26.495   0.757  53.286  1.00  0.00     0.018 A 
HETATM   11  C9  UNL     1      27.100   1.644  52.515  1.00  0.00     0.016 C 
HETATM   12  C10 UNL     1      27.058   2.722  51.506  1.00  0.00     0.297 C 
HETATM   13  N2  UNL     1      25.727   3.133  51.130  1.00  0.00     0.086 N 
HETATM   14  C11 UNL     1      25.712   4.177  50.163  1.00  0.00     0.271 C 
HETATM   15  C12 UNL     1      24.255   4.534  49.840  1.00  0.00     0.049 C 
HETATM   16  C13 UNL     1      23.516   4.974  51.057  1.00  0.00     0.121 C 
HETATM   17  N3  UNL     1      22.136   5.343  50.741  1.00  0.00    -0.397 N 
HETATM   18  C14 UNL     1      20.842   4.904  50.313  1.00  0.00     0.107 C 
HETATM   19  C15 UNL     1      19.835   4.281  50.958  1.00  0.00     0.159 C 
HETATM   20  O2  UNL     1      18.863   3.632  51.751  1.00  0.00    -0.321 OA
HETATM   21  C16 UNL     1      19.051   2.230  51.948  1.00  0.00     0.075 A 
HETATM   22  C17 UNL     1      18.127   1.217  51.835  1.00  0.00     0.037 A 
HETATM   23  C18 UNL     1      18.551  -0.073  52.068  1.00  0.00     0.003 A 
HETATM   24  C19 UNL     1      19.850  -0.391  52.405  1.00  0.00     0.008 A 
HETATM   25  C20 UNL     1      20.827   0.576  52.534  1.00  0.00    -0.042 A 
HETATM   26  C21 UNL     1      20.338   1.880  52.287  1.00  0.00     0.045 A 
HETATM   27  H1  UNL     1      25.202  -1.554  55.222  1.00  0.00     0.168 HD
HETATM   28  H8  UNL     1      25.265   3.484  52.038  1.00  0.00     0.316 HD
HETATM   29  H15 UNL     1      21.881   6.370  50.858  1.00  0.00     0.158 HD
ENDROOT
TORSDOF 0
ENDMDL
MODEL 2
REMARK VINA RESULT:      -9.9      2.148      6.100
REMARK  0 active torsions:
REMARK  status: ('A' for Active; 'I' for Inactive)
ROOT
HETATM    1  O1  UNL     1      17.802  -1.804  53.589  1.00  0.00    -0.268 OA
HETATM    2  C1  UNL     1      18.986  -1.416  53.588  1.00  0.00     0.252 A 
HETATM    3  N1  UNL     1      20.193  -1.891  54.127  1.00  0.00    -0.329 N 
HETATM    4  C2  UNL     1      21.321  -1.107  53.871  1.00  0.00     0.006 A 
HETATM    5  C3  UNL     1      22.663  -1.092  54.137  1.00  0.00     0.059 A 
HETATM    6  C4  UNL     1      23.519  -0.113  53.715  1.00  0.00     0.019 A 
HETATM    7  C5  UNL     1      22.957   0.954  52.954  1.00  0.00    -0.030 A 
HETATM    8  C6  UNL     1      22.074  -0.008  53.355  1.00  0.00     0.088 A 
HETATM    9  C7  UNL     1      20.732  -0.060  53.107  1.00  0.00     0.027 A 
HETATM   10  C8  UNL     1      19.296  -0.184  52.888  1.00  0.00     0.018 A 
HETATM   11  C9  UNL     1      18.823   0.839  52.198  1.00  0.00     0.016 C 
HETATM   12  C10 UNL     1      19.023   2.100  51.456  1.00  0.00     0.297 C 
HETATM   13  N2  UNL     1      20.405   2.487  51.302  1.00  0.00     0.086 N 
HETATM   14  C11 UNL     1      20.572   3.702  50.578  1.00  0.00     0.271 C 
HETATM   15  C12 UNL     1      22.071   4.014  50.473  1.00  0.00     0.049 C 
HETATM   16  C13 UNL     1      22.811   2.919  49.784  1.00  0.00     0.121 C 
HETATM   17  N3  UNL     1      24.234   3.234  49.657  1.00  0.00    -0.397 N 
HETATM   18  C14 UNL     1      25.484   3.437  50.324  1.00  0.00     0.107 C 
HETATM   19  C15 UNL     1      26.391   2.581  50.837  1.00  0.00     0.159 C 
HETATM   20  O2  UNL     1      27.254   1.578  51.329  1.00  0.00    -0.321 OA
HETATM   21  C16 UNL     1      26.902   1.016  52.594  1.00  0.00     0.075 A 
HETATM   22  C17 UNL     1      27.709   0.784  53.684  1.00  0.00     0.037 A 
HETATM   23  C18 UNL     1      27.133   0.232  54.808  1.00  0.00     0.003 A 
HETATM   24  C19 UNL     1      25.795  -0.093  54.889  1.00  0.00     0.008 A 
HETATM   25  C20 UNL     1      24.931   0.114  53.833  1.00  0.00    -0.042 A 
HETATM   26  C21 UNL     1      25.572   0.678  52.706  1.00  0.00     0.045 A 
HETATM   27  H1  UNL     1      20.249  -2.763  54.677  1.00  0.00     0.168 HD
HETATM   28  H8  UNL     1      20.871   1.683  50.757  1.00  0.00     0.316 HD
HETATM   29  H15 UNL     1      24.599   3.387  48.669  1.00  0.00     0.158 HD
ENDROOT
TORSDOF 0
ENDMDL
MODEL 3
REMARK VINA RESULT:      -9.7      2.151      4.925
REMARK  0 active torsions:
REMARK  status: ('A' for Active; 'I' for Inactive)
ROOT
HETATM    1  O1  UNL     1      28.236  -0.892  54.359  1.00  0.00    -0.268 OA
HETATM    2  C1  UNL     1      27.588  -0.110  53.638  1.00  0.00     0.252 A 
HETATM    3  N1  UNL     1      27.912   0.892  52.708  1.00  0.00    -0.329 N 
HETATM    4  C2  UNL     1      26.826   1.542  52.115  1.00  0.00     0.006 A 
HETATM    5  C3  UNL     1      26.574   2.532  51.204  1.00  0.00     0.059 A 
HETATM    6  C4  UNL     1      25.320   2.944  50.845  1.00  0.00     0.019 A 
HETATM    7  C5  UNL     1      24.220   2.291  51.474  1.00  0.00    -0.030 A 
HETATM    8  C6  UNL     1      25.456   1.851  51.853  1.00  0.00     0.088 A 
HETATM    9  C7  UNL     1      25.749   0.866  52.754  1.00  0.00     0.027 A 
HETATM   10  C8  UNL     1      26.140  -0.168  53.703  1.00  0.00     0.018 A 
HETATM   11  C9  UNL     1      25.085  -0.724  54.273  1.00  0.00     0.016 C 
HETATM   12  C10 UNL     1      23.623  -0.872  54.419  1.00  0.00     0.297 C 
HETATM   13  N2  UNL     1      22.849  -0.094  53.482  1.00  0.00     0.086 N 
HETATM   14  C11 UNL     1      21.444  -0.258  53.638  1.00  0.00     0.271 C 
HETATM   15  C12 UNL     1      20.725   0.607  52.595  1.00  0.00     0.049 C 
HETATM   16  C13 UNL     1      21.116   0.233  51.207  1.00  0.00     0.121 C 
HETATM   17  N3  UNL     1      20.406   1.038  50.215  1.00  0.00    -0.397 N 
HETATM   18  C14 UNL     1      20.209   2.332  49.635  1.00  0.00     0.107 C 
HETATM   19  C15 UNL     1      20.922   3.045  48.739  1.00  0.00     0.159 C 
HETATM   20  O2  UNL     1      21.760   3.680  47.797  1.00  0.00    -0.321 OA
HETATM   21  C16 UNL     1      22.924   4.317  48.326  1.00  0.00     0.075 A 
HETATM   22  C17 UNL     1      23.412   5.574  48.052  1.00  0.00     0.037 A 
HETATM   23  C18 UNL     1      24.561   5.976  48.698  1.00  0.00     0.003 A 
HETATM   24  C19 UNL     1      25.236   5.181  49.601  1.00  0.00     0.008 A 
HETATM   25  C20 UNL     1      24.801   3.911  49.921  1.00  0.00    -0.042 A 
HETATM   26  C21 UNL     1      23.622   3.548  49.229  1.00  0.00     0.045 A 
HETATM   27  H1  UNL     1      28.887   1.136  52.472  1.00  0.00     0.168 HD
HETATM   28  H8  UNL     1      23.141  -0.445  52.505  1.00  0.00     0.316 HD
HETATM   29  H15 UNL     1      19.711   0.522  49.594  1.00  0.00     0.158 HD
ENDROOT
TORSDOF 0
ENDMDL
MODEL 4
REMARK VINA RESULT:      -9.5      1.926      2.592
REMARK  0 active torsions:
REMARK  status: ('A' for Active; 'I' for Inactive)
ROOT
HETATM    1  O1  UNL     1      26.379  -0.483  55.370  1.00  0.00    -0.268 OA
HETATM    2  C1  UNL     1      25.203  -0.566  54.968  1.00  0.00     0.252 A 
HETATM    3  N1  UNL     1      24.037  -1.208  55.418  1.00  0.00    -0.329 N 
HETATM    4  C2  UNL     1      22.900  -1.024  54.624  1.00  0.00     0.006 A 
HETATM    5  C3  UNL     1      21.583  -1.394  54.588  1.00  0.00     0.059 A 
HETATM    6  C4  UNL     1      20.708  -1.020  53.607  1.00  0.00     0.019 A 
HETATM    7  C5  UNL     1      21.220  -0.196  52.562  1.00  0.00    -0.030 A 
HETATM    8  C6  UNL     1      22.122  -0.546  53.527  1.00  0.00     0.088 A 
HETATM    9  C7  UNL     1      23.439  -0.195  53.601  1.00  0.00     0.027 A 
HETATM   10  C8  UNL     1      24.852   0.133  53.747  1.00  0.00     0.018 A 
HETATM   11  C9  UNL     1      25.280   0.878  52.743  1.00  0.00     0.016 C 
HETATM   12  C10 UNL     1      25.036   1.629  51.495  1.00  0.00     0.297 C 
HETATM   13  N2  UNL     1      23.651   1.683  51.094  1.00  0.00     0.086 N 
HETATM   14  C11 UNL     1      23.441   2.417  49.892  1.00  0.00     0.271 C 
HETATM   15  C12 UNL     1      21.942   2.411  49.564  1.00  0.00     0.049 C 
HETATM   16  C13 UNL     1      21.138   3.017  50.663  1.00  0.00     0.121 C 
HETATM   17  N3  UNL     1      19.713   3.039  50.333  1.00  0.00    -0.397 N 
HETATM   18  C14 UNL     1      18.521   2.281  50.101  1.00  0.00     0.107 C 
HETATM   19  C15 UNL     1      17.648   1.681  50.936  1.00  0.00     0.159 C 
HETATM   20  O2  UNL     1      16.816   1.102  51.918  1.00  0.00    -0.321 OA
HETATM   21  C16 UNL     1      17.260  -0.143  52.459  1.00  0.00     0.075 A 
HETATM   22  C17 UNL     1      16.538  -1.298  52.659  1.00  0.00     0.037 A 
HETATM   23  C18 UNL     1      17.194  -2.385  53.195  1.00  0.00     0.003 A 
HETATM   24  C19 UNL     1      18.531  -2.367  53.535  1.00  0.00     0.008 A 
HETATM   25  C20 UNL     1      19.312  -1.243  53.360  1.00  0.00    -0.042 A 
HETATM   26  C21 UNL     1      18.590  -0.158  52.811  1.00  0.00     0.045 A 
HETATM   27  H1  UNL     1      24.014  -1.779  56.277  1.00  0.00     0.168 HD
HETATM   28  H8  UNL     1      23.135   2.173  51.904  1.00  0.00     0.316 HD
HETATM   29  H15 UNL     1      19.273   3.999  50.195  1.00  0.00     0.158 HD
ENDROOT
TORSDOF 0
ENDMDL
MODEL 5
REMARK VINA RESULT:      -9.5      2.063      7.023
REMARK  0 active torsions:
REMARK  status: ('A' for Active; 'I' for Inactive)
ROOT
HETATM    1  O1  UNL     1      21.313   5.967  48.725  1.00  0.00    -0.268 OA
HETATM    2  C1  UNL     1      21.937   5.073  49.328  1.00  0.00     0.252 A 
HETATM    3  N1  UNL     1      23.290   4.800  49.587  1.00  0.00    -0.329 N 
HETATM    4  C2  UNL     1      23.543   3.642  50.329  1.00  0.00     0.006 A 
HETATM    5  C3  UNL     1      24.602   2.940  50.836  1.00  0.00     0.059 A 
HETATM    6  C4  UNL     1      24.483   1.777  51.547  1.00  0.00     0.019 A 
HETATM    7  C5  UNL     1      23.163   1.281  51.759  1.00  0.00    -0.030 A 
HETATM    8  C6  UNL     1      23.243   2.446  51.049  1.00  0.00     0.088 A 
HETATM    9  C7  UNL     1      22.213   3.177  50.531  1.00  0.00     0.027 A 
HETATM   10  C8  UNL     1      21.168   4.009  49.946  1.00  0.00     0.018 A 
HETATM   11  C9  UNL     1      19.969   3.493  50.152  1.00  0.00     0.016 C 
HETATM   12  C10 UNL     1      19.089   2.465  50.741  1.00  0.00     0.297 C 
HETATM   13  N2  UNL     1      19.770   1.508  51.580  1.00  0.00     0.086 N 
HETATM   14  C11 UNL     1      18.899   0.531  52.142  1.00  0.00     0.271 C 
HETATM   15  C12 UNL     1      19.725  -0.427  53.011  1.00  0.00     0.049 C 
HETATM   16  C13 UNL     1      20.431   0.297  54.105  1.00  0.00     0.121 C 
HETATM   17  N3  UNL     1      21.192  -0.623  54.950  1.00  0.00    -0.397 N 
HETATM   18  C14 UNL     1      22.299  -1.524  55.053  1.00  0.00     0.107 C 
HETATM   19  C15 UNL     1      23.623  -1.323  55.213  1.00  0.00     0.159 C 
HETATM   20  O2  UNL     1      24.980  -0.971  55.381  1.00  0.00    -0.321 OA
HETATM   21  C16 UNL     1      25.674  -0.573  54.198  1.00  0.00     0.075 A 
HETATM   22  C17 UNL     1      26.914  -0.975  53.754  1.00  0.00     0.037 A 
HETATM   23  C18 UNL     1      27.375  -0.452  52.566  1.00  0.00     0.003 A 
HETATM   24  C19 UNL     1      26.655   0.446  51.806  1.00  0.00     0.008 A 
HETATM   25  C20 UNL     1      25.406   0.889  52.192  1.00  0.00    -0.042 A 
HETATM   26  C21 UNL     1      24.982   0.325  53.418  1.00  0.00     0.045 A 
HETATM   27  H1  UNL     1      24.053   5.411  49.254  1.00  0.00     0.168 HD
HETATM   28  H8  UNL     1      20.215   2.084  52.374  1.00  0.00     0.316 HD
HETATM   29  H15 UNL     1      20.855  -0.732  55.955  1.00  0.00     0.158 HD
ENDROOT
TORSDOF 0
ENDMDL
MODEL 6
REMARK VINA RESULT:      -9.3      2.639      6.321
REMARK  0 active torsions:
REMARK  status: ('A' for Active; 'I' for Inactive)
ROOT
HETATM    1  O1  UNL     1      25.582   7.425  47.949  1.00  0.00    -0.268 OA
HETATM    2  C1  UNL     1      25.543   6.352  48.582  1.00  0.00     0.252 A 
HETATM    3  N1  UNL     1      26.472   5.582  49.301  1.00  0.00    -0.329 N 
HETATM    4  C2  UNL     1      25.974   4.406  49.868  1.00  0.00     0.006 A 
HETATM    5  C3  UNL     1      26.405   3.346  50.620  1.00  0.00     0.059 A 
HETATM    6  C4  UNL     1      25.607   2.307  51.010  1.00  0.00     0.019 A 
HETATM    7  C5  UNL     1      24.243   2.346  50.595  1.00  0.00    -0.030 A 
HETATM    8  C6  UNL     1      25.009   3.403  50.190  1.00  0.00     0.088 A 
HETATM    9  C7  UNL     1      24.617   4.477  49.444  1.00  0.00     0.027 A 
HETATM   10  C8  UNL     1      24.275   5.651  48.651  1.00  0.00     0.018 A 
HETATM   11  C9  UNL     1      23.009   5.627  48.273  1.00  0.00     0.016 C 
HETATM   12  C10 UNL     1      21.671   5.001  48.278  1.00  0.00     0.297 C 
HETATM   13  N2  UNL     1      21.557   3.846  49.135  1.00  0.00     0.086 N 
HETATM   14  C11 UNL     1      20.257   3.266  49.128  1.00  0.00     0.271 C 
HETATM   15  C12 UNL     1      20.250   2.054  50.070  1.00  0.00     0.049 C 
HETATM   16  C13 UNL     1      20.613   2.440  51.462  1.00  0.00     0.121 C 
HETATM   17  N3  UNL     1      20.575   1.289  52.364  1.00  0.00    -0.397 N 
HETATM   18  C14 UNL     1      21.154   0.034  52.735  1.00  0.00     0.107 C 
HETATM   19  C15 UNL     1      22.262  -0.285  53.436  1.00  0.00     0.159 C 
HETATM   20  O2  UNL     1      23.444  -0.476  54.184  1.00  0.00    -0.321 OA
HETATM   21  C16 UNL     1      24.668  -0.356  53.460  1.00  0.00     0.075 A 
HETATM   22  C17 UNL     1      25.761  -1.192  53.479  1.00  0.00     0.037 A 
HETATM   23  C18 UNL     1      26.836  -0.868  52.680  1.00  0.00     0.003 A 
HETATM   24  C19 UNL     1      26.863   0.247  51.868  1.00  0.00     0.008 A 
HETATM   25  C20 UNL     1      25.801   1.126  51.801  1.00  0.00    -0.042 A 
HETATM   26  C21 UNL     1      24.728   0.748  52.641  1.00  0.00     0.045 A 
HETATM   27  H1  UNL     1      27.460   5.863  49.409  1.00  0.00     0.168 HD
HETATM   28  H8  UNL     1      21.782   4.200  50.129  1.00  0.00     0.316 HD
HETATM   29  H15 UNL     1      19.824   1.303  53.118  1.00  0.00     0.158 HD
ENDROOT
TORSDOF 0
ENDMDL
MODEL 7
REMARK VINA RESULT:      -9.2      2.341      3.348
REMARK  0 active torsions:
REMARK  status: ('A' for Active; 'I' for Inactive)
ROOT
HETATM    1  O1  UNL     1      22.988  -1.633  55.771  1.00  0.00    -0.268 OA
HETATM    2  C1  UNL     1      22.224  -1.229  54.874  1.00  0.00     0.252 A 
HETATM    3  N1  UNL     1      20.861  -1.393  54.572  1.00  0.00    -0.329 N 
HETATM    4  C2  UNL     1      20.412  -0.736  53.424  1.00  0.00     0.006 A 
HETATM    5  C3  UNL     1      19.260  -0.562  52.705  1.00  0.00     0.059 A 
HETATM    6  C4  UNL     1      19.174   0.181  51.561  1.00  0.00     0.019 A 
HETATM    7  C5  UNL     1      20.372   0.803  51.102  1.00  0.00    -0.030 A 
HETATM    8  C6  UNL     1      20.494   0.073  52.250  1.00  0.00     0.088 A 
HETATM    9  C7  UNL     1      21.622  -0.120  52.996  1.00  0.00     0.027 A 
HETATM   10  C8  UNL     1      22.781  -0.376  53.842  1.00  0.00     0.018 A 
HETATM   11  C9  UNL     1      23.867   0.204  53.360  1.00  0.00     0.016 C 
HETATM   12  C10 UNL     1      24.539   1.064  52.365  1.00  0.00     0.297 C 
HETATM   13  N2  UNL     1      23.649   1.676  51.408  1.00  0.00     0.086 N 
HETATM   14  C11 UNL     1      24.320   2.504  50.465  1.00  0.00     0.271 C 
HETATM   15  C12 UNL     1      23.283   3.101  49.504  1.00  0.00     0.049 C 
HETATM   16  C13 UNL     1      22.260   3.904  50.232  1.00  0.00     0.121 C 
HETATM   17  N3  UNL     1      21.292   4.497  49.310  1.00  0.00    -0.397 N 
HETATM   18  C14 UNL     1      20.222   4.277  48.384  1.00  0.00     0.107 C 
HETATM   19  C15 UNL     1      18.911   4.014  48.555  1.00  0.00     0.159 C 
HETATM   20  O2  UNL     1      17.562   3.745  48.877  1.00  0.00    -0.321 OA
HETATM   21  C16 UNL     1      17.262   2.396  49.234  1.00  0.00     0.075 A 
HETATM   22  C17 UNL     1      16.227   1.602  48.793  1.00  0.00     0.037 A 
HETATM   23  C18 UNL     1      16.148   0.315  49.280  1.00  0.00     0.003 A 
HETATM   24  C19 UNL     1      17.052  -0.208  50.181  1.00  0.00     0.008 A 
HETATM   25  C20 UNL     1      18.112   0.533  50.663  1.00  0.00    -0.042 A 
HETATM   26  C21 UNL     1      18.145   1.844  50.134  1.00  0.00     0.045 A 
HETATM   27  H1  UNL     1      20.228  -1.961  55.158  1.00  0.00     0.168 HD
HETATM   28  H8  UNL     1      22.970   2.278  51.990  1.00  0.00     0.316 HD
HETATM   29  H15 UNL     1      21.302   5.559  49.230  1.00  0.00     0.158 HD
ENDROOT
TORSDOF 0
ENDMDL
MODEL 8
REMARK VINA RESULT:      -9.0      1.509      2.035
REMARK  0 active torsions:
REMARK  status: ('A' for Active; 'I' for Inactive)
ROOT
HETATM    1  O1  UNL     1      28.996   1.902  53.889  1.00  0.00    -0.268 OA
HETATM    2  C1  UNL     1      27.807   1.553  53.760  1.00  0.00     0.252 A 
HETATM    3  N1  UNL     1      26.912   0.763  54.501  1.00  0.00    -0.329 N 
HETATM    4  C2  UNL     1      25.629   0.636  53.962  1.00  0.00     0.006 A 
HETATM    5  C3  UNL     1      24.436   0.024  54.241  1.00  0.00     0.059 A 
HETATM    6  C4  UNL     1      23.326   0.109  53.448  1.00  0.00     0.019 A 
HETATM    7  C5  UNL     1      23.439   0.885  52.257  1.00  0.00    -0.030 A 
HETATM    8  C6  UNL     1      24.567   0.826  53.027  1.00  0.00     0.088 A 
HETATM    9  C7  UNL     1      25.771   1.423  52.785  1.00  0.00     0.027 A 
HETATM   10  C8  UNL     1      27.085   2.025  52.595  1.00  0.00     0.018 A 
HETATM   11  C9  UNL     1      27.142   2.712  51.468  1.00  0.00     0.016 C 
HETATM   12  C10 UNL     1      26.506   3.250  50.248  1.00  0.00     0.297 C 
HETATM   13  N2  UNL     1      25.088   2.997  50.155  1.00  0.00     0.086 N 
HETATM   14  C11 UNL     1      24.497   3.530  48.975  1.00  0.00     0.271 C 
HETATM   15  C12 UNL     1      22.997   3.206  48.982  1.00  0.00     0.049 C 
HETATM   16  C13 UNL     1      22.318   3.777  50.179  1.00  0.00     0.121 C 
HETATM   17  N3  UNL     1      20.884   3.493  50.167  1.00  0.00    -0.397 N 
HETATM   18  C14 UNL     1      19.853   2.503  50.258  1.00  0.00     0.107 C 
HETATM   19  C15 UNL     1      19.306   1.854  51.306  1.00  0.00     0.159 C 
HETATM   20  O2  UNL     1      18.823   1.251  52.488  1.00  0.00    -0.321 OA
HETATM   21  C16 UNL     1      19.614   0.184  53.013  1.00  0.00     0.075 A 
HETATM   22  C17 UNL     1      19.202  -1.053  53.454  1.00  0.00     0.037 A 
HETATM   23  C18 UNL     1      20.162  -1.927  53.916  1.00  0.00     0.003 A 
HETATM   24  C19 UNL     1      21.506  -1.619  53.955  1.00  0.00     0.008 A 
HETATM   25  C20 UNL     1      21.986  -0.398  53.528  1.00  0.00    -0.042 A 
HETATM   26  C21 UNL     1      20.961   0.460  53.067  1.00  0.00     0.045 A 
HETATM   27  H1  UNL     1      27.179   0.304  55.386  1.00  0.00     0.168 HD
HETATM   28  H8  UNL     1      24.652   3.474  51.018  1.00  0.00     0.316 HD
HETATM   29  H15 UNL     1      20.235   4.330  50.054  1.00  0.00     0.158 HD
ENDROOT
TORSDOF 0
ENDMDL
MODEL 9
REMARK VINA RESULT:      -8.9      2.381      3.819
REMARK  0 active torsions:
REMARK  status: ('A' for Active; 'I' for Inactive)
ROOT
HETATM    1  O1  UNL     1      22.229  -2.026  55.386  1.00  0.00    -0.268 OA
HETATM    2  C1  UNL     1      22.023  -1.270  54.417  1.00  0.00     0.252 A 
HETATM    3  N1  UNL     1      20.886  -0.821  53.724  1.00  0.00    -0.329 N 
HETATM    4  C2  UNL     1      21.131   0.050  52.659  1.00  0.00     0.006 A 
HETATM    5  C3  UNL     1      20.444   0.748  51.703  1.00  0.00     0.059 A 
HETATM    6  C4  UNL     1      21.034   1.542  50.759  1.00  0.00     0.019 A 
HETATM    7  C5  UNL     1      22.457   1.633  50.787  1.00  0.00    -0.030 A 
HETATM    8  C6  UNL     1      21.902   0.834  51.747  1.00  0.00     0.088 A 
HETATM    9  C7  UNL     1      22.551   0.127  52.718  1.00  0.00     0.027 A 
HETATM   10  C8  UNL     1      23.172  -0.657  53.779  1.00  0.00     0.018 A 
HETATM   11  C9  UNL     1      24.489  -0.556  53.746  1.00  0.00     0.016 C 
HETATM   12  C10 UNL     1      25.728   0.012  53.176  1.00  0.00     0.297 C 
HETATM   13  N2  UNL     1      25.511   1.013  52.159  1.00  0.00     0.086 N 
HETATM   14  C11 UNL     1      26.719   1.549  51.631  1.00  0.00     0.271 C 
HETATM   15  C12 UNL     1      26.372   2.599  50.567  1.00  0.00     0.049 C 
HETATM   16  C13 UNL     1      25.545   3.701  51.134  1.00  0.00     0.121 C 
HETATM   17  N3  UNL     1      25.242   4.716  50.125  1.00  0.00    -0.397 N 
HETATM   18  C14 UNL     1      24.548   5.038  48.915  1.00  0.00     0.107 C 
HETATM   19  C15 UNL     1      23.258   5.342  48.661  1.00  0.00     0.159 C 
HETATM   20  O2  UNL     1      21.885   5.644  48.535  1.00  0.00    -0.321 OA
HETATM   21  C16 UNL     1      20.998   4.526  48.507  1.00  0.00     0.075 A 
HETATM   22  C17 UNL     1      19.955   4.279  47.644  1.00  0.00     0.037 A 
HETATM   23  C18 UNL     1      19.239   3.114  47.812  1.00  0.00     0.003 A 
HETATM   24  C19 UNL     1      19.520   2.191  48.799  1.00  0.00     0.008 A 
HETATM   25  C20 UNL     1      20.552   2.376  49.697  1.00  0.00    -0.042 A 
HETATM   26  C21 UNL     1      21.251   3.587  49.481  1.00  0.00     0.045 A 
HETATM   27  H1  UNL     1      19.929  -1.110  53.982  1.00  0.00     0.168 HD
HETATM   28  H8  UNL     1      24.955   1.800  52.643  1.00  0.00     0.316 HD
HETATM   29  H15 UNL     1      25.677   5.676  50.273  1.00  0.00     0.158 HD
ENDROOT
TORSDOF 0
ENDMDL
