MODEL 1
REMARK VINA RESULT:      -7.9      0.000      0.000
REMARK  8 active torsions:
REMARK  status: ('A' for Active; 'I' for Inactive)
REMARK    1  A    between atoms: C2_2  and  C3_3 
REMARK    2  A    between atoms: C4_4  and  C5_5 
REMARK    3  A    between atoms: C6_6  and  C7_7 
REMARK    4  A    between atoms: C7_7  and  S1_8 
REMARK    5  A    between atoms: S1_8  and  C8_11 
REMARK    6  A    between atoms: C12_15  and  O3_16 
REMARK    7  A    between atoms: C15_19  and  O4_20 
REMARK    8  A    between atoms: C17_23  and  C18_24 
ROOT
HETATM    1  C8  UNL     1      21.964   0.817  52.126  1.00  0.00     0.178 C 
HETATM    2  C9  UNL     1      21.770   1.129  50.698  1.00  0.00     0.022 C 
HETATM    3  C10 UNL     1      22.292   1.824  49.671  1.00  0.00     0.002 C 
HETATM    4  C11 UNL     1      23.442   2.715  49.405  1.00  0.00     0.033 C 
HETATM    5  C12 UNL     1      24.459   3.119  50.205  1.00  0.00     0.057 C 
HETATM    6  C14 UNL     1      25.231   3.120  51.486  1.00  0.00     0.118 C 
HETATM    7  C15 UNL     1      24.987   2.370  52.600  1.00  0.00     0.083 C 
HETATM    8  C16 UNL     1      24.023   1.328  53.039  1.00  0.00     0.092 C 
HETATM    9  N1  UNL     1      22.973   1.810  52.558  1.00  0.00    -0.256 NA
HETATM   10  C17 UNL     1      24.223   0.064  53.694  1.00  0.00     0.003 C 
HETATM   11  C19 UNL     1      23.098  -0.671  53.765  1.00  0.00    -0.011 C 
HETATM   12  C20 UNL     1      22.315  -0.577  52.490  1.00  0.00     0.081 C 
ENDROOT
BRANCH   1  13
HETATM   13  S1  UNL     1      20.424   1.170  52.984  1.00  0.00     0.180 S 
HETATM   14  O1  UNL     1      20.520   0.682  54.399  1.00  0.00    -0.225 OA
HETATM   15  O2  UNL     1      20.183   2.651  52.978  1.00  0.00    -0.225 OA
BRANCH  13  16
HETATM   16  C7  UNL     1      19.060   0.379  52.197  1.00  0.00     0.170 C 
BRANCH  16  17
HETATM   17  C6  UNL     1      18.799  -0.918  52.847  1.00  0.00    -0.012 C 
HETATM   18  C5  UNL     1      17.717  -1.629  53.110  1.00  0.00    -0.003 C 
BRANCH  18  19
HETATM   19  C4  UNL     1      17.835  -2.911  53.790  1.00  0.00    -0.001 C 
HETATM   20  C3  UNL     1      16.884  -3.805  53.603  1.00  0.00    -0.004 C 
BRANCH  20  21
HETATM   21  C2  UNL     1      15.713  -3.623  52.766  1.00  0.00    -0.026 C 
HETATM   22  C1  UNL     1      15.250  -4.635  52.037  1.00  0.00     0.031 C 
ENDBRANCH  20  21
ENDBRANCH  18  19
ENDBRANCH  16  17
ENDBRANCH  13  16
ENDBRANCH   1  13
BRANCH   7  23
HETATM   23  O4  UNL     1      25.768   2.465  53.732  1.00  0.00    -0.362 OA
HETATM   24  H17 UNL     1      25.720   3.344  54.238  1.00  0.00     0.217 HD
ENDBRANCH   7  23
BRANCH  10  25
HETATM   25  C18 UNL     1      25.583  -0.125  54.144  1.00  0.00     0.432 C 
HETATM   26  O5  UNL     1      26.521  -0.207  54.972  1.00  0.00    -0.426 OA
ENDBRANCH  10  25
BRANCH   5  27
HETATM   27  O3  UNL     1      25.467   4.014  49.751  1.00  0.00    -0.359 OA
HETATM   28  C13 UNL     1      25.298   5.417  49.801  1.00  0.00     0.209 C 
ENDBRANCH   5  27
TORSDOF 8
ENDMDL
MODEL 2
REMARK VINA RESULT:      -7.6      1.866      3.023
REMARK  8 active torsions:
REMARK  status: ('A' for Active; 'I' for Inactive)
REMARK    1  A    between atoms: C2_2  and  C3_3 
REMARK    2  A    between atoms: C4_4  and  C5_5 
REMARK    3  A    between atoms: C6_6  and  C7_7 
REMARK    4  A    between atoms: C7_7  and  S1_8 
REMARK    5  A    between atoms: S1_8  and  C8_11 
REMARK    6  A    between atoms: C12_15  and  O3_16 
REMARK    7  A    between atoms: C15_19  and  O4_20 
REMARK    8  A    between atoms: C17_23  and  C18_24 
ROOT
HETATM    1  C8  UNL     1      22.021   0.549  52.363  1.00  0.00     0.178 C 
HETATM    2  C9  UNL     1      21.730   0.827  50.944  1.00  0.00     0.022 C 
HETATM    3  C10 UNL     1      22.149   1.541  49.883  1.00  0.00     0.002 C 
HETATM    4  C11 UNL     1      23.221   2.501  49.544  1.00  0.00     0.033 C 
HETATM    5  C12 UNL     1      24.251   2.982  50.283  1.00  0.00     0.057 C 
HETATM    6  C14 UNL     1      25.089   3.052  51.520  1.00  0.00     0.118 C 
HETATM    7  C15 UNL     1      24.955   2.303  52.654  1.00  0.00     0.083 C 
HETATM    8  C16 UNL     1      24.088   1.208  53.156  1.00  0.00     0.092 C 
HETATM    9  N1  UNL     1      22.984   1.613  52.727  1.00  0.00    -0.256 NA
HETATM   10  C17 UNL     1      24.406  -0.032  53.813  1.00  0.00     0.003 C 
HETATM   11  C19 UNL     1      23.337  -0.837  53.953  1.00  0.00    -0.011 C 
HETATM   12  C20 UNL     1      22.483  -0.813  52.722  1.00  0.00     0.081 C 
ENDROOT
BRANCH   1  13
HETATM   13  S1  UNL     1      20.509   0.813  53.300  1.00  0.00     0.180 S 
HETATM   14  O1  UNL     1      20.812   0.725  54.766  1.00  0.00    -0.225 OA
HETATM   15  O2  UNL     1      19.961   2.173  52.981  1.00  0.00    -0.225 OA
BRANCH  13  16
HETATM   16  C7  UNL     1      19.289  -0.391  52.893  1.00  0.00     0.170 C 
BRANCH  16  17
HETATM   17  C6  UNL     1      18.317   0.191  51.949  1.00  0.00    -0.012 C 
HETATM   18  C5  UNL     1      18.133   0.130  50.642  1.00  0.00    -0.003 C 
BRANCH  18  19
HETATM   19  C4  UNL     1      17.033   0.857  50.026  1.00  0.00    -0.001 C 
HETATM   20  C3  UNL     1      17.317   1.933  49.318  1.00  0.00    -0.004 C 
BRANCH  20  21
HETATM   21  C2  UNL     1      18.649   2.464  49.094  1.00  0.00    -0.026 C 
HETATM   22  C1  UNL     1      19.022   3.598  49.680  1.00  0.00     0.031 C 
ENDBRANCH  20  21
ENDBRANCH  18  19
ENDBRANCH  16  17
ENDBRANCH  13  16
ENDBRANCH   1  13
BRANCH   7  23
HETATM   23  O4  UNL     1      25.789   2.466  53.740  1.00  0.00    -0.362 OA
HETATM   24  H17 UNL     1      26.542   1.792  53.833  1.00  0.00     0.217 HD
ENDBRANCH   7  23
BRANCH  10  25
HETATM   25  C18 UNL     1      25.798  -0.124  54.190  1.00  0.00     0.432 C 
HETATM   26  O5  UNL     1      26.783  -0.136  54.966  1.00  0.00    -0.426 OA
ENDBRANCH  10  25
BRANCH   5  27
HETATM   27  O3  UNL     1      25.172   3.934  49.764  1.00  0.00    -0.359 OA
HETATM   28  C13 UNL     1      26.532   3.615  49.545  1.00  0.00     0.209 C 
ENDBRANCH   5  27
TORSDOF 8
ENDMDL
MODEL 3
REMARK VINA RESULT:      -7.6      3.163      5.931
REMARK  8 active torsions:
REMARK  status: ('A' for Active; 'I' for Inactive)
REMARK    1  A    between atoms: C2_2  and  C3_3 
REMARK    2  A    between atoms: C4_4  and  C5_5 
REMARK    3  A    between atoms: C6_6  and  C7_7 
REMARK    4  A    between atoms: C7_7  and  S1_8 
REMARK    5  A    between atoms: S1_8  and  C8_11 
REMARK    6  A    between atoms: C12_15  and  O3_16 
REMARK    7  A    between atoms: C15_19  and  O4_20 
REMARK    8  A    between atoms: C17_23  and  C18_24 
ROOT
HETATM    1  C8  UNL     1      23.976   1.879  52.008  1.00  0.00     0.178 C 
HETATM    2  C9  UNL     1      25.265   1.880  51.292  1.00  0.00     0.022 C 
HETATM    3  C10 UNL     1      26.515   1.381  51.331  1.00  0.00     0.002 C 
HETATM    4  C11 UNL     1      27.325   0.482  52.180  1.00  0.00     0.033 C 
HETATM    5  C12 UNL     1      27.002  -0.223  53.292  1.00  0.00     0.057 C 
HETATM    6  C14 UNL     1      26.044  -0.715  54.329  1.00  0.00     0.118 C 
HETATM    7  C15 UNL     1      24.701  -0.477  54.395  1.00  0.00     0.083 C 
HETATM    8  C16 UNL     1      23.668   0.237  53.604  1.00  0.00     0.092 C 
HETATM    9  N1  UNL     1      24.313   1.269  53.315  1.00  0.00    -0.256 NA
HETATM   10  C17 UNL     1      22.360  -0.168  53.162  1.00  0.00     0.003 C 
HETATM   11  C19 UNL     1      21.801   0.713  52.312  1.00  0.00    -0.011 C 
HETATM   12  C20 UNL     1      22.815   1.242  51.343  1.00  0.00     0.081 C 
ENDROOT
BRANCH   1  13
HETATM   13  S1  UNL     1      23.498   3.588  52.290  1.00  0.00     0.180 S 
HETATM   14  O1  UNL     1      22.006   3.709  52.198  1.00  0.00    -0.225 OA
HETATM   15  O2  UNL     1      23.951   4.009  53.658  1.00  0.00    -0.225 OA
BRANCH  13  16
HETATM   16  C7  UNL     1      24.235   4.660  51.103  1.00  0.00     0.170 C 
BRANCH  16  17
HETATM   17  C6  UNL     1      23.419   4.671  49.874  1.00  0.00    -0.012 C 
HETATM   18  C5  UNL     1      23.383   3.943  48.772  1.00  0.00    -0.003 C 
BRANCH  18  19
HETATM   19  C4  UNL     1      22.412   4.247  47.730  1.00  0.00    -0.001 C 
HETATM   20  C3  UNL     1      21.478   3.353  47.469  1.00  0.00    -0.004 C 
BRANCH  20  21
HETATM   21  C2  UNL     1      21.330   2.074  48.139  1.00  0.00    -0.026 C 
HETATM   22  C1  UNL     1      20.255   1.832  48.883  1.00  0.00     0.031 C 
ENDBRANCH  20  21
ENDBRANCH  18  19
ENDBRANCH  16  17
ENDBRANCH  13  16
ENDBRANCH   1  13
BRANCH   7  23
HETATM   23  O4  UNL     1      23.918  -0.981  55.413  1.00  0.00    -0.362 OA
HETATM   24  H17 UNL     1      23.450  -0.298  55.999  1.00  0.00     0.217 HD
ENDBRANCH   7  23
BRANCH  10  25
HETATM   25  C18 UNL     1      21.936  -1.421  53.743  1.00  0.00     0.432 C 
HETATM   26  O5  UNL     1      21.559  -2.201  54.649  1.00  0.00    -0.426 OA
ENDBRANCH  10  25
BRANCH   5  27
HETATM   27  O3  UNL     1      27.955  -1.022  53.982  1.00  0.00    -0.359 OA
HETATM   28  C13 UNL     1      29.347  -0.805  53.851  1.00  0.00     0.209 C 
ENDBRANCH   5  27
TORSDOF 8
ENDMDL
MODEL 4
REMARK VINA RESULT:      -7.5      2.263      6.989
REMARK  8 active torsions:
REMARK  status: ('A' for Active; 'I' for Inactive)
REMARK    1  A    between atoms: C2_2  and  C3_3 
REMARK    2  A    between atoms: C4_4  and  C5_5 
REMARK    3  A    between atoms: C6_6  and  C7_7 
REMARK    4  A    between atoms: C7_7  and  S1_8 
REMARK    5  A    between atoms: S1_8  and  C8_11 
REMARK    6  A    between atoms: C12_15  and  O3_16 
REMARK    7  A    between atoms: C15_19  and  O4_20 
REMARK    8  A    between atoms: C17_23  and  C18_24 
ROOT
HETATM    1  C8  UNL     1      21.319   2.016  51.384  1.00  0.00     0.178 C 
HETATM    2  C9  UNL     1      22.731   1.966  50.962  1.00  0.00     0.022 C 
HETATM    3  C10 UNL     1      23.939   1.488  51.311  1.00  0.00     0.002 C 
HETATM    4  C11 UNL     1      24.542   0.679  52.392  1.00  0.00     0.033 C 
HETATM    5  C12 UNL     1      23.984   0.073  53.468  1.00  0.00     0.057 C 
HETATM    6  C14 UNL     1      22.822  -0.333  54.318  1.00  0.00     0.118 C 
HETATM    7  C15 UNL     1      21.498  -0.106  54.075  1.00  0.00     0.083 C 
HETATM    8  C16 UNL     1      20.663   0.523  53.020  1.00  0.00     0.092 C 
HETATM    9  N1  UNL     1      21.365   1.531  52.782  1.00  0.00    -0.256 NA
HETATM   10  C17 UNL     1      19.477   0.065  52.348  1.00  0.00     0.003 C 
HETATM   11  C19 UNL     1      19.119   0.859  51.322  1.00  0.00    -0.011 C 
HETATM   12  C20 UNL     1      20.320   1.308  50.547  1.00  0.00     0.081 C 
ENDROOT
BRANCH   1  13
HETATM   13  S1  UNL     1      20.806   3.739  51.401  1.00  0.00     0.180 S 
HETATM   14  O1  UNL     1      19.501   3.861  52.131  1.00  0.00    -0.225 OA
HETATM   15  O2  UNL     1      21.851   4.559  52.100  1.00  0.00    -0.225 OA
BRANCH  13  16
HETATM   16  C7  UNL     1      20.609   4.361  49.765  1.00  0.00     0.170 C 
BRANCH  16  17
HETATM   17  C6  UNL     1      21.828   5.087  49.363  1.00  0.00    -0.012 C 
HETATM   18  C5  UNL     1      22.920   4.775  48.688  1.00  0.00    -0.003 C 
BRANCH  18  19
HETATM   19  C4  UNL     1      23.954   5.777  48.473  1.00  0.00    -0.001 C 
HETATM   20  C3  UNL     1      25.139   5.575  49.017  1.00  0.00    -0.004 C 
BRANCH  20  21
HETATM   21  C2  UNL     1      25.508   4.427  49.823  1.00  0.00    -0.026 C 
HETATM   22  C1  UNL     1      26.524   3.652  49.453  1.00  0.00     0.031 C 
ENDBRANCH  20  21
ENDBRANCH  18  19
ENDBRANCH  16  17
ENDBRANCH  13  16
ENDBRANCH   1  13
BRANCH   7  23
HETATM   23  O4  UNL     1      20.512  -0.524  54.944  1.00  0.00    -0.362 OA
HETATM   24  H17 UNL     1      20.536  -1.502  55.212  1.00  0.00     0.217 HD
ENDBRANCH   7  23
BRANCH  10  25
HETATM   25  C18 UNL     1      18.928  -1.135  52.937  1.00  0.00     0.432 C 
HETATM   26  O5  UNL     1      18.085  -1.839  53.543  1.00  0.00    -0.426 OA
ENDBRANCH  10  25
BRANCH   5  27
HETATM   27  O3  UNL     1      24.761  -0.649  54.416  1.00  0.00    -0.359 OA
HETATM   28  C13 UNL     1      26.008  -0.169  54.880  1.00  0.00     0.209 C 
ENDBRANCH   5  27
TORSDOF 8
ENDMDL
MODEL 5
REMARK VINA RESULT:      -7.5      5.359      7.198
REMARK  8 active torsions:
REMARK  status: ('A' for Active; 'I' for Inactive)
REMARK    1  A    between atoms: C2_2  and  C3_3 
REMARK    2  A    between atoms: C4_4  and  C5_5 
REMARK    3  A    between atoms: C6_6  and  C7_7 
REMARK    4  A    between atoms: C7_7  and  S1_8 
REMARK    5  A    between atoms: S1_8  and  C8_11 
REMARK    6  A    between atoms: C12_15  and  O3_16 
REMARK    7  A    between atoms: C15_19  and  O4_20 
REMARK    8  A    between atoms: C17_23  and  C18_24 
ROOT
HETATM    1  C8  UNL     1      23.800   3.935  50.234  1.00  0.00     0.178 C 
HETATM    2  C9  UNL     1      22.441   4.352  49.842  1.00  0.00     0.022 C 
HETATM    3  C10 UNL     1      21.700   5.428  49.518  1.00  0.00     0.002 C 
HETATM    4  C11 UNL     1      21.873   6.888  49.360  1.00  0.00     0.033 C 
HETATM    5  C12 UNL     1      22.973   7.672  49.475  1.00  0.00     0.057 C 
HETATM    6  C14 UNL     1      24.436   7.896  49.690  1.00  0.00     0.118 C 
HETATM    7  C15 UNL     1      25.402   6.947  49.870  1.00  0.00     0.083 C 
HETATM    8  C16 UNL     1      25.498   5.466  49.909  1.00  0.00     0.092 C 
HETATM    9  N1  UNL     1      24.465   5.215  50.569  1.00  0.00    -0.256 NA
HETATM   10  C17 UNL     1      26.411   4.555  49.271  1.00  0.00     0.003 C 
HETATM   11  C19 UNL     1      26.053   3.267  49.424  1.00  0.00    -0.011 C 
HETATM   12  C20 UNL     1      24.571   3.101  49.282  1.00  0.00     0.081 C 
ENDROOT
BRANCH   1  13
HETATM   13  S1  UNL     1      23.666   2.959  51.738  1.00  0.00     0.180 S 
HETATM   14  O1  UNL     1      22.725   3.638  52.688  1.00  0.00    -0.225 OA
HETATM   15  O2  UNL     1      23.140   1.596  51.398  1.00  0.00    -0.225 OA
BRANCH  13  16
HETATM   16  C7  UNL     1      25.235   2.774  52.519  1.00  0.00     0.170 C 
BRANCH  16  17
HETATM   17  C6  UNL     1      25.633   1.355  52.495  1.00  0.00    -0.012 C 
HETATM   18  C5  UNL     1      26.706   0.693  52.098  1.00  0.00    -0.003 C 
BRANCH  18  19
HETATM   19  C4  UNL     1      26.757  -0.756  52.228  1.00  0.00    -0.001 C 
HETATM   20  C3  UNL     1      27.668  -1.277  53.028  1.00  0.00    -0.004 C 
BRANCH  20  21
HETATM   21  C2  UNL     1      28.637  -0.523  53.801  1.00  0.00    -0.026 C 
HETATM   22  C1  UNL     1      29.931  -0.599  53.504  1.00  0.00     0.031 C 
ENDBRANCH  20  21
ENDBRANCH  18  19
ENDBRANCH  16  17
ENDBRANCH  13  16
ENDBRANCH   1  13
BRANCH   7  23
HETATM   23  O4  UNL     1      26.725   7.280  50.070  1.00  0.00    -0.362 OA
HETATM   24  H17 UNL     1      27.397   6.527  49.966  1.00  0.00     0.217 HD
ENDBRANCH   7  23
BRANCH  10  25
HETATM   25  C18 UNL     1      27.514   5.229  48.625  1.00  0.00     0.432 C 
HETATM   26  O5  UNL     1      28.602   5.847  48.553  1.00  0.00    -0.426 OA
ENDBRANCH  10  25
BRANCH   5  27
HETATM   27  O3  UNL     1      22.917   9.082  49.304  1.00  0.00    -0.359 OA
HETATM   28  C13 UNL     1      21.890   9.703  48.554  1.00  0.00     0.209 C 
ENDBRANCH   5  27
TORSDOF 8
ENDMDL
MODEL 6
REMARK VINA RESULT:      -7.5      2.587      8.135
REMARK  8 active torsions:
REMARK  status: ('A' for Active; 'I' for Inactive)
REMARK    1  A    between atoms: C2_2  and  C3_3 
REMARK    2  A    between atoms: C4_4  and  C5_5 
REMARK    3  A    between atoms: C6_6  and  C7_7 
REMARK    4  A    between atoms: C7_7  and  S1_8 
REMARK    5  A    between atoms: S1_8  and  C8_11 
REMARK    6  A    between atoms: C12_15  and  O3_16 
REMARK    7  A    between atoms: C15_19  and  O4_20 
REMARK    8  A    between atoms: C17_23  and  C18_24 
ROOT
HETATM    1  C8  UNL     1      22.685   2.101  51.366  1.00  0.00     0.178 C 
HETATM    2  C9  UNL     1      24.065   1.614  51.550  1.00  0.00     0.022 C 
HETATM    3  C10 UNL     1      24.825   0.806  52.311  1.00  0.00     0.002 C 
HETATM    4  C11 UNL     1      24.666  -0.110  53.461  1.00  0.00     0.033 C 
HETATM    5  C12 UNL     1      23.563  -0.481  54.157  1.00  0.00     0.057 C 
HETATM    6  C14 UNL     1      22.091  -0.489  54.420  1.00  0.00     0.118 C 
HETATM    7  C15 UNL     1      21.114   0.118  53.685  1.00  0.00     0.083 C 
HETATM    8  C16 UNL     1      21.012   0.931  52.447  1.00  0.00     0.092 C 
HETATM    9  N1  UNL     1      22.006   1.673  52.611  1.00  0.00    -0.256 NA
HETATM   10  C17 UNL     1      20.134   0.829  51.312  1.00  0.00     0.003 C 
HETATM   11  C19 UNL     1      20.478   1.658  50.309  1.00  0.00    -0.011 C 
HETATM   12  C20 UNL     1      21.966   1.698  50.134  1.00  0.00     0.081 C 
ENDROOT
BRANCH   1  13
HETATM   13  S1  UNL     1      22.731   3.897  51.338  1.00  0.00     0.180 S 
HETATM   14  O1  UNL     1      21.386   4.435  51.729  1.00  0.00    -0.225 OA
HETATM   15  O2  UNL     1      23.766   4.381  52.311  1.00  0.00    -0.225 OA
BRANCH  13  16
HETATM   16  C7  UNL     1      23.146   4.499  49.735  1.00  0.00     0.170 C 
BRANCH  16  17
HETATM   17  C6  UNL     1      24.559   4.194  49.444  1.00  0.00    -0.012 C 
HETATM   18  C5  UNL     1      25.686   4.883  49.466  1.00  0.00    -0.003 C 
BRANCH  18  19
HETATM   19  C4  UNL     1      26.941   4.239  49.106  1.00  0.00    -0.001 C 
HETATM   20  C3  UNL     1      27.894   4.983  48.578  1.00  0.00    -0.004 C 
BRANCH  20  21
HETATM   21  C2  UNL     1      27.802   6.408  48.322  1.00  0.00    -0.026 C 
HETATM   22  C1  UNL     1      28.623   6.982  47.447  1.00  0.00     0.031 C 
ENDBRANCH  20  21
ENDBRANCH  18  19
ENDBRANCH  16  17
ENDBRANCH  13  16
ENDBRANCH   1  13
BRANCH   7  23
HETATM   23  O4  UNL     1      19.782   0.046  54.036  1.00  0.00    -0.362 OA
HETATM   24  H17 UNL     1      19.127   0.497  53.406  1.00  0.00     0.217 HD
ENDBRANCH   7  23
BRANCH  10  25
HETATM   25  C18 UNL     1      19.070  -0.129  51.511  1.00  0.00     0.432 C 
HETATM   26  O5  UNL     1      18.008  -0.586  51.996  1.00  0.00    -0.426 OA
ENDBRANCH  10  25
BRANCH   5  27
HETATM   27  O3  UNL     1      23.633  -1.371  55.264  1.00  0.00    -0.359 OA
HETATM   28  C13 UNL     1      24.722  -1.354  56.167  1.00  0.00     0.209 C 
ENDBRANCH   5  27
TORSDOF 8
ENDMDL
MODEL 7
REMARK VINA RESULT:      -7.4      2.989      7.547
REMARK  8 active torsions:
REMARK  status: ('A' for Active; 'I' for Inactive)
REMARK    1  A    between atoms: C2_2  and  C3_3 
REMARK    2  A    between atoms: C4_4  and  C5_5 
REMARK    3  A    between atoms: C6_6  and  C7_7 
REMARK    4  A    between atoms: C7_7  and  S1_8 
REMARK    5  A    between atoms: S1_8  and  C8_11 
REMARK    6  A    between atoms: C12_15  and  O3_16 
REMARK    7  A    between atoms: C15_19  and  O4_20 
REMARK    8  A    between atoms: C17_23  and  C18_24 
ROOT
HETATM    1  C8  UNL     1      23.604   1.764  51.857  1.00  0.00     0.178 C 
HETATM    2  C9  UNL     1      24.932   1.838  51.219  1.00  0.00     0.022 C 
HETATM    3  C10 UNL     1      26.213   1.452  51.359  1.00  0.00     0.002 C 
HETATM    4  C11 UNL     1      27.040   0.673  52.306  1.00  0.00     0.033 C 
HETATM    5  C12 UNL     1      26.707   0.002  53.436  1.00  0.00     0.057 C 
HETATM    6  C14 UNL     1      25.729  -0.514  54.443  1.00  0.00     0.118 C 
HETATM    7  C15 UNL     1      24.369  -0.390  54.416  1.00  0.00     0.083 C 
HETATM    8  C16 UNL     1      23.333   0.190  53.525  1.00  0.00     0.092 C 
HETATM    9  N1  UNL     1      23.908   1.256  53.214  1.00  0.00    -0.256 NA
HETATM   10  C17 UNL     1      22.094  -0.350  53.031  1.00  0.00     0.003 C 
HETATM   11  C19 UNL     1      21.518   0.433  52.100  1.00  0.00    -0.011 C 
HETATM   12  C20 UNL     1      22.544   0.994  51.163  1.00  0.00     0.081 C 
ENDROOT
BRANCH   1  13
HETATM   13  S1  UNL     1      22.970   3.439  52.010  1.00  0.00     0.180 S 
HETATM   14  O1  UNL     1      21.571   3.392  52.550  1.00  0.00    -0.225 OA
HETATM   15  O2  UNL     1      23.845   4.215  52.950  1.00  0.00    -0.225 OA
BRANCH  13  16
HETATM   16  C7  UNL     1      22.956   4.260  50.452  1.00  0.00     0.170 C 
BRANCH  16  17
HETATM   17  C6  UNL     1      23.919   5.377  50.474  1.00  0.00    -0.012 C 
HETATM   18  C5  UNL     1      24.883   5.794  49.672  1.00  0.00    -0.003 C 
BRANCH  18  19
HETATM   19  C4  UNL     1      25.659   6.975  50.020  1.00  0.00    -0.001 C 
HETATM   20  C3  UNL     1      26.745   7.236  49.318  1.00  0.00    -0.004 C 
BRANCH  20  21
HETATM   21  C2  UNL     1      27.241   6.439  48.211  1.00  0.00    -0.026 C 
HETATM   22  C1  UNL     1      28.333   5.696  48.362  1.00  0.00     0.031 C 
ENDBRANCH  20  21
ENDBRANCH  18  19
ENDBRANCH  16  17
ENDBRANCH  13  16
ENDBRANCH   1  13
BRANCH   7  23
HETATM   23  O4  UNL     1      23.568  -0.904  55.414  1.00  0.00    -0.362 OA
HETATM   24  H17 UNL     1      23.719  -1.879  55.653  1.00  0.00     0.217 HD
ENDBRANCH   7  23
BRANCH  10  25
HETATM   25  C18 UNL     1      21.739  -1.602  53.659  1.00  0.00     0.432 C 
HETATM   26  O5  UNL     1      21.406  -2.367  54.595  1.00  0.00    -0.426 OA
ENDBRANCH  10  25
BRANCH   5  27
HETATM   27  O3  UNL     1      27.677  -0.674  54.227  1.00  0.00    -0.359 OA
HETATM   28  C13 UNL     1      29.065  -0.496  54.019  1.00  0.00     0.209 C 
ENDBRANCH   5  27
TORSDOF 8
ENDMDL
MODEL 8
REMARK VINA RESULT:      -7.3      2.850      5.298
REMARK  8 active torsions:
REMARK  status: ('A' for Active; 'I' for Inactive)
REMARK    1  A    between atoms: C2_2  and  C3_3 
REMARK    2  A    between atoms: C4_4  and  C5_5 
REMARK    3  A    between atoms: C6_6  and  C7_7 
REMARK    4  A    between atoms: C7_7  and  S1_8 
REMARK    5  A    between atoms: S1_8  and  C8_11 
REMARK    6  A    between atoms: C12_15  and  O3_16 
REMARK    7  A    between atoms: C15_19  and  O4_20 
REMARK    8  A    between atoms: C17_23  and  C18_24 
ROOT
HETATM    1  C8  UNL     1      23.021   3.821  50.277  1.00  0.00     0.178 C 
HETATM    2  C9  UNL     1      22.754   3.297  51.630  1.00  0.00     0.022 C 
HETATM    3  C10 UNL     1      23.329   2.666  52.669  1.00  0.00     0.002 C 
HETATM    4  C11 UNL     1      24.653   2.123  53.043  1.00  0.00     0.033 C 
HETATM    5  C12 UNL     1      25.837   2.131  52.384  1.00  0.00     0.057 C 
HETATM    6  C14 UNL     1      26.727   2.508  51.242  1.00  0.00     0.118 C 
HETATM    7  C15 UNL     1      26.408   3.283  50.164  1.00  0.00     0.083 C 
HETATM    8  C16 UNL     1      25.236   4.043  49.661  1.00  0.00     0.092 C 
HETATM    9  N1  UNL     1      24.332   3.223  49.934  1.00  0.00    -0.256 NA
HETATM   10  C17 UNL     1      25.122   5.381  49.144  1.00  0.00     0.003 C 
HETATM   11  C19 UNL     1      23.844   5.759  48.955  1.00  0.00    -0.011 C 
HETATM   12  C20 UNL     1      22.974   5.289  50.081  1.00  0.00     0.081 C 
ENDROOT
BRANCH   1  13
HETATM   13  S1  UNL     1      21.784   3.140  49.165  1.00  0.00     0.180 S 
HETATM   14  O1  UNL     1      20.438   3.703  49.516  1.00  0.00    -0.225 OA
HETATM   15  O2  UNL     1      22.130   3.512  47.753  1.00  0.00    -0.225 OA
BRANCH  13  16
HETATM   16  C7  UNL     1      21.719   1.384  49.282  1.00  0.00     0.170 C 
BRANCH  16  17
HETATM   17  C6  UNL     1      20.758   0.994  50.330  1.00  0.00    -0.012 C 
HETATM   18  C5  UNL     1      20.799   0.199  51.385  1.00  0.00    -0.003 C 
BRANCH  18  19
HETATM   19  C4  UNL     1      19.622   0.046  52.228  1.00  0.00    -0.001 C 
HETATM   20  C3  UNL     1      19.763  -0.562  53.390  1.00  0.00    -0.004 C 
BRANCH  20  21
HETATM   21  C2  UNL     1      21.006  -1.102  53.910  1.00  0.00    -0.026 C 
HETATM   22  C1  UNL     1      21.605  -0.517  54.943  1.00  0.00     0.031 C 
ENDBRANCH  20  21
ENDBRANCH  18  19
ENDBRANCH  16  17
ENDBRANCH  13  16
ENDBRANCH   1  13
BRANCH   7  23
HETATM   23  O4  UNL     1      27.318   3.555  49.164  1.00  0.00    -0.362 OA
HETATM   24  H17 UNL     1      28.263   3.216  49.313  1.00  0.00     0.217 HD
ENDBRANCH   7  23
BRANCH  10  25
HETATM   25  C18 UNL     1      26.405   6.009  48.927  1.00  0.00     0.432 C 
HETATM   26  O5  UNL     1      27.416   6.370  48.279  1.00  0.00    -0.426 OA
ENDBRANCH  10  25
BRANCH   5  27
HETATM   27  O3  UNL     1      27.004   1.521  52.920  1.00  0.00    -0.359 OA
HETATM   28  C13 UNL     1      26.978   0.799  54.137  1.00  0.00     0.209 C 
ENDBRANCH   5  27
TORSDOF 8
ENDMDL
MODEL 9
REMARK VINA RESULT:      -7.3      2.533      8.389
REMARK  8 active torsions:
REMARK  status: ('A' for Active; 'I' for Inactive)
REMARK    1  A    between atoms: C2_2  and  C3_3 
REMARK    2  A    between atoms: C4_4  and  C5_5 
REMARK    3  A    between atoms: C6_6  and  C7_7 
REMARK    4  A    between atoms: C7_7  and  S1_8 
REMARK    5  A    between atoms: S1_8  and  C8_11 
REMARK    6  A    between atoms: C12_15  and  O3_16 
REMARK    7  A    between atoms: C15_19  and  O4_20 
REMARK    8  A    between atoms: C17_23  and  C18_24 
ROOT
HETATM    1  C8  UNL     1      23.496   2.811  51.998  1.00  0.00     0.178 C 
HETATM    2  C9  UNL     1      22.117   3.293  52.200  1.00  0.00     0.022 C 
HETATM    3  C10 UNL     1      20.878   2.890  52.533  1.00  0.00     0.002 C 
HETATM    4  C11 UNL     1      20.181   1.642  52.917  1.00  0.00     0.033 C 
HETATM    5  C12 UNL     1      20.649   0.384  53.104  1.00  0.00     0.057 C 
HETATM    6  C14 UNL     1      21.738  -0.638  53.181  1.00  0.00     0.118 C 
HETATM    7  C15 UNL     1      23.080  -0.430  53.046  1.00  0.00     0.083 C 
HETATM    8  C16 UNL     1      24.002   0.713  52.822  1.00  0.00     0.092 C 
HETATM    9  N1  UNL     1      23.340   1.339  51.964  1.00  0.00    -0.256 NA
HETATM   10  C17 UNL     1      25.223   1.092  53.479  1.00  0.00     0.003 C 
HETATM   11  C19 UNL     1      25.671   2.301  53.092  1.00  0.00    -0.011 C 
HETATM   12  C20 UNL     1      24.537   3.271  52.948  1.00  0.00     0.081 C 
ENDROOT
BRANCH   1  13
HETATM   13  S1  UNL     1      24.042   3.358  50.375  1.00  0.00     0.180 S 
HETATM   14  O1  UNL     1      23.375   2.525  49.320  1.00  0.00    -0.225 OA
HETATM   15  O2  UNL     1      23.668   4.799  50.187  1.00  0.00    -0.225 OA
BRANCH  13  16
HETATM   16  C7  UNL     1      25.789   3.207  50.206  1.00  0.00     0.170 C 
BRANCH  16  17
HETATM   17  C6  UNL     1      26.341   4.458  49.655  1.00  0.00    -0.012 C 
HETATM   18  C5  UNL     1      27.214   4.756  48.708  1.00  0.00    -0.003 C 
BRANCH  18  19
HETATM   19  C4  UNL     1      27.531   6.148  48.422  1.00  0.00    -0.001 C 
HETATM   20  C3  UNL     1      28.783   6.456  48.140  1.00  0.00    -0.004 C 
BRANCH  20  21
HETATM   21  C2  UNL     1      29.888   5.517  48.089  1.00  0.00    -0.026 C 
HETATM   22  C1  UNL     1      31.034   5.867  47.514  1.00  0.00     0.031 C 
ENDBRANCH  20  21
ENDBRANCH  18  19
ENDBRANCH  16  17
ENDBRANCH  13  16
ENDBRANCH   1  13
BRANCH   7  23
HETATM   23  O4  UNL     1      23.992  -1.461  53.128  1.00  0.00    -0.362 OA
HETATM   24  H17 UNL     1      23.760  -2.216  53.766  1.00  0.00     0.217 HD
ENDBRANCH   7  23
BRANCH  10  25
HETATM   25  C18 UNL     1      25.704   0.082  54.394  1.00  0.00     0.432 C 
HETATM   26  O5  UNL     1      25.727  -0.602  55.444  1.00  0.00    -0.426 OA
ENDBRANCH  10  25
BRANCH   5  27
HETATM   27  O3  UNL     1      19.791  -0.695  53.454  1.00  0.00    -0.359 OA
HETATM   28  C13 UNL     1      18.496  -0.830  52.901  1.00  0.00     0.209 C 
ENDBRANCH   5  27
TORSDOF 8
ENDMDL
