MODEL 1
REMARK VINA RESULT:      -8.1      0.000      0.000
REMARK  1 active torsions:
REMARK  status: ('A' for Active; 'I' for Inactive)
REMARK    1  A    between atoms: C2_2  and  C3_3 
ROOT
HETATM    1  C3  UNL     1      21.283   0.987  52.997  1.00  0.00    -0.012 C 
HETATM    2  C4  UNL     1      21.351  -0.213  53.589  1.00  0.00     0.012 C 
HETATM    3  C5  UNL     1      21.940  -1.459  54.411  1.00  0.00     0.151 C 
HETATM    4  N1  UNL     1      23.222  -0.997  54.925  1.00  0.00    -0.354 N 
HETATM    5  C6  UNL     1      24.114  -0.549  54.016  1.00  0.00     0.248 C 
HETATM    6  O1  UNL     1      23.751  -0.690  52.919  1.00  0.00    -0.268 OA
HETATM    7  C7  UNL     1      25.298   0.036  53.747  1.00  0.00     0.018 A 
HETATM    8  C8  UNL     1      26.333   0.257  54.490  1.00  0.00     0.029 A 
HETATM    9  C9  UNL     1      27.096   1.121  53.631  1.00  0.00     0.205 A 
HETATM   10  C10 UNL     1      28.212   1.844  53.481  1.00  0.00     0.212 A 
HETATM   11  C11 UNL     1      29.407   2.125  54.312  1.00  0.00     0.054 C 
HETATM   12  C12 UNL     1      27.073   1.513  52.808  1.00  0.00     0.230 A 
HETATM   13  C13 UNL     1      25.870   0.856  52.723  1.00  0.00     0.113 A 
HETATM   14  C14 UNL     1      26.392   2.268  51.735  1.00  0.00     0.156 A 
HETATM   15  N2  UNL     1      27.243   2.107  52.507  1.00  0.00     0.008 N 
HETATM   16  C15 UNL     1      25.348   2.714  50.749  1.00  0.00     0.213 C 
HETATM   17  N3  UNL     1      24.040   2.179  51.228  1.00  0.00    -0.284 NA
HETATM   18  C16 UNL     1      23.358   2.699  52.220  1.00  0.00     0.174 C 
HETATM   19  N4  UNL     1      22.059   2.202  52.742  1.00  0.00    -0.258 NA
HETATM   20  H9  UNL     1      23.748  -0.999  55.774  1.00  0.00     0.163 HD
HETATM   21  H18 UNL     1      22.459   1.297  52.463  1.00  0.00     0.134 HD
ENDROOT
BRANCH   1  22
HETATM   22  C2  UNL     1      19.910   1.135  52.392  1.00  0.00     0.046 C 
HETATM   23  C1  UNL     1      19.171  -0.147  52.299  1.00  0.00     0.011 C 
ENDBRANCH   1  22
TORSDOF 1
ENDMDL
MODEL 2
REMARK VINA RESULT:      -7.9      2.030      5.817
REMARK  1 active torsions:
REMARK  status: ('A' for Active; 'I' for Inactive)
REMARK    1  A    between atoms: C2_2  and  C3_3 
ROOT
HETATM    1  C3  UNL     1      25.187   3.377  50.100  1.00  0.00    -0.012 C 
HETATM    2  C4  UNL     1      26.152   2.775  50.809  1.00  0.00     0.012 C 
HETATM    3  C5  UNL     1      26.879   1.729  51.784  1.00  0.00     0.151 C 
HETATM    4  N1  UNL     1      25.881   0.700  52.042  1.00  0.00    -0.354 N 
HETATM    5  C6  UNL     1      24.705   1.113  52.560  1.00  0.00     0.248 C 
HETATM    6  O1  UNL     1      24.698   2.248  52.819  1.00  0.00    -0.268 OA
HETATM    7  C7  UNL     1      23.441   0.828  52.937  1.00  0.00     0.018 A 
HETATM    8  C8  UNL     1      22.843  -0.299  53.143  1.00  0.00     0.029 A 
HETATM    9  C9  UNL     1      21.481   0.144  53.266  1.00  0.00     0.205 A 
HETATM   10  C10 UNL     1      20.204  -0.210  53.461  1.00  0.00     0.212 A 
HETATM   11  C11 UNL     1      19.487  -1.486  53.689  1.00  0.00     0.054 C 
HETATM   12  C12 UNL     1      20.970   0.899  53.249  1.00  0.00     0.230 A 
HETATM   13  C13 UNL     1      22.184   1.504  53.034  1.00  0.00     0.113 A 
HETATM   14  C14 UNL     1      20.563   2.193  52.660  1.00  0.00     0.156 A 
HETATM   15  N2  UNL     1      20.356   1.110  53.023  1.00  0.00     0.008 N 
HETATM   16  C15 UNL     1      20.634   3.564  52.047  1.00  0.00     0.213 C 
HETATM   17  N3  UNL     1      22.009   3.721  51.489  1.00  0.00    -0.284 NA
HETATM   18  C16 UNL     1      22.407   3.175  50.366  1.00  0.00     0.174 C 
HETATM   19  N4  UNL     1      23.763   3.292  49.771  1.00  0.00    -0.258 NA
HETATM   20  H9  UNL     1      25.802  -0.295  52.067  1.00  0.00     0.163 HD
HETATM   21  H18 UNL     1      24.036   3.321  50.761  1.00  0.00     0.134 HD
ENDROOT
BRANCH   1  22
HETATM   22  C2  UNL     1      25.797   4.551  49.377  1.00  0.00     0.046 C 
HETATM   23  C1  UNL     1      27.224   4.345  49.028  1.00  0.00     0.011 C 
ENDBRANCH   1  22
TORSDOF 1
ENDMDL
MODEL 3
REMARK VINA RESULT:      -7.6      1.793      3.466
REMARK  1 active torsions:
REMARK  status: ('A' for Active; 'I' for Inactive)
REMARK    1  A    between atoms: C2_2  and  C3_3 
ROOT
HETATM    1  C3  UNL     1      20.999   0.672  51.604  1.00  0.00    -0.012 C 
HETATM    2  C4  UNL     1      21.352   1.813  50.997  1.00  0.00     0.012 C 
HETATM    3  C5  UNL     1      22.274   2.957  50.351  1.00  0.00     0.151 C 
HETATM    4  N1  UNL     1      23.616   2.394  50.340  1.00  0.00    -0.354 N 
HETATM    5  C6  UNL     1      24.112   1.981  51.525  1.00  0.00     0.248 C 
HETATM    6  O1  UNL     1      23.410   2.230  52.420  1.00  0.00    -0.268 OA
HETATM    7  C7  UNL     1      25.089   1.365  52.221  1.00  0.00     0.018 A 
HETATM    8  C8  UNL     1      26.295   1.034  51.894  1.00  0.00     0.029 A 
HETATM    9  C9  UNL     1      26.656   0.210  53.015  1.00  0.00     0.205 A 
HETATM   10  C10 UNL     1      27.599  -0.550  53.584  1.00  0.00     0.212 A 
HETATM   11  C11 UNL     1      28.981  -0.956  53.233  1.00  0.00     0.054 C 
HETATM   12  C12 UNL     1      26.327  -0.110  53.802  1.00  0.00     0.230 A 
HETATM   13  C13 UNL     1      25.218   0.608  53.428  1.00  0.00     0.113 A 
HETATM   14  C14 UNL     1      25.269  -0.740  54.621  1.00  0.00     0.156 A 
HETATM   15  N2  UNL     1      26.341  -0.684  54.180  1.00  0.00     0.008 N 
HETATM   16  C15 UNL     1      23.923  -1.052  55.214  1.00  0.00     0.213 C 
HETATM   17  N3  UNL     1      22.898  -0.498  54.282  1.00  0.00    -0.284 NA
HETATM   18  C16 UNL     1      22.557  -1.066  53.152  1.00  0.00     0.174 C 
HETATM   19  N4  UNL     1      21.551  -0.553  52.185  1.00  0.00    -0.258 NA
HETATM   20  H9  UNL     1      24.397   2.300  49.724  1.00  0.00     0.163 HD
HETATM   21  H18 UNL     1      21.898   0.352  52.528  1.00  0.00     0.134 HD
ENDROOT
BRANCH   1  22
HETATM   22  C2  UNL     1      19.495   0.640  51.708  1.00  0.00     0.046 C 
HETATM   23  C1  UNL     1      18.824   1.576  50.773  1.00  0.00     0.011 C 
ENDBRANCH   1  22
TORSDOF 1
ENDMDL
MODEL 4
REMARK VINA RESULT:      -7.5      2.309      4.270
REMARK  1 active torsions:
REMARK  status: ('A' for Active; 'I' for Inactive)
REMARK    1  A    between atoms: C2_2  and  C3_3 
ROOT
HETATM    1  C3  UNL     1      21.598   3.766  51.102  1.00  0.00    -0.012 C 
HETATM    2  C4  UNL     1      22.554   4.705  51.087  1.00  0.00     0.012 C 
HETATM    3  C5  UNL     1      24.013   5.374  51.089  1.00  0.00     0.151 C 
HETATM    4  N1  UNL     1      24.938   4.258  50.955  1.00  0.00    -0.354 N 
HETATM    5  C6  UNL     1      24.849   3.282  51.883  1.00  0.00     0.248 C 
HETATM    6  O1  UNL     1      24.089   3.530  52.729  1.00  0.00    -0.268 OA
HETATM    7  C7  UNL     1      25.232   2.067  52.327  1.00  0.00     0.018 A 
HETATM    8  C8  UNL     1      26.228   1.311  51.999  1.00  0.00     0.029 A 
HETATM    9  C9  UNL     1      25.870   0.095  52.677  1.00  0.00     0.205 A 
HETATM   10  C10 UNL     1      26.201  -1.175  52.942  1.00  0.00     0.212 A 
HETATM   11  C11 UNL     1      27.324  -2.071  52.576  1.00  0.00     0.054 C 
HETATM   12  C12 UNL     1      25.226  -0.262  53.213  1.00  0.00     0.230 A 
HETATM   13  C13 UNL     1      24.678   0.992  53.090  1.00  0.00     0.113 A 
HETATM   14  C14 UNL     1      23.814  -0.511  53.577  1.00  0.00     0.156 A 
HETATM   15  N2  UNL     1      24.889  -0.854  53.304  1.00  0.00     0.008 N 
HETATM   16  C15 UNL     1      22.353  -0.287  53.850  1.00  0.00     0.213 C 
HETATM   17  N3  UNL     1      21.971   0.981  53.165  1.00  0.00    -0.284 NA
HETATM   18  C16 UNL     1      21.767   1.080  51.874  1.00  0.00     0.174 C 
HETATM   19  N4  UNL     1      21.395   2.317  51.140  1.00  0.00    -0.258 NA
HETATM   20  H9  UNL     1      25.750   4.000  50.433  1.00  0.00     0.163 HD
HETATM   21  H18 UNL     1      21.972   2.750  51.872  1.00  0.00     0.134 HD
ENDROOT
BRANCH   1  22
HETATM   22  C2  UNL     1      20.259   4.457  51.045  1.00  0.00     0.046 C 
HETATM   23  C1  UNL     1      20.225   5.586  50.084  1.00  0.00     0.011 C 
ENDBRANCH   1  22
TORSDOF 1
ENDMDL
MODEL 5
REMARK VINA RESULT:      -7.4      2.878      5.106
REMARK  1 active torsions:
REMARK  status: ('A' for Active; 'I' for Inactive)
REMARK    1  A    between atoms: C2_2  and  C3_3 
ROOT
HETATM    1  C3  UNL     1      23.044   4.266  48.751  1.00  0.00    -0.012 C 
HETATM    2  C4  UNL     1      24.139   5.038  48.771  1.00  0.00     0.012 C 
HETATM    3  C5  UNL     1      25.660   5.494  49.000  1.00  0.00     0.151 C 
HETATM    4  N1  UNL     1      26.365   4.275  49.370  1.00  0.00    -0.354 N 
HETATM    5  C6  UNL     1      25.893   3.602  50.440  1.00  0.00     0.248 C 
HETATM    6  O1  UNL     1      25.026   4.161  50.980  1.00  0.00    -0.268 OA
HETATM    7  C7  UNL     1      25.933   2.512  51.234  1.00  0.00     0.018 A 
HETATM    8  C8  UNL     1      26.817   1.576  51.358  1.00  0.00     0.029 A 
HETATM    9  C9  UNL     1      26.096   0.641  52.179  1.00  0.00     0.205 A 
HETATM   10  C10 UNL     1      26.116  -0.543  52.803  1.00  0.00     0.212 A 
HETATM   11  C11 UNL     1      27.102  -1.638  52.957  1.00  0.00     0.054 C 
HETATM   12  C12 UNL     1      25.294   0.525  52.596  1.00  0.00     0.230 A 
HETATM   13  C13 UNL     1      25.033   1.759  52.051  1.00  0.00     0.113 A 
HETATM   14  C14 UNL     1      23.817   0.563  52.627  1.00  0.00     0.156 A 
HETATM   15  N2  UNL     1      24.841   0.026  52.728  1.00  0.00     0.008 N 
HETATM   16  C15 UNL     1      22.399   1.034  52.452  1.00  0.00     0.213 C 
HETATM   17  N3  UNL     1      22.423   2.111  51.419  1.00  0.00    -0.284 NA
HETATM   18  C16 UNL     1      22.531   1.885  50.133  1.00  0.00     0.174 C 
HETATM   19  N4  UNL     1      22.568   2.917  49.065  1.00  0.00    -0.258 NA
HETATM   20  H9  UNL     1      27.209   3.786  49.150  1.00  0.00     0.163 HD
HETATM   21  H18 UNL     1      23.041   3.454  49.802  1.00  0.00     0.134 HD
ENDROOT
BRANCH   1  22
HETATM   22  C2  UNL     1      21.905   5.080  48.191  1.00  0.00     0.046 C 
HETATM   23  C1  UNL     1      22.299   5.918  47.034  1.00  0.00     0.011 C 
ENDBRANCH   1  22
TORSDOF 1
ENDMDL
MODEL 6
REMARK VINA RESULT:      -7.3      6.972      8.853
REMARK  1 active torsions:
REMARK  status: ('A' for Active; 'I' for Inactive)
REMARK    1  A    between atoms: C2_2  and  C3_3 
ROOT
HETATM    1  C3  UNL     1      25.813   7.475  50.232  1.00  0.00    -0.012 C 
HETATM    2  C4  UNL     1      25.581   6.223  49.817  1.00  0.00     0.012 C 
HETATM    3  C5  UNL     1      25.851   4.745  49.253  1.00  0.00     0.151 C 
HETATM    4  N1  UNL     1      27.301   4.620  49.209  1.00  0.00    -0.354 N 
HETATM    5  C6  UNL     1      27.968   5.545  48.488  1.00  0.00     0.248 C 
HETATM    6  O1  UNL     1      27.260   6.271  47.916  1.00  0.00    -0.268 OA
HETATM    7  C7  UNL     1      29.141   6.082  48.094  1.00  0.00     0.018 A 
HETATM    8  C8  UNL     1      30.353   5.636  48.164  1.00  0.00     0.029 A 
HETATM    9  C9  UNL     1      31.089   6.815  47.795  1.00  0.00     0.205 A 
HETATM   10  C10 UNL     1      32.294   7.361  47.592  1.00  0.00     0.212 A 
HETATM   11  C11 UNL     1      33.695   6.885  47.674  1.00  0.00     0.054 C 
HETATM   12  C12 UNL     1      30.970   7.684  47.549  1.00  0.00     0.230 A 
HETATM   13  C13 UNL     1      29.644   7.360  47.692  1.00  0.00     0.113 A 
HETATM   14  C14 UNL     1      30.348   9.016  47.703  1.00  0.00     0.156 A 
HETATM   15  N2  UNL     1      31.259   8.300  47.647  1.00  0.00     0.008 N 
HETATM   16  C15 UNL     1      29.317  10.093  47.902  1.00  0.00     0.213 C 
HETATM   17  N3  UNL     1      28.122   9.443  48.516  1.00  0.00    -0.284 NA
HETATM   18  C16 UNL     1      28.045   9.105  49.780  1.00  0.00     0.174 C 
HETATM   19  N4  UNL     1      26.886   8.450  50.440  1.00  0.00    -0.258 NA
HETATM   20  H9  UNL     1      28.017   3.971  49.461  1.00  0.00     0.163 HD
HETATM   21  H18 UNL     1      26.788   8.019  49.512  1.00  0.00     0.134 HD
ENDROOT
BRANCH   1  22
HETATM   22  C2  UNL     1      24.498   8.087  50.643  1.00  0.00     0.046 C 
HETATM   23  C1  UNL     1      23.477   7.079  51.017  1.00  0.00     0.011 C 
ENDBRANCH   1  22
TORSDOF 1
ENDMDL
MODEL 7
REMARK VINA RESULT:      -7.3      2.292      3.627
REMARK  1 active torsions:
REMARK  status: ('A' for Active; 'I' for Inactive)
REMARK    1  A    between atoms: C2_2  and  C3_3 
ROOT
HETATM    1  C3  UNL     1      18.746   2.944  51.665  1.00  0.00    -0.012 C 
HETATM    2  C4  UNL     1      18.221   1.716  51.568  1.00  0.00     0.012 C 
HETATM    3  C5  UNL     1      18.065   0.125  51.715  1.00  0.00     0.151 C 
HETATM    4  N1  UNL     1      19.178  -0.284  52.560  1.00  0.00    -0.354 N 
HETATM    5  C6  UNL     1      20.416   0.046  52.136  1.00  0.00     0.248 C 
HETATM    6  O1  UNL     1      20.416   0.541  51.082  1.00  0.00    -0.268 OA
HETATM    7  C7  UNL     1      21.744   0.097  52.365  1.00  0.00     0.018 A 
HETATM    8  C8  UNL     1      22.483  -0.489  53.250  1.00  0.00     0.029 A 
HETATM    9  C9  UNL     1      23.724   0.211  53.062  1.00  0.00     0.205 A 
HETATM   10  C10 UNL     1      24.997   0.353  53.453  1.00  0.00     0.212 A 
HETATM   11  C11 UNL     1      25.867  -0.291  54.465  1.00  0.00     0.054 C 
HETATM   12  C12 UNL     1      24.106   0.868  52.558  1.00  0.00     0.230 A 
HETATM   13  C13 UNL     1      22.857   0.912  51.989  1.00  0.00     0.113 A 
HETATM   14  C14 UNL     1      24.105   2.209  51.936  1.00  0.00     0.156 A 
HETATM   15  N2  UNL     1      24.549   1.389  52.627  1.00  0.00     0.008 N 
HETATM   16  C15 UNL     1      23.654   3.430  51.183  1.00  0.00     0.213 C 
HETATM   17  N3  UNL     1      22.163   3.389  51.141  1.00  0.00    -0.284 NA
HETATM   18  C16 UNL     1      21.396   3.705  52.155  1.00  0.00     0.174 C 
HETATM   19  N4  UNL     1      19.911   3.674  52.171  1.00  0.00    -0.258 NA
HETATM   20  H9  UNL     1      19.359  -0.864  53.353  1.00  0.00     0.163 HD
HETATM   21  H18 UNL     1      20.066   2.887  51.528  1.00  0.00     0.134 HD
ENDROOT
BRANCH   1  22
HETATM   22  C2  UNL     1      17.780   3.919  51.039  1.00  0.00     0.046 C 
HETATM   23  C1  UNL     1      16.443   3.909  51.681  1.00  0.00     0.011 C 
ENDBRANCH   1  22
TORSDOF 1
ENDMDL
MODEL 8
REMARK VINA RESULT:      -7.3      2.102      5.589
REMARK  1 active torsions:
REMARK  status: ('A' for Active; 'I' for Inactive)
REMARK    1  A    between atoms: C2_2  and  C3_3 
ROOT
HETATM    1  C3  UNL     1      27.264   0.936  52.900  1.00  0.00    -0.012 C 
HETATM    2  C4  UNL     1      26.514   0.245  53.769  1.00  0.00     0.012 C 
HETATM    3  C5  UNL     1      25.250  -0.515  54.400  1.00  0.00     0.151 C 
HETATM    4  N1  UNL     1      24.265  -0.560  53.328  1.00  0.00    -0.354 N 
HETATM    5  C6  UNL     1      23.903   0.622  52.788  1.00  0.00     0.248 C 
HETATM    6  O1  UNL     1      24.373   1.534  53.338  1.00  0.00    -0.268 OA
HETATM    7  C7  UNL     1      23.222   1.305  51.844  1.00  0.00     0.018 A 
HETATM    8  C8  UNL     1      22.287   0.938  51.030  1.00  0.00     0.029 A 
HETATM    9  C9  UNL     1      22.222   2.087  50.169  1.00  0.00     0.205 A 
HETATM   10  C10 UNL     1      21.640   2.654  49.105  1.00  0.00     0.212 A 
HETATM   11  C11 UNL     1      20.579   2.259  48.148  1.00  0.00     0.054 C 
HETATM   12  C12 UNL     1      22.596   2.908  50.042  1.00  0.00     0.230 A 
HETATM   13  C13 UNL     1      23.332   2.547  51.144  1.00  0.00     0.113 A 
HETATM   14  C14 UNL     1      23.759   3.816  49.940  1.00  0.00     0.156 A 
HETATM   15  N2  UNL     1      22.795   3.319  49.528  1.00  0.00     0.008 N 
HETATM   16  C15 UNL     1      25.068   4.493  50.239  1.00  0.00     0.213 C 
HETATM   17  N3  UNL     1      25.835   3.582  51.138  1.00  0.00    -0.284 NA
HETATM   18  C16 UNL     1      26.460   2.507  50.725  1.00  0.00     0.174 C 
HETATM   19  N4  UNL     1      27.229   1.562  51.577  1.00  0.00    -0.258 NA
HETATM   20  H9  UNL     1      23.639  -1.207  52.896  1.00  0.00     0.163 HD
HETATM   21  H18 UNL     1      26.515   1.831  52.266  1.00  0.00     0.134 HD
ENDROOT
BRANCH   1  22
HETATM   22  C2  UNL     1      28.635   1.117  53.502  1.00  0.00     0.046 C 
HETATM   23  C1  UNL     1      29.283  -0.163  53.875  1.00  0.00     0.011 C 
ENDBRANCH   1  22
TORSDOF 1
ENDMDL
MODEL 9
REMARK VINA RESULT:      -7.3      2.459      5.674
REMARK  1 active torsions:
REMARK  status: ('A' for Active; 'I' for Inactive)
REMARK    1  A    between atoms: C2_2  and  C3_3 
ROOT
HETATM    1  C3  UNL     1      23.967   4.969  50.511  1.00  0.00    -0.012 C 
HETATM    2  C4  UNL     1      23.219   4.680  49.438  1.00  0.00     0.012 C 
HETATM    3  C5  UNL     1      22.125   3.960  48.509  1.00  0.00     0.151 C 
HETATM    4  N1  UNL     1      21.404   3.066  49.404  1.00  0.00    -0.354 N 
HETATM    5  C6  UNL     1      22.140   2.160  50.080  1.00  0.00     0.248 C 
HETATM    6  O1  UNL     1      23.262   2.165  49.769  1.00  0.00    -0.268 OA
HETATM    7  C7  UNL     1      22.213   1.193  51.018  1.00  0.00     0.018 A 
HETATM    8  C8  UNL     1      21.292   0.508  51.614  1.00  0.00     0.029 A 
HETATM    9  C9  UNL     1      22.066  -0.136  52.640  1.00  0.00     0.205 A 
HETATM   10  C10 UNL     1      22.056  -0.966  53.690  1.00  0.00     0.212 A 
HETATM   11  C11 UNL     1      21.023  -1.756  54.402  1.00  0.00     0.054 C 
HETATM   12  C12 UNL     1      22.917  -0.203  52.958  1.00  0.00     0.230 A 
HETATM   13  C13 UNL     1      23.182   0.667  51.929  1.00  0.00     0.113 A 
HETATM   14  C14 UNL     1      24.207   0.382  53.381  1.00  0.00     0.156 A 
HETATM   15  N2  UNL     1      23.249  -0.249  53.558  1.00  0.00     0.008 N 
HETATM   16  C15 UNL     1      25.453   1.224  53.395  1.00  0.00     0.213 C 
HETATM   17  N3  UNL     1      25.213   2.372  52.474  1.00  0.00    -0.284 NA
HETATM   18  C16 UNL     1      24.480   3.414  52.783  1.00  0.00     0.174 C 
HETATM   19  N4  UNL     1      24.201   4.578  51.902  1.00  0.00    -0.258 NA
HETATM   20  H9  UNL     1      20.465   2.804  49.624  1.00  0.00     0.163 HD
HETATM   21  H18 UNL     1      24.259   3.856  51.173  1.00  0.00     0.134 HD
ENDROOT
BRANCH   1  22
HETATM   22  C2  UNL     1      24.879   6.115  50.154  1.00  0.00     0.046 C 
HETATM   23  C1  UNL     1      25.874   5.766  49.111  1.00  0.00     0.011 C 
ENDBRANCH   1  22
TORSDOF 1
ENDMDL
