MODEL 1
REMARK VINA RESULT:      -9.4      0.000      0.000
REMARK  5 active torsions:
REMARK  status: ('A' for Active; 'I' for Inactive)
REMARK    1  A    between atoms: N1_1  and  C1_2 
REMARK    2  A    between atoms: C1_2  and  O1_3 
REMARK    3  A    between atoms: O1_3  and  C2_4 
REMARK    4  A    between atoms: C7_12  and  C8_13 
REMARK    5  A    between atoms: C12_17  and  C13_18 
ROOT
HETATM    1  C2  UNL     1      27.858  -0.341  53.473  1.00  0.00     0.084 C 
HETATM    2  C3  UNL     1      27.510   0.492  54.448  1.00  0.00     0.035 C 
HETATM    3  C4  UNL     1      26.460  -0.002  55.116  1.00  0.00     0.159 C 
HETATM    4  O2  UNL     1      25.645   0.681  54.254  1.00  0.00    -0.301 OA
HETATM    5  C5  UNL     1      24.398   0.205  53.937  1.00  0.00     0.199 A 
HETATM    6  N2  UNL     1      23.880  -0.798  54.656  1.00  0.00    -0.215 NA
HETATM    7  C6  UNL     1      22.674  -1.342  54.439  1.00  0.00     0.236 A 
HETATM    8  N3  UNL     1      21.974  -0.812  53.422  1.00  0.00    -0.239 NA
HETATM    9  C7  UNL     1      22.421   0.201  52.646  1.00  0.00     0.099 A 
HETATM   10  C20 UNL     1      23.665   0.739  52.892  1.00  0.00     0.112 A 
HETATM   11  N4  UNL     1      24.018   1.765  51.982  1.00  0.00    -0.381 N 
HETATM   12  C21 UNL     1      25.433   2.016  52.017  1.00  0.00     0.147 C 
HETATM   13  C22 UNL     1      26.221   0.823  51.627  1.00  0.00    -0.005 C 
HETATM   14  C23 UNL     1      27.049   0.149  52.387  1.00  0.00     0.035 C 
HETATM   15  H16 UNL     1      23.346   2.244  51.382  1.00  0.00     0.160 HD
ENDROOT
BRANCH   9  16
HETATM   16  C8  UNL     1      21.415   0.520  51.649  1.00  0.00    -0.004 A 
HETATM   17  C9  UNL     1      20.093   0.118  51.877  1.00  0.00     0.014 A 
HETATM   18  C10 UNL     1      19.015   0.363  51.043  1.00  0.00     0.002 A 
HETATM   19  C11 UNL     1      19.268   1.058  49.899  1.00  0.00     0.012 A 
HETATM   20  C12 UNL     1      20.542   1.490  49.601  1.00  0.00    -0.025 A 
HETATM   21  C19 UNL     1      21.560   1.211  50.475  1.00  0.00     0.026 A 
BRANCH  20  22
HETATM   22  C13 UNL     1      20.816   2.237  48.372  1.00  0.00    -0.026 A 
HETATM   23  C14 UNL     1      22.119   2.187  47.929  1.00  0.00     0.012 A 
HETATM   24  C15 UNL     1      22.471   2.873  46.762  1.00  0.00     0.001 A 
HETATM   25  C16 UNL     1      21.524   3.594  46.059  1.00  0.00     0.000 A 
HETATM   26  C17 UNL     1      20.237   3.633  46.513  1.00  0.00     0.001 A 
HETATM   27  C18 UNL     1      19.866   2.960  47.667  1.00  0.00     0.012 A 
ENDBRANCH  20  22
ENDBRANCH   9  16
BRANCH   1  28
HETATM   28  O1  UNL     1      28.783  -1.217  54.005  1.00  0.00    -0.321 OA
BRANCH  28  29
HETATM   29  C1  UNL     1      29.358  -2.264  53.204  1.00  0.00     0.441 C 
BRANCH  29  30
HETATM   30  N1  UNL     1      28.335  -3.277  53.070  1.00  0.00     0.101 N 
HETATM   31  H1  UNL     1      28.598  -4.162  53.553  1.00  0.00     0.315 HD
HETATM   32  H2  UNL     1      28.083  -3.456  52.066  1.00  0.00     0.315 HD
ENDBRANCH  29  30
ENDBRANCH  28  29
ENDBRANCH   1  28
TORSDOF 5
ENDMDL
MODEL 2
REMARK VINA RESULT:      -9.3      3.325      8.434
REMARK  5 active torsions:
REMARK  status: ('A' for Active; 'I' for Inactive)
REMARK    1  A    between atoms: N1_1  and  C1_2 
REMARK    2  A    between atoms: C1_2  and  O1_3 
REMARK    3  A    between atoms: O1_3  and  C2_4 
REMARK    4  A    between atoms: C7_12  and  C8_13 
REMARK    5  A    between atoms: C12_17  and  C13_18 
ROOT
HETATM    1  C2  UNL     1      17.156   1.638  51.156  1.00  0.00     0.084 C 
HETATM    2  C3  UNL     1      17.253   0.358  50.814  1.00  0.00     0.035 C 
HETATM    3  C4  UNL     1      17.674  -0.363  51.861  1.00  0.00     0.159 C 
HETATM    4  O2  UNL     1      18.957  -0.161  51.430  1.00  0.00    -0.301 OA
HETATM    5  C5  UNL     1      19.998  -0.108  52.321  1.00  0.00     0.199 A 
HETATM    6  N2  UNL     1      19.796  -0.497  53.586  1.00  0.00    -0.215 NA
HETATM    7  C6  UNL     1      20.738  -0.490  54.541  1.00  0.00     0.236 A 
HETATM    8  N3  UNL     1      21.949  -0.056  54.157  1.00  0.00    -0.239 NA
HETATM    9  C7  UNL     1      22.241   0.354  52.901  1.00  0.00     0.099 A 
HETATM   10  C20 UNL     1      21.252   0.337  51.942  1.00  0.00     0.112 A 
HETATM   11  N4  UNL     1      21.688   0.826  50.686  1.00  0.00    -0.381 N 
HETATM   12  C21 UNL     1      20.566   1.159  49.851  1.00  0.00     0.147 C 
HETATM   13  C22 UNL     1      19.724   2.225  50.445  1.00  0.00    -0.005 C 
HETATM   14  C23 UNL     1      18.480   2.111  50.838  1.00  0.00     0.035 C 
HETATM   15  H16 UNL     1      22.669   0.932  50.431  1.00  0.00     0.160 HD
ENDROOT
BRANCH   9  16
HETATM   16  C8  UNL     1      23.635   0.753  52.841  1.00  0.00    -0.004 A 
HETATM   17  C9  UNL     1      23.939   2.112  52.693  1.00  0.00     0.014 A 
HETATM   18  C10 UNL     1      25.210   2.659  52.644  1.00  0.00     0.002 A 
HETATM   19  C11 UNL     1      26.256   1.793  52.748  1.00  0.00     0.012 A 
HETATM   20  C12 UNL     1      26.042   0.440  52.896  1.00  0.00    -0.025 A 
HETATM   21  C19 UNL     1      24.755  -0.030  52.938  1.00  0.00     0.026 A 
BRANCH  20  22
HETATM   22  C13 UNL     1      27.166  -0.493  53.009  1.00  0.00    -0.026 A 
HETATM   23  C14 UNL     1      28.356   0.064  53.425  1.00  0.00     0.012 A 
HETATM   24  C15 UNL     1      29.482  -0.754  53.560  1.00  0.00     0.001 A 
HETATM   25  C16 UNL     1      29.406  -2.107  53.280  1.00  0.00     0.000 A 
HETATM   26  C17 UNL     1      28.219  -2.640  52.870  1.00  0.00     0.001 A 
HETATM   27  C18 UNL     1      27.090  -1.848  52.729  1.00  0.00     0.012 A 
ENDBRANCH  20  22
ENDBRANCH   9  16
BRANCH   1  28
HETATM   28  O1  UNL     1      15.874   1.831  51.628  1.00  0.00    -0.321 OA
BRANCH  28  29
HETATM   29  C1  UNL     1      15.471   3.096  52.180  1.00  0.00     0.441 C 
BRANCH  29  30
HETATM   30  N1  UNL     1      14.521   2.795  53.228  1.00  0.00     0.101 N 
HETATM   31  H1  UNL     1      14.975   2.332  54.044  1.00  0.00     0.315 HD
HETATM   32  H2  UNL     1      13.709   2.229  52.877  1.00  0.00     0.315 HD
ENDBRANCH  29  30
ENDBRANCH  28  29
ENDBRANCH   1  28
TORSDOF 5
ENDMDL
MODEL 3
REMARK VINA RESULT:      -9.2      4.174      7.911
REMARK  5 active torsions:
REMARK  status: ('A' for Active; 'I' for Inactive)
REMARK    1  A    between atoms: N1_1  and  C1_2 
REMARK    2  A    between atoms: C1_2  and  O1_3 
REMARK    3  A    between atoms: O1_3  and  C2_4 
REMARK    4  A    between atoms: C7_12  and  C8_13 
REMARK    5  A    between atoms: C12_17  and  C13_18 
ROOT
HETATM    1  C2  UNL     1      26.119   7.331  48.973  1.00  0.00     0.084 C 
HETATM    2  C3  UNL     1      25.045   7.032  48.250  1.00  0.00     0.035 C 
HETATM    3  C4  UNL     1      23.964   6.979  49.039  1.00  0.00     0.159 C 
HETATM    4  O2  UNL     1      24.208   5.644  49.212  1.00  0.00    -0.301 OA
HETATM    5  C5  UNL     1      23.854   5.009  50.375  1.00  0.00     0.199 A 
HETATM    6  N2  UNL     1      23.052   5.636  51.244  1.00  0.00    -0.215 NA
HETATM    7  C6  UNL     1      22.641   5.114  52.409  1.00  0.00     0.236 A 
HETATM    8  N3  UNL     1      23.088   3.877  52.680  1.00  0.00    -0.239 NA
HETATM    9  C7  UNL     1      23.900   3.172  51.859  1.00  0.00     0.099 A 
HETATM   10  C20 UNL     1      24.308   3.736  50.670  1.00  0.00     0.112 A 
HETATM   11  N4  UNL     1      25.182   2.902  49.931  1.00  0.00    -0.381 N 
HETATM   12  C21 UNL     1      25.881   3.657  48.926  1.00  0.00     0.147 C 
HETATM   13  C22 UNL     1      26.721   4.726  49.516  1.00  0.00    -0.005 C 
HETATM   14  C23 UNL     1      26.570   6.018  49.356  1.00  0.00     0.035 C 
HETATM   15  H16 UNL     1      25.296   1.904  50.109  1.00  0.00     0.160 HD
ENDROOT
BRANCH   9  16
HETATM   16  C8  UNL     1      24.185   1.883  52.462  1.00  0.00    -0.004 A 
HETATM   17  C9  UNL     1      23.122   1.130  52.973  1.00  0.00     0.014 A 
HETATM   18  C10 UNL     1      23.219  -0.123  53.553  1.00  0.00     0.002 A 
HETATM   19  C11 UNL     1      24.465  -0.669  53.633  1.00  0.00     0.012 A 
HETATM   20  C12 UNL     1      25.565   0.008  53.153  1.00  0.00    -0.025 A 
HETATM   21  C19 UNL     1      25.392   1.245  52.590  1.00  0.00     0.026 A 
BRANCH  20  22
HETATM   22  C13 UNL     1      26.905  -0.577  53.238  1.00  0.00    -0.026 A 
HETATM   23  C14 UNL     1      27.018  -1.866  52.763  1.00  0.00     0.012 A 
HETATM   24  C15 UNL     1      28.263  -2.502  52.805  1.00  0.00     0.001 A 
HETATM   25  C16 UNL     1      29.369  -1.849  53.317  1.00  0.00     0.000 A 
HETATM   26  C17 UNL     1      29.238  -0.573  53.783  1.00  0.00     0.001 A 
HETATM   27  C18 UNL     1      28.014   0.078  53.750  1.00  0.00     0.012 A 
ENDBRANCH  20  22
ENDBRANCH   9  16
BRANCH   1  28
HETATM   28  O1  UNL     1      26.227   8.707  48.979  1.00  0.00    -0.321 OA
BRANCH  28  29
HETATM   29  C1  UNL     1      27.438   9.353  49.410  1.00  0.00     0.441 C 
BRANCH  29  30
HETATM   30  N1  UNL     1      27.470   9.230  50.850  1.00  0.00     0.101 N 
HETATM   31  H1  UNL     1      27.855   8.310  51.154  1.00  0.00     0.315 HD
HETATM   32  H2  UNL     1      26.531   9.408  51.285  1.00  0.00     0.315 HD
ENDBRANCH  29  30
ENDBRANCH  28  29
ENDBRANCH   1  28
TORSDOF 5
ENDMDL
MODEL 4
REMARK VINA RESULT:      -9.2      1.300      3.194
REMARK  5 active torsions:
REMARK  status: ('A' for Active; 'I' for Inactive)
REMARK    1  A    between atoms: N1_1  and  C1_2 
REMARK    2  A    between atoms: C1_2  and  O1_3 
REMARK    3  A    between atoms: O1_3  and  C2_4 
REMARK    4  A    between atoms: C7_12  and  C8_13 
REMARK    5  A    between atoms: C12_17  and  C13_18 
ROOT
HETATM    1  C2  UNL     1      28.013  -0.293  53.486  1.00  0.00     0.084 C 
HETATM    2  C3  UNL     1      27.645   0.540  54.453  1.00  0.00     0.035 C 
HETATM    3  C4  UNL     1      26.576   0.052  55.093  1.00  0.00     0.159 C 
HETATM    4  O2  UNL     1      25.787   0.740  54.213  1.00  0.00    -0.301 OA
HETATM    5  C5  UNL     1      24.546   0.270  53.864  1.00  0.00     0.199 A 
HETATM    6  N2  UNL     1      24.005  -0.731  54.569  1.00  0.00    -0.215 NA
HETATM    7  C6  UNL     1      22.801  -1.269  54.321  1.00  0.00     0.236 A 
HETATM    8  N3  UNL     1      22.130  -0.735  53.288  1.00  0.00    -0.239 NA
HETATM    9  C7  UNL     1      22.601   0.278  52.525  1.00  0.00     0.099 A 
HETATM   10  C20 UNL     1      23.842   0.809  52.802  1.00  0.00     0.112 A 
HETATM   11  N4  UNL     1      24.222   1.834  51.902  1.00  0.00    -0.381 N 
HETATM   12  C21 UNL     1      25.637   2.078  51.973  1.00  0.00     0.147 C 
HETATM   13  C22 UNL     1      26.428   0.881  51.601  1.00  0.00    -0.005 C 
HETATM   14  C23 UNL     1      27.234   0.203  52.380  1.00  0.00     0.035 C 
HETATM   15  H16 UNL     1      23.567   2.317  51.287  1.00  0.00     0.160 HD
ENDROOT
BRANCH   9  16
HETATM   16  C8  UNL     1      21.621   0.602  51.504  1.00  0.00    -0.004 A 
HETATM   17  C9  UNL     1      22.054   1.238  50.334  1.00  0.00     0.014 A 
HETATM   18  C10 UNL     1      21.257   1.591  49.259  1.00  0.00     0.002 A 
HETATM   19  C11 UNL     1      19.931   1.291  49.352  1.00  0.00     0.012 A 
HETATM   20  C12 UNL     1      19.425   0.666  50.470  1.00  0.00    -0.025 A 
HETATM   21  C19 UNL     1      20.275   0.345  51.496  1.00  0.00     0.026 A 
BRANCH  20  22
HETATM   22  C13 UNL     1      18.000   0.343  50.572  1.00  0.00    -0.026 A 
HETATM   23  C14 UNL     1      17.641  -0.401  51.675  1.00  0.00     0.012 A 
HETATM   24  C15 UNL     1      16.300  -0.756  51.853  1.00  0.00     0.001 A 
HETATM   25  C16 UNL     1      15.343  -0.366  50.934  1.00  0.00     0.000 A 
HETATM   26  C17 UNL     1      15.716   0.371  49.848  1.00  0.00     0.001 A 
HETATM   27  C18 UNL     1      17.040   0.734  49.652  1.00  0.00     0.012 A 
ENDBRANCH  20  22
ENDBRANCH   9  16
BRANCH   1  28
HETATM   28  O1  UNL     1      28.920  -1.174  54.040  1.00  0.00    -0.321 OA
BRANCH  28  29
HETATM   29  C1  UNL     1      29.429  -2.286  53.283  1.00  0.00     0.441 C 
BRANCH  29  30
HETATM   30  N1  UNL     1      28.300  -3.155  53.034  1.00  0.00     0.101 N 
HETATM   31  H1  UNL     1      27.698  -3.263  53.878  1.00  0.00     0.315 HD
HETATM   32  H2  UNL     1      28.594  -4.091  52.658  1.00  0.00     0.315 HD
ENDBRANCH  29  30
ENDBRANCH  28  29
ENDBRANCH   1  28
TORSDOF 5
ENDMDL
MODEL 5
REMARK VINA RESULT:      -9.0      1.374      1.829
REMARK  5 active torsions:
REMARK  status: ('A' for Active; 'I' for Inactive)
REMARK    1  A    between atoms: N1_1  and  C1_2 
REMARK    2  A    between atoms: C1_2  and  O1_3 
REMARK    3  A    between atoms: O1_3  and  C2_4 
REMARK    4  A    between atoms: C7_12  and  C8_13 
REMARK    5  A    between atoms: C12_17  and  C13_18 
ROOT
HETATM    1  C2  UNL     1      27.781  -0.240  53.449  1.00  0.00     0.084 C 
HETATM    2  C3  UNL     1      27.309   0.503  54.444  1.00  0.00     0.035 C 
HETATM    3  C4  UNL     1      26.101   0.058  54.812  1.00  0.00     0.159 C 
HETATM    4  O2  UNL     1      25.552   0.930  53.912  1.00  0.00    -0.301 OA
HETATM    5  C5  UNL     1      24.364   0.644  53.289  1.00  0.00     0.199 A 
HETATM    6  N2  UNL     1      23.619  -0.372  53.740  1.00  0.00    -0.215 NA
HETATM    7  C6  UNL     1      22.442  -0.741  53.212  1.00  0.00     0.236 A 
HETATM    8  N3  UNL     1      22.025  -0.015  52.162  1.00  0.00    -0.239 NA
HETATM    9  C7  UNL     1      22.714   1.026  51.643  1.00  0.00     0.099 A 
HETATM   10  C20 UNL     1      23.920   1.382  52.206  1.00  0.00     0.112 A 
HETATM   11  N4  UNL     1      24.547   2.463  51.540  1.00  0.00    -0.381 N 
HETATM   12  C21 UNL     1      25.939   2.542  51.891  1.00  0.00     0.147 C 
HETATM   13  C22 UNL     1      26.684   1.321  51.500  1.00  0.00    -0.005 C 
HETATM   14  C23 UNL     1      27.268   0.469  52.305  1.00  0.00     0.035 C 
HETATM   15  H16 UNL     1      24.063   3.085  50.893  1.00  0.00     0.160 HD
ENDROOT
BRANCH   9  16
HETATM   16  C8  UNL     1      21.975   1.577  50.522  1.00  0.00    -0.004 A 
HETATM   17  C9  UNL     1      20.746   1.000  50.178  1.00  0.00     0.014 A 
HETATM   18  C10 UNL     1      19.910   1.420  49.158  1.00  0.00     0.002 A 
HETATM   19  C11 UNL     1      20.323   2.491  48.425  1.00  0.00     0.012 A 
HETATM   20  C12 UNL     1      21.519   3.116  48.699  1.00  0.00    -0.025 A 
HETATM   21  C19 UNL     1      22.296   2.646  49.726  1.00  0.00     0.026 A 
BRANCH  20  22
HETATM   22  C13 UNL     1      21.966   4.269  47.913  1.00  0.00    -0.026 A 
HETATM   23  C14 UNL     1      21.482   4.326  46.624  1.00  0.00     0.012 A 
HETATM   24  C15 UNL     1      21.857   5.393  45.801  1.00  0.00     0.001 A 
HETATM   25  C16 UNL     1      22.704   6.380  46.272  1.00  0.00     0.000 A 
HETATM   26  C17 UNL     1      23.173   6.306  47.551  1.00  0.00     0.001 A 
HETATM   27  C18 UNL     1      22.814   5.258  48.385  1.00  0.00     0.012 A 
ENDBRANCH  20  22
ENDBRANCH   9  16
BRANCH   1  28
HETATM   28  O1  UNL     1      28.491  -1.275  54.024  1.00  0.00    -0.321 OA
BRANCH  28  29
HETATM   29  C1  UNL     1      29.309  -2.146  53.224  1.00  0.00     0.441 C 
BRANCH  29  30
HETATM   30  N1  UNL     1      28.557  -3.370  53.061  1.00  0.00     0.101 N 
HETATM   31  H1  UNL     1      27.736  -3.411  53.703  1.00  0.00     0.315 HD
HETATM   32  H2  UNL     1      29.160  -4.224  53.166  1.00  0.00     0.315 HD
ENDBRANCH  29  30
ENDBRANCH  28  29
ENDBRANCH   1  28
TORSDOF 5
ENDMDL
MODEL 6
REMARK VINA RESULT:      -8.9      3.417      8.437
REMARK  5 active torsions:
REMARK  status: ('A' for Active; 'I' for Inactive)
REMARK    1  A    between atoms: N1_1  and  C1_2 
REMARK    2  A    between atoms: C1_2  and  O1_3 
REMARK    3  A    between atoms: O1_3  and  C2_4 
REMARK    4  A    between atoms: C7_12  and  C8_13 
REMARK    5  A    between atoms: C12_17  and  C13_18 
ROOT
HETATM    1  C2  UNL     1      21.908   4.114  46.531  1.00  0.00     0.084 C 
HETATM    2  C3  UNL     1      20.836   4.415  47.256  1.00  0.00     0.035 C 
HETATM    3  C4  UNL     1      21.196   5.134  48.326  1.00  0.00     0.159 C 
HETATM    4  O2  UNL     1      21.323   3.961  49.019  1.00  0.00    -0.301 OA
HETATM    5  C5  UNL     1      22.232   3.842  50.039  1.00  0.00     0.199 A 
HETATM    6  N2  UNL     1      22.823   4.943  50.520  1.00  0.00    -0.215 NA
HETATM    7  C6  UNL     1      23.724   4.947  51.514  1.00  0.00     0.236 A 
HETATM    8  N3  UNL     1      24.022   3.744  52.031  1.00  0.00    -0.239 NA
HETATM    9  C7  UNL     1      23.472   2.583  51.606  1.00  0.00     0.099 A 
HETATM   10  C20 UNL     1      22.551   2.610  50.582  1.00  0.00     0.112 A 
HETATM   11  N4  UNL     1      22.088   1.322  50.217  1.00  0.00    -0.381 N 
HETATM   12  C21 UNL     1      21.457   1.353  48.926  1.00  0.00     0.147 C 
HETATM   13  C22 UNL     1      22.392   1.780  47.858  1.00  0.00    -0.005 C 
HETATM   14  C23 UNL     1      22.305   2.865  47.129  1.00  0.00     0.035 C 
HETATM   15  H16 UNL     1      22.205   0.494  50.800  1.00  0.00     0.160 HD
ENDROOT
BRANCH   9  16
HETATM   16  C8  UNL     1      24.020   1.484  52.381  1.00  0.00    -0.004 A 
HETATM   17  C9  UNL     1      23.139   0.653  53.084  1.00  0.00     0.014 A 
HETATM   18  C10 UNL     1      23.494  -0.447  53.845  1.00  0.00     0.002 A 
HETATM   19  C11 UNL     1      24.822  -0.744  53.914  1.00  0.00     0.012 A 
HETATM   20  C12 UNL     1      25.754   0.023  53.251  1.00  0.00    -0.025 A 
HETATM   21  C19 UNL     1      25.328   1.098  52.515  1.00  0.00     0.026 A 
BRANCH  20  22
HETATM   22  C13 UNL     1      27.182  -0.295  53.323  1.00  0.00    -0.026 A 
HETATM   23  C14 UNL     1      27.997   0.740  53.728  1.00  0.00     0.012 A 
HETATM   24  C15 UNL     1      29.376   0.525  53.825  1.00  0.00     0.001 A 
HETATM   25  C16 UNL     1      29.917  -0.710  53.519  1.00  0.00     0.000 A 
HETATM   26  C17 UNL     1      29.094  -1.723  53.120  1.00  0.00     0.001 A 
HETATM   27  C18 UNL     1      27.725  -1.533  53.018  1.00  0.00     0.012 A 
ENDBRANCH  20  22
ENDBRANCH   9  16
BRANCH   1  28
HETATM   28  O1  UNL     1      22.073   5.135  45.617  1.00  0.00    -0.321 OA
BRANCH  28  29
HETATM   29  C1  UNL     1      21.262   5.206  44.432  1.00  0.00     0.441 C 
BRANCH  29  30
HETATM   30  N1  UNL     1      20.790   6.570  44.348  1.00  0.00     0.101 N 
HETATM   31  H1  UNL     1      19.908   6.643  43.796  1.00  0.00     0.315 HD
HETATM   32  H2  UNL     1      21.524   7.222  43.973  1.00  0.00     0.315 HD
ENDBRANCH  29  30
ENDBRANCH  28  29
ENDBRANCH   1  28
TORSDOF 5
ENDMDL
MODEL 7
REMARK VINA RESULT:      -8.9      4.020      8.564
REMARK  5 active torsions:
REMARK  status: ('A' for Active; 'I' for Inactive)
REMARK    1  A    between atoms: N1_1  and  C1_2 
REMARK    2  A    between atoms: C1_2  and  O1_3 
REMARK    3  A    between atoms: O1_3  and  C2_4 
REMARK    4  A    between atoms: C7_12  and  C8_13 
REMARK    5  A    between atoms: C12_17  and  C13_18 
ROOT
HETATM    1  C2  UNL     1      20.846   7.074  49.501  1.00  0.00     0.084 C 
HETATM    2  C3  UNL     1      21.880   6.988  48.671  1.00  0.00     0.035 C 
HETATM    3  C4  UNL     1      21.839   5.826  48.009  1.00  0.00     0.159 C 
HETATM    4  O2  UNL     1      22.604   5.281  49.004  1.00  0.00    -0.301 OA
HETATM    5  C5  UNL     1      22.495   3.953  49.330  1.00  0.00     0.199 A 
HETATM    6  N2  UNL     1      21.818   3.135  48.516  1.00  0.00    -0.215 NA
HETATM    7  C6  UNL     1      21.647   1.822  48.732  1.00  0.00     0.236 A 
HETATM    8  N3  UNL     1      22.210   1.341  49.852  1.00  0.00    -0.239 NA
HETATM    9  C7  UNL     1      22.910   2.096  50.729  1.00  0.00     0.099 A 
HETATM   10  C20 UNL     1      23.068   3.442  50.481  1.00  0.00     0.112 A 
HETATM   11  N4  UNL     1      23.789   4.114  51.498  1.00  0.00    -0.381 N 
HETATM   12  C21 UNL     1      23.594   5.535  51.409  1.00  0.00     0.147 C 
HETATM   13  C22 UNL     1      22.172   5.915  51.585  1.00  0.00    -0.005 C 
HETATM   14  C23 UNL     1      21.396   6.477  50.692  1.00  0.00     0.035 C 
HETATM   15  H16 UNL     1      24.357   3.636  52.197  1.00  0.00     0.160 HD
ENDROOT
BRANCH   9  16
HETATM   16  C8  UNL     1      23.372   1.257  51.819  1.00  0.00    -0.004 A 
HETATM   17  C9  UNL     1      22.422   0.656  52.655  1.00  0.00     0.014 A 
HETATM   18  C10 UNL     1      22.694  -0.188  53.718  1.00  0.00     0.002 A 
HETATM   19  C11 UNL     1      24.006  -0.455  53.971  1.00  0.00     0.012 A 
HETATM   20  C12 UNL     1      25.002   0.096  53.196  1.00  0.00    -0.025 A 
HETATM   21  C19 UNL     1      24.657   0.923  52.158  1.00  0.00     0.026 A 
BRANCH  20  22
HETATM   22  C13 UNL     1      26.413  -0.190  53.466  1.00  0.00    -0.026 A 
HETATM   23  C14 UNL     1      26.960   0.493  54.530  1.00  0.00     0.012 A 
HETATM   24  C15 UNL     1      28.303   0.281  54.860  1.00  0.00     0.001 A 
HETATM   25  C16 UNL     1      29.074  -0.603  54.128  1.00  0.00     0.000 A 
HETATM   26  C17 UNL     1      28.515  -1.271  53.077  1.00  0.00     0.001 A 
HETATM   27  C18 UNL     1      27.186  -1.076  52.733  1.00  0.00     0.012 A 
ENDBRANCH  20  22
ENDBRANCH   9  16
BRANCH   1  28
HETATM   28  O1  UNL     1      19.817   7.668  48.800  1.00  0.00    -0.321 OA
BRANCH  28  29
HETATM   29  C1  UNL     1      19.586   9.085  48.881  1.00  0.00     0.441 C 
BRANCH  29  30
HETATM   30  N1  UNL     1      18.789   9.297  50.069  1.00  0.00     0.101 N 
HETATM   31  H1  UNL     1      19.378   9.540  50.894  1.00  0.00     0.315 HD
HETATM   32  H2  UNL     1      18.165   8.479  50.279  1.00  0.00     0.315 HD
ENDBRANCH  29  30
ENDBRANCH  28  29
ENDBRANCH   1  28
TORSDOF 5
ENDMDL
MODEL 8
REMARK VINA RESULT:      -8.7      4.315      8.217
REMARK  5 active torsions:
REMARK  status: ('A' for Active; 'I' for Inactive)
REMARK    1  A    between atoms: N1_1  and  C1_2 
REMARK    2  A    between atoms: C1_2  and  O1_3 
REMARK    3  A    between atoms: O1_3  and  C2_4 
REMARK    4  A    between atoms: C7_12  and  C8_13 
REMARK    5  A    between atoms: C12_17  and  C13_18 
ROOT
HETATM    1  C2  UNL     1      22.972   7.728  48.520  1.00  0.00     0.084 C 
HETATM    2  C3  UNL     1      23.857   8.348  49.293  1.00  0.00     0.035 C 
HETATM    3  C4  UNL     1      25.087   7.883  49.042  1.00  0.00     0.159 C 
HETATM    4  O2  UNL     1      24.891   6.954  50.028  1.00  0.00    -0.301 OA
HETATM    5  C5  UNL     1      25.497   5.726  49.968  1.00  0.00     0.199 A 
HETATM    6  N2  UNL     1      26.472   5.521  49.074  1.00  0.00    -0.215 NA
HETATM    7  C6  UNL     1      27.135   4.365  48.926  1.00  0.00     0.236 A 
HETATM    8  N3  UNL     1      26.762   3.374  49.752  1.00  0.00    -0.239 NA
HETATM    9  C7  UNL     1      25.789   3.494  50.683  1.00  0.00     0.099 A 
HETATM   10  C20 UNL     1      25.124   4.694  50.810  1.00  0.00     0.112 A 
HETATM   11  N4  UNL     1      24.108   4.665  51.797  1.00  0.00    -0.381 N 
HETATM   12  C21 UNL     1      23.201   5.767  51.629  1.00  0.00     0.147 C 
HETATM   13  C22 UNL     1      22.511   5.728  50.317  1.00  0.00    -0.005 C 
HETATM   14  C23 UNL     1      22.620   6.603  49.349  1.00  0.00     0.035 C 
HETATM   15  H16 UNL     1      24.039   3.945  52.516  1.00  0.00     0.160 HD
ENDROOT
BRANCH   9  16
HETATM   16  C8  UNL     1      25.649   2.236  51.393  1.00  0.00    -0.004 A 
HETATM   17  C9  UNL     1      26.795   1.466  51.631  1.00  0.00     0.014 A 
HETATM   18  C10 UNL     1      26.837   0.262  52.311  1.00  0.00     0.002 A 
HETATM   19  C11 UNL     1      25.654  -0.216  52.791  1.00  0.00     0.012 A 
HETATM   20  C12 UNL     1      24.482   0.481  52.600  1.00  0.00    -0.025 A 
HETATM   21  C19 UNL     1      24.516   1.669  51.917  1.00  0.00     0.026 A 
BRANCH  20  22
HETATM   22  C13 UNL     1      23.209  -0.030  53.115  1.00  0.00    -0.026 A 
HETATM   23  C14 UNL     1      22.092   0.334  52.395  1.00  0.00     0.012 A 
HETATM   24  C15 UNL     1      20.834  -0.109  52.816  1.00  0.00     0.001 A 
HETATM   25  C16 UNL     1      20.710  -0.904  53.941  1.00  0.00     0.000 A 
HETATM   26  C17 UNL     1      21.827  -1.255  54.641  1.00  0.00     0.001 A 
HETATM   27  C18 UNL     1      23.084  -0.828  54.242  1.00  0.00     0.012 A 
ENDBRANCH  20  22
ENDBRANCH   9  16
BRANCH   1  28
HETATM   28  O1  UNL     1      22.864   8.468  47.360  1.00  0.00    -0.321 OA
BRANCH  28  29
HETATM   29  C1  UNL     1      22.306   7.895  46.165  1.00  0.00     0.441 C 
BRANCH  29  30
HETATM   30  N1  UNL     1      23.415   7.317  45.439  1.00  0.00     0.101 N 
HETATM   31  H1  UNL     1      23.240   7.301  44.411  1.00  0.00     0.315 HD
HETATM   32  H2  UNL     1      23.667   6.361  45.793  1.00  0.00     0.315 HD
ENDBRANCH  29  30
ENDBRANCH  28  29
ENDBRANCH   1  28
TORSDOF 5
ENDMDL
MODEL 9
REMARK VINA RESULT:      -8.6      4.399      6.579
REMARK  5 active torsions:
REMARK  status: ('A' for Active; 'I' for Inactive)
REMARK    1  A    between atoms: N1_1  and  C1_2 
REMARK    2  A    between atoms: C1_2  and  O1_3 
REMARK    3  A    between atoms: O1_3  and  C2_4 
REMARK    4  A    between atoms: C7_12  and  C8_13 
REMARK    5  A    between atoms: C12_17  and  C13_18 
ROOT
HETATM    1  C2  UNL     1      22.862  -0.084  53.376  1.00  0.00     0.084 C 
HETATM    2  C3  UNL     1      21.848   0.772  53.452  1.00  0.00     0.035 C 
HETATM    3  C4  UNL     1      21.372   1.025  52.227  1.00  0.00     0.159 C 
HETATM    4  O2  UNL     1      22.243   2.078  52.151  1.00  0.00    -0.301 OA
HETATM    5  C5  UNL     1      22.759   2.480  50.946  1.00  0.00     0.199 A 
HETATM    6  N2  UNL     1      22.226   2.002  49.815  1.00  0.00    -0.215 NA
HETATM    7  C6  UNL     1      22.646   2.324  48.583  1.00  0.00     0.236 A 
HETATM    8  N3  UNL     1      23.674   3.187  48.529  1.00  0.00    -0.239 NA
HETATM    9  C7  UNL     1      24.271   3.718  49.620  1.00  0.00     0.099 A 
HETATM   10  C20 UNL     1      23.818   3.367  50.873  1.00  0.00     0.112 A 
HETATM   11  N4  UNL     1      24.558   3.968  51.920  1.00  0.00    -0.381 N 
HETATM   12  C21 UNL     1      24.324   3.290  53.166  1.00  0.00     0.147 C 
HETATM   13  C22 UNL     1      24.749   1.870  53.116  1.00  0.00    -0.005 C 
HETATM   14  C23 UNL     1      23.975   0.818  53.224  1.00  0.00     0.035 C 
HETATM   15  H16 UNL     1      25.176   4.768  51.788  1.00  0.00     0.160 HD
ENDROOT
BRANCH   9  16
HETATM   16  C8  UNL     1      25.339   4.605  49.196  1.00  0.00    -0.004 A 
HETATM   17  C9  UNL     1      26.646   4.105  49.141  1.00  0.00     0.014 A 
HETATM   18  C10 UNL     1      27.768   4.808  48.736  1.00  0.00     0.002 A 
HETATM   19  C11 UNL     1      27.579   6.103  48.358  1.00  0.00     0.012 A 
HETATM   20  C12 UNL     1      26.324   6.670  48.382  1.00  0.00    -0.025 A 
HETATM   21  C19 UNL     1      25.259   5.913  48.794  1.00  0.00     0.026 A 
BRANCH  20  22
HETATM   22  C13 UNL     1      26.118   8.062  47.975  1.00  0.00    -0.026 A 
HETATM   23  C14 UNL     1      25.154   8.259  47.011  1.00  0.00     0.012 A 
HETATM   24  C15 UNL     1      24.891   9.558  46.562  1.00  0.00     0.001 A 
HETATM   25  C16 UNL     1      25.590  10.634  47.079  1.00  0.00     0.000 A 
HETATM   26  C17 UNL     1      26.541  10.420  48.034  1.00  0.00     0.001 A 
HETATM   27  C18 UNL     1      26.817   9.141  48.493  1.00  0.00     0.012 A 
ENDBRANCH  20  22
ENDBRANCH   9  16
BRANCH   1  28
HETATM   28  O1  UNL     1      22.324  -1.351  53.474  1.00  0.00    -0.321 OA
BRANCH  28  29
HETATM   29  C1  UNL     1      21.951  -1.900  54.749  1.00  0.00     0.441 C 
BRANCH  29  30
HETATM   30  N1  UNL     1      23.110  -1.764  55.602  1.00  0.00     0.101 N 
HETATM   31  H1  UNL     1      22.938  -2.144  56.558  1.00  0.00     0.315 HD
HETATM   32  H2  UNL     1      23.456  -0.773  55.648  1.00  0.00     0.315 HD
ENDBRANCH  29  30
ENDBRANCH  28  29
ENDBRANCH   1  28
TORSDOF 5
ENDMDL
