MODEL 1
REMARK VINA RESULT:      -8.3      0.000      0.000
REMARK  6 active torsions:
REMARK  status: ('A' for Active; 'I' for Inactive)
REMARK    1  A    between atoms: C8_10  and  C9_11 
REMARK    2  A    between atoms: C9_11  and  C10_12 
REMARK    3  A    between atoms: C20_26  and  O2_27 
REMARK    4  A    between atoms: O2_27  and  C21_28 
REMARK    5  A    between atoms: C21_28  and  C22_29 
REMARK    6  A    between atoms: C22_29  and  N4_30 
ROOT
HETATM    1  C1  UNL     1      17.437   1.904  51.283  1.00  0.00     0.143 C 
HETATM    2  N1  UNL     1      18.709   2.150  51.707  1.00  0.00    -0.408 N 
HETATM    3  C2  UNL     1      19.768   1.188  51.438  1.00  0.00     0.144 C 
HETATM    4  C3  UNL     1      20.029   1.051  49.995  1.00  0.00    -0.004 C 
HETATM    5  C4  UNL     1      20.917   1.321  49.035  1.00  0.00     0.049 C 
HETATM    6  C5  UNL     1      22.220   1.948  48.768  1.00  0.00     0.162 C 
HETATM    7  O1  UNL     1      22.778   1.915  47.611  1.00  0.00    -0.292 OA
HETATM    8  C6  UNL     1      22.968   2.680  49.836  1.00  0.00     0.134 C 
HETATM    9  C7  UNL     1      23.312   1.810  50.935  1.00  0.00     0.001 C 
HETATM   10  C8  UNL     1      23.671   2.190  52.175  1.00  0.00    -0.040 C 
HETATM   11  C16 UNL     1      23.859   3.442  52.910  1.00  0.00     0.119 C 
HETATM   12  N2  UNL     1      23.770   4.705  52.707  1.00  0.00    -0.280 NA
HETATM   13  C17 UNL     1      23.416   5.528  51.575  1.00  0.00     0.297 C 
HETATM   14  N3  UNL     1      22.289   4.969  50.865  1.00  0.00    -0.272 NA
HETATM   15  C18 UNL     1      22.150   3.888  50.217  1.00  0.00     0.048 C 
HETATM   16  C19 UNL     1      20.728   3.957  49.763  1.00  0.00     0.061 C 
HETATM   17  C20 UNL     1      19.433   3.818  50.140  1.00  0.00     0.065 C 
HETATM   18  C23 UNL     1      19.221   3.469  51.568  1.00  0.00     0.181 C 
ENDROOT
BRANCH  10  19
HETATM   19  C9  UNL     1      23.957   1.025  53.057  1.00  0.00     0.075 C 
BRANCH  19  20
HETATM   20  C10 UNL     1      25.380   0.706  53.178  1.00  0.00    -0.059 C 
HETATM   21  C11 UNL     1      26.262   1.431  53.816  1.00  0.00     0.004 C 
HETATM   22  C12 UNL     1      27.547   1.304  53.586  1.00  0.00     0.083 C 
HETATM   23 CL1  UNL     1      28.732   2.597  53.630  1.00  0.00    -0.080 Cl
HETATM   24  C13 UNL     1      27.974  -0.073  53.267  1.00  0.00     0.135 C 
HETATM   25  F1  UNL     1      29.261  -0.448  53.509  1.00  0.00    -0.205 F 
HETATM   26  C14 UNL     1      27.138  -0.954  52.752  1.00  0.00     0.021 C 
HETATM   27  C15 UNL     1      25.732  -0.568  52.482  1.00  0.00     0.065 C 
ENDBRANCH  19  20
ENDBRANCH  10  19
BRANCH  17  28
HETATM   28  O2  UNL     1      18.507   4.031  49.138  1.00  0.00    -0.352 OA
BRANCH  28  29
HETATM   29  C21 UNL     1      18.866   4.304  47.799  1.00  0.00     0.205 C 
BRANCH  29  30
HETATM   30  C22 UNL     1      18.418   3.163  46.884  1.00  0.00     0.293 C 
BRANCH  30  31
HETATM   31  N4  UNL     1      17.399   2.354  47.567  1.00  0.00     0.080 N 
HETATM   32  H23 UNL     1      16.714   3.038  47.998  1.00  0.00     0.312 HD
HETATM   33  H24 UNL     1      17.837   1.786  48.327  1.00  0.00     0.312 HD
ENDBRANCH  30  31
ENDBRANCH  29  30
ENDBRANCH  28  29
ENDBRANCH  17  28
TORSDOF 6
ENDMDL
MODEL 2
REMARK VINA RESULT:      -8.1      3.253      6.098
REMARK  6 active torsions:
REMARK  status: ('A' for Active; 'I' for Inactive)
REMARK    1  A    between atoms: C8_10  and  C9_11 
REMARK    2  A    between atoms: C9_11  and  C10_12 
REMARK    3  A    between atoms: C20_26  and  O2_27 
REMARK    4  A    between atoms: O2_27  and  C21_28 
REMARK    5  A    between atoms: C21_28  and  C22_29 
REMARK    6  A    between atoms: C22_29  and  N4_30 
ROOT
HETATM    1  C1  UNL     1      26.616   2.427  52.921  1.00  0.00     0.143 C 
HETATM    2  N1  UNL     1      25.369   2.110  52.470  1.00  0.00    -0.408 N 
HETATM    3  C2  UNL     1      24.199   2.765  53.035  1.00  0.00     0.144 C 
HETATM    4  C3  UNL     1      24.187   4.210  52.745  1.00  0.00    -0.004 C 
HETATM    5  C4  UNL     1      23.572   5.156  52.032  1.00  0.00     0.049 C 
HETATM    6  C5  UNL     1      22.505   5.393  51.049  1.00  0.00     0.162 C 
HETATM    7  O1  UNL     1      22.177   6.572  50.655  1.00  0.00    -0.292 OA
HETATM    8  C6  UNL     1      21.744   4.262  50.433  1.00  0.00     0.134 C 
HETATM    9  C7  UNL     1      21.025   3.503  51.427  1.00  0.00     0.001 C 
HETATM   10  C8  UNL     1      20.531   2.259  51.282  1.00  0.00    -0.040 C 
HETATM   11  C16 UNL     1      20.481   1.230  50.241  1.00  0.00     0.119 C 
HETATM   12  N2  UNL     1      20.872   1.058  49.033  1.00  0.00    -0.280 NA
HETATM   13  C17 UNL     1      21.597   1.861  48.077  1.00  0.00     0.297 C 
HETATM   14  N3  UNL     1      22.691   2.556  48.714  1.00  0.00    -0.272 NA
HETATM   15  C18 UNL     1      22.715   3.460  49.604  1.00  0.00     0.048 C 
HETATM   16  C19 UNL     1      24.178   3.699  49.791  1.00  0.00     0.061 C 
HETATM   17  C20 UNL     1      25.320   3.220  50.343  1.00  0.00     0.065 C 
HETATM   18  C23 UNL     1      25.184   1.934  51.072  1.00  0.00     0.181 C 
ENDROOT
BRANCH  10  19
HETATM   19  C9  UNL     1      19.844   1.781  52.514  1.00  0.00     0.075 C 
BRANCH  19  20
HETATM   20  C10 UNL     1      20.512   0.657  53.171  1.00  0.00    -0.059 C 
HETATM   21  C11 UNL     1      21.748   0.663  53.598  1.00  0.00     0.004 C 
HETATM   22  C12 UNL     1      22.396  -0.453  53.832  1.00  0.00     0.083 C 
HETATM   23 CL1  UNL     1      24.112  -0.718  53.580  1.00  0.00    -0.080 Cl
HETATM   24  C13 UNL     1      21.552  -1.547  54.353  1.00  0.00     0.135 C 
HETATM   25  F1  UNL     1      22.122  -2.535  55.097  1.00  0.00    -0.205 F 
HETATM   26  C14 UNL     1      20.256  -1.595  54.114  1.00  0.00     0.021 C 
HETATM   27  C15 UNL     1      19.615  -0.529  53.306  1.00  0.00     0.065 C 
ENDBRANCH  19  20
ENDBRANCH  10  19
BRANCH  17  28
HETATM   28  O2  UNL     1      26.440   4.001  50.135  1.00  0.00    -0.352 OA
BRANCH  28  29
HETATM   29  C21 UNL     1      26.452   5.125  49.279  1.00  0.00     0.205 C 
BRANCH  29  30
HETATM   30  C22 UNL     1      27.781   5.208  48.526  1.00  0.00     0.293 C 
BRANCH  30  31
HETATM   31  N4  UNL     1      28.442   6.485  48.831  1.00  0.00     0.080 N 
HETATM   32  H23 UNL     1      29.304   6.529  48.216  1.00  0.00     0.312 HD
HETATM   33  H24 UNL     1      28.739   6.509  49.833  1.00  0.00     0.312 HD
ENDBRANCH  30  31
ENDBRANCH  29  30
ENDBRANCH  28  29
ENDBRANCH  17  28
TORSDOF 6
ENDMDL
MODEL 3
REMARK VINA RESULT:      -7.7      1.820      2.295
REMARK  6 active torsions:
REMARK  status: ('A' for Active; 'I' for Inactive)
REMARK    1  A    between atoms: C8_10  and  C9_11 
REMARK    2  A    between atoms: C9_11  and  C10_12 
REMARK    3  A    between atoms: C20_26  and  O2_27 
REMARK    4  A    between atoms: O2_27  and  C21_28 
REMARK    5  A    between atoms: C21_28  and  C22_29 
REMARK    6  A    between atoms: C22_29  and  N4_30 
ROOT
HETATM    1  C1  UNL     1      19.919  -0.136  52.876  1.00  0.00     0.143 C 
HETATM    2  N1  UNL     1      20.916   0.745  52.579  1.00  0.00    -0.408 N 
HETATM    3  C2  UNL     1      21.765   0.526  51.418  1.00  0.00     0.144 C 
HETATM    4  C3  UNL     1      21.002   0.610  50.159  1.00  0.00    -0.004 C 
HETATM    5  C4  UNL     1      20.809   1.357  49.070  1.00  0.00     0.049 C 
HETATM    6  C5  UNL     1      21.213   2.602  48.400  1.00  0.00     0.162 C 
HETATM    7  O1  UNL     1      20.793   2.924  47.229  1.00  0.00    -0.292 OA
HETATM    8  C6  UNL     1      22.132   3.581  49.058  1.00  0.00     0.134 C 
HETATM    9  C7  UNL     1      23.423   2.996  49.331  1.00  0.00     0.001 C 
HETATM   10  C8  UNL     1      24.347   3.460  50.192  1.00  0.00    -0.040 C 
HETATM   11  C16 UNL     1      24.491   4.583  51.121  1.00  0.00     0.119 C 
HETATM   12  N2  UNL     1      23.821   5.601  51.518  1.00  0.00    -0.280 NA
HETATM   13  C17 UNL     1      22.519   6.143  51.208  1.00  0.00     0.297 C 
HETATM   14  N3  UNL     1      21.539   5.090  51.090  1.00  0.00    -0.272 NA
HETATM   15  C18 UNL     1      21.419   4.133  50.266  1.00  0.00     0.048 C 
HETATM   16  C19 UNL     1      20.188   3.435  50.747  1.00  0.00     0.061 C 
HETATM   17  C20 UNL     1      19.681   2.599  51.686  1.00  0.00     0.065 C 
HETATM   18  C23 UNL     1      20.647   2.135  52.714  1.00  0.00     0.181 C 
ENDROOT
BRANCH  10  19
HETATM   19  C9  UNL     1      25.566   2.605  50.222  1.00  0.00     0.075 C 
BRANCH  19  20
HETATM   20  C10 UNL     1      25.866   2.042  51.539  1.00  0.00    -0.059 C 
HETATM   21  C11 UNL     1      26.975   2.235  52.205  1.00  0.00     0.004 C 
HETATM   22  C12 UNL     1      27.337   1.433  53.178  1.00  0.00     0.083 C 
HETATM   23 CL1  UNL     1      28.985   0.987  53.582  1.00  0.00    -0.080 Cl
HETATM   24  C13 UNL     1      26.214   0.890  53.967  1.00  0.00     0.135 C 
HETATM   25  F1  UNL     1      26.429   0.494  55.252  1.00  0.00    -0.205 F 
HETATM   26  C14 UNL     1      25.002   0.778  53.458  1.00  0.00     0.021 C 
HETATM   27  C15 UNL     1      24.745   1.204  52.061  1.00  0.00     0.065 C 
ENDBRANCH  19  20
ENDBRANCH  10  19
BRANCH  17  28
HETATM   28  O2  UNL     1      18.337   2.313  51.547  1.00  0.00    -0.352 OA
BRANCH  28  29
HETATM   29  C21 UNL     1      17.614   2.550  50.356  1.00  0.00     0.205 C 
BRANCH  29  30
HETATM   30  C22 UNL     1      16.658   1.391  50.073  1.00  0.00     0.293 C 
BRANCH  30  31
HETATM   31  N4  UNL     1      17.418   0.233  49.581  1.00  0.00     0.080 N 
HETATM   32  H23 UNL     1      17.633   0.427  48.562  1.00  0.00     0.312 HD
HETATM   33  H24 UNL     1      16.838  -0.634  49.646  1.00  0.00     0.312 HD
ENDBRANCH  30  31
ENDBRANCH  29  30
ENDBRANCH  28  29
ENDBRANCH  17  28
TORSDOF 6
ENDMDL
MODEL 4
REMARK VINA RESULT:      -7.7      3.825      6.213
REMARK  6 active torsions:
REMARK  status: ('A' for Active; 'I' for Inactive)
REMARK    1  A    between atoms: C8_10  and  C9_11 
REMARK    2  A    between atoms: C9_11  and  C10_12 
REMARK    3  A    between atoms: C20_26  and  O2_27 
REMARK    4  A    between atoms: O2_27  and  C21_28 
REMARK    5  A    between atoms: C21_28  and  C22_29 
REMARK    6  A    between atoms: C22_29  and  N4_30 
ROOT
HETATM    1  C1  UNL     1      23.083   8.426  49.687  1.00  0.00     0.143 C 
HETATM    2  N1  UNL     1      23.078   7.241  50.363  1.00  0.00    -0.408 N 
HETATM    3  C2  UNL     1      21.971   6.311  50.199  1.00  0.00     0.144 C 
HETATM    4  C3  UNL     1      21.893   5.791  48.822  1.00  0.00    -0.004 C 
HETATM    5  C4  UNL     1      22.075   4.698  48.076  1.00  0.00     0.049 C 
HETATM    6  C5  UNL     1      22.488   3.288  48.122  1.00  0.00     0.162 C 
HETATM    7  O1  UNL     1      22.442   2.521  47.091  1.00  0.00    -0.292 OA
HETATM    8  C6  UNL     1      23.005   2.665  49.379  1.00  0.00     0.134 C 
HETATM    9  C7  UNL     1      22.014   2.685  50.428  1.00  0.00     0.001 C 
HETATM   10  C8  UNL     1      22.239   2.527  51.746  1.00  0.00    -0.040 C 
HETATM   11  C16 UNL     1      23.386   2.300  52.626  1.00  0.00     0.119 C 
HETATM   12  N2  UNL     1      24.656   2.152  52.541  1.00  0.00    -0.280 NA
HETATM   13  C17 UNL     1      25.605   2.142  51.453  1.00  0.00     0.297 C 
HETATM   14  N3  UNL     1      25.298   3.176  50.493  1.00  0.00    -0.272 NA
HETATM   15  C18 UNL     1      24.305   3.347  49.723  1.00  0.00     0.048 C 
HETATM   16  C19 UNL     1      24.647   4.622  49.022  1.00  0.00     0.061 C 
HETATM   17  C20 UNL     1      24.704   5.972  49.137  1.00  0.00     0.065 C 
HETATM   18  C23 UNL     1      24.296   6.516  50.457  1.00  0.00     0.181 C 
ENDROOT
BRANCH  10  19
HETATM   19  C9  UNL     1      20.983   2.605  52.542  1.00  0.00     0.075 C 
BRANCH  19  20
HETATM   20  C10 UNL     1      20.424   1.301  52.900  1.00  0.00    -0.059 C 
HETATM   21  C11 UNL     1      20.828   0.558  53.898  1.00  0.00     0.004 C 
HETATM   22  C12 UNL     1      20.559  -0.724  53.949  1.00  0.00     0.083 C 
HETATM   23 CL1  UNL     1      21.601  -1.968  54.617  1.00  0.00    -0.080 Cl
HETATM   24  C13 UNL     1      19.248  -1.092  53.378  1.00  0.00     0.135 C 
HETATM   25  F1  UNL     1      18.629  -2.229  53.803  1.00  0.00    -0.205 F 
HETATM   26  C14 UNL     1      18.658  -0.348  52.464  1.00  0.00     0.021 C 
HETATM   27  C15 UNL     1      19.314   0.895  51.987  1.00  0.00     0.065 C 
ENDBRANCH  19  20
ENDBRANCH  10  19
BRANCH  17  28
HETATM   28  O2  UNL     1      25.142   6.635  48.008  1.00  0.00    -0.352 OA
BRANCH  28  29
HETATM   29  C21 UNL     1      26.026   7.737  48.051  1.00  0.00     0.205 C 
BRANCH  29  30
HETATM   30  C22 UNL     1      27.383   7.312  48.613  1.00  0.00     0.293 C 
BRANCH  30  31
HETATM   31  N4  UNL     1      27.697   8.111  49.806  1.00  0.00     0.080 N 
HETATM   32  H23 UNL     1      28.453   7.584  50.328  1.00  0.00     0.312 HD
HETATM   33  H24 UNL     1      26.855   8.192  50.419  1.00  0.00     0.312 HD
ENDBRANCH  30  31
ENDBRANCH  29  30
ENDBRANCH  28  29
ENDBRANCH  17  28
TORSDOF 6
ENDMDL
MODEL 5
REMARK VINA RESULT:      -7.7      2.360      2.708
REMARK  6 active torsions:
REMARK  status: ('A' for Active; 'I' for Inactive)
REMARK    1  A    between atoms: C8_10  and  C9_11 
REMARK    2  A    between atoms: C9_11  and  C10_12 
REMARK    3  A    between atoms: C20_26  and  O2_27 
REMARK    4  A    between atoms: O2_27  and  C21_28 
REMARK    5  A    between atoms: C21_28  and  C22_29 
REMARK    6  A    between atoms: C22_29  and  N4_30 
ROOT
HETATM    1  C1  UNL     1      18.428   0.181  51.122  1.00  0.00     0.143 C 
HETATM    2  N1  UNL     1      19.613   0.741  51.495  1.00  0.00    -0.408 N 
HETATM    3  C2  UNL     1      20.836   0.414  50.777  1.00  0.00     0.144 C 
HETATM    4  C3  UNL     1      20.791   0.879  49.380  1.00  0.00    -0.004 C 
HETATM    5  C4  UNL     1      21.300   1.776  48.531  1.00  0.00     0.049 C 
HETATM    6  C5  UNL     1      22.232   2.907  48.421  1.00  0.00     0.162 C 
HETATM    7  O1  UNL     1      22.492   3.481  47.301  1.00  0.00    -0.292 OA
HETATM    8  C6  UNL     1      22.925   3.469  49.621  1.00  0.00     0.134 C 
HETATM    9  C7  UNL     1      23.774   2.486  50.252  1.00  0.00     0.001 C 
HETATM   10  C8  UNL     1      24.263   2.536  51.505  1.00  0.00    -0.040 C 
HETATM   11  C16 UNL     1      24.197   3.439  52.655  1.00  0.00     0.119 C 
HETATM   12  N2  UNL     1      23.660   4.558  52.977  1.00  0.00    -0.280 NA
HETATM   13  C17 UNL     1      22.811   5.508  52.298  1.00  0.00     0.297 C 
HETATM   14  N3  UNL     1      21.795   4.830  51.527  1.00  0.00    -0.272 NA
HETATM   15  C18 UNL     1      21.870   4.063  50.518  1.00  0.00     0.048 C 
HETATM   16  C19 UNL     1      20.438   3.725  50.255  1.00  0.00     0.061 C 
HETATM   17  C20 UNL     1      19.381   2.979  50.659  1.00  0.00     0.065 C 
HETATM   18  C23 UNL     1      19.624   2.119  51.845  1.00  0.00     0.181 C 
ENDROOT
BRANCH  10  19
HETATM   19  C9  UNL     1      25.104   1.350  51.826  1.00  0.00     0.075 C 
BRANCH  19  20
HETATM   20  C10 UNL     1      24.557   0.501  52.885  1.00  0.00    -0.059 C 
HETATM   21  C11 UNL     1      23.328   0.057  52.933  1.00  0.00     0.004 C 
HETATM   22  C12 UNL     1      22.800  -0.374  54.053  1.00  0.00     0.083 C 
HETATM   23 CL1  UNL     1      21.120  -0.203  54.529  1.00  0.00    -0.080 Cl
HETATM   24  C13 UNL     1      23.753  -1.055  54.951  1.00  0.00     0.135 C 
HETATM   25  F1  UNL     1      23.290  -1.966  55.852  1.00  0.00    -0.205 F 
HETATM   26  C14 UNL     1      25.047  -0.803  54.906  1.00  0.00     0.021 C 
HETATM   27  C15 UNL     1      25.573   0.185  53.933  1.00  0.00     0.065 C 
ENDBRANCH  19  20
ENDBRANCH  10  19
BRANCH  17  28
HETATM   28  O2  UNL     1      18.233   3.140  49.908  1.00  0.00    -0.352 OA
BRANCH  28  29
HETATM   29  C21 UNL     1      18.131   4.057  48.837  1.00  0.00     0.205 C 
BRANCH  29  30
HETATM   30  C22 UNL     1      16.697   4.099  48.307  1.00  0.00     0.293 C 
BRANCH  30  31
HETATM   31  N4  UNL     1      15.906   5.054  49.096  1.00  0.00     0.080 N 
HETATM   32  H23 UNL     1      16.036   6.000  48.637  1.00  0.00     0.312 HD
HETATM   33  H24 UNL     1      16.266   5.099  50.076  1.00  0.00     0.312 HD
ENDBRANCH  30  31
ENDBRANCH  29  30
ENDBRANCH  28  29
ENDBRANCH  17  28
TORSDOF 6
ENDMDL
MODEL 6
REMARK VINA RESULT:      -7.4      2.875      4.681
REMARK  6 active torsions:
REMARK  status: ('A' for Active; 'I' for Inactive)
REMARK    1  A    between atoms: C8_10  and  C9_11 
REMARK    2  A    between atoms: C9_11  and  C10_12 
REMARK    3  A    between atoms: C20_26  and  O2_27 
REMARK    4  A    between atoms: O2_27  and  C21_28 
REMARK    5  A    between atoms: C21_28  and  C22_29 
REMARK    6  A    between atoms: C22_29  and  N4_30 
ROOT
HETATM    1  C1  UNL     1      21.917   3.907  45.743  1.00  0.00     0.143 C 
HETATM    2  N1  UNL     1      21.395   3.307  46.851  1.00  0.00    -0.408 N 
HETATM    3  C2  UNL     1      22.277   2.786  47.884  1.00  0.00     0.144 C 
HETATM    4  C3  UNL     1      23.042   3.859  48.543  1.00  0.00    -0.004 C 
HETATM    5  C4  UNL     1      23.170   4.540  49.685  1.00  0.00     0.049 C 
HETATM    6  C5  UNL     1      22.628   4.688  51.043  1.00  0.00     0.162 C 
HETATM    7  O1  UNL     1      23.143   5.485  51.909  1.00  0.00    -0.292 OA
HETATM    8  C6  UNL     1      21.424   3.922  51.492  1.00  0.00     0.134 C 
HETATM    9  C7  UNL     1      21.656   2.498  51.453  1.00  0.00     0.001 C 
HETATM   10  C8  UNL     1      20.717   1.533  51.459  1.00  0.00    -0.040 C 
HETATM   11  C16 UNL     1      19.256   1.447  51.499  1.00  0.00     0.119 C 
HETATM   12  N2  UNL     1      18.243   2.230  51.546  1.00  0.00    -0.280 NA
HETATM   13  C17 UNL     1      18.068   3.663  51.583  1.00  0.00     0.297 C 
HETATM   14  N3  UNL     1      18.986   4.316  50.679  1.00  0.00    -0.272 NA
HETATM   15  C18 UNL     1      20.252   4.396  50.670  1.00  0.00     0.048 C 
HETATM   16  C19 UNL     1      20.523   5.210  49.447  1.00  0.00     0.061 C 
HETATM   17  C20 UNL     1      20.583   5.193  48.092  1.00  0.00     0.065 C 
HETATM   18  C23 UNL     1      20.251   3.893  47.457  1.00  0.00     0.181 C 
ENDROOT
BRANCH  10  19
HETATM   19  C9  UNL     1      21.314   0.170  51.410  1.00  0.00     0.075 C 
BRANCH  19  20
HETATM   20  C10 UNL     1      22.023  -0.214  52.632  1.00  0.00    -0.059 C 
HETATM   21  C11 UNL     1      23.260   0.101  52.914  1.00  0.00     0.004 C 
HETATM   22  C12 UNL     1      23.945  -0.559  53.817  1.00  0.00     0.083 C 
HETATM   23 CL1  UNL     1      25.668  -0.889  53.760  1.00  0.00    -0.080 Cl
HETATM   24  C13 UNL     1      23.141  -1.042  54.956  1.00  0.00     0.135 C 
HETATM   25  F1  UNL     1      23.747  -1.267  56.155  1.00  0.00    -0.205 F 
HETATM   26  C14 UNL     1      21.846  -1.262  54.845  1.00  0.00     0.021 C 
HETATM   27  C15 UNL     1      21.165  -1.023  53.549  1.00  0.00     0.065 C 
ENDBRANCH  19  20
ENDBRANCH  10  19
BRANCH  17  28
HETATM   28  O2  UNL     1      20.936   6.394  47.510  1.00  0.00    -0.352 OA
BRANCH  28  29
HETATM   29  C21 UNL     1      21.042   7.604  48.233  1.00  0.00     0.205 C 
BRANCH  29  30
HETATM   30  C22 UNL     1      22.511   7.970  48.449  1.00  0.00     0.293 C 
BRANCH  30  31
HETATM   31  N4  UNL     1      22.780   8.104  49.887  1.00  0.00     0.080 N 
HETATM   32  H23 UNL     1      22.667   7.136  50.304  1.00  0.00     0.312 HD
HETATM   33  H24 UNL     1      22.084   8.746  50.327  1.00  0.00     0.312 HD
ENDBRANCH  30  31
ENDBRANCH  29  30
ENDBRANCH  28  29
ENDBRANCH  17  28
TORSDOF 6
ENDMDL
MODEL 7
REMARK VINA RESULT:      -7.4      4.536      7.347
REMARK  6 active torsions:
REMARK  status: ('A' for Active; 'I' for Inactive)
REMARK    1  A    between atoms: C8_10  and  C9_11 
REMARK    2  A    between atoms: C9_11  and  C10_12 
REMARK    3  A    between atoms: C20_26  and  O2_27 
REMARK    4  A    between atoms: O2_27  and  C21_28 
REMARK    5  A    between atoms: C21_28  and  C22_29 
REMARK    6  A    between atoms: C22_29  and  N4_30 
ROOT
HETATM    1  C1  UNL     1      22.477   6.287  51.265  1.00  0.00     0.143 C 
HETATM    2  N1  UNL     1      21.926   5.111  51.684  1.00  0.00    -0.408 N 
HETATM    3  C2  UNL     1      20.875   4.478  50.903  1.00  0.00     0.144 C 
HETATM    4  C3  UNL     1      21.360   4.046  49.580  1.00  0.00    -0.004 C 
HETATM    5  C4  UNL     1      21.661   2.972  48.846  1.00  0.00     0.049 C 
HETATM    6  C5  UNL     1      21.725   1.503  48.865  1.00  0.00     0.162 C 
HETATM    7  O1  UNL     1      22.026   0.811  47.826  1.00  0.00    -0.292 OA
HETATM    8  C6  UNL     1      21.455   0.726  50.115  1.00  0.00     0.134 C 
HETATM    9  C7  UNL     1      20.110   0.939  50.592  1.00  0.00     0.001 C 
HETATM   10  C8  UNL     1      19.649   0.681  51.830  1.00  0.00    -0.040 C 
HETATM   11  C16 UNL     1      20.175   0.153  53.090  1.00  0.00     0.119 C 
HETATM   12  N2  UNL     1      21.280  -0.289  53.568  1.00  0.00    -0.280 NA
HETATM   13  C17 UNL     1      22.609  -0.482  53.038  1.00  0.00     0.297 C 
HETATM   14  N3  UNL     1      22.997   0.633  52.206  1.00  0.00    -0.272 NA
HETATM   15  C18 UNL     1      22.540   1.066  51.104  1.00  0.00     0.048 C 
HETATM   16  C19 UNL     1      23.409   2.250  50.829  1.00  0.00     0.061 C 
HETATM   17  C20 UNL     1      23.662   3.541  51.154  1.00  0.00     0.065 C 
HETATM   18  C23 UNL     1      22.791   4.114  52.211  1.00  0.00     0.181 C 
ENDROOT
BRANCH  10  19
HETATM   19  C9  UNL     1      18.207   1.023  51.975  1.00  0.00     0.075 C 
BRANCH  19  20
HETATM   20  C10 UNL     1      17.319  -0.140  52.001  1.00  0.00    -0.059 C 
HETATM   21  C11 UNL     1      17.203  -0.975  53.001  1.00  0.00     0.004 C 
HETATM   22  C12 UNL     1      16.691  -2.172  52.837  1.00  0.00     0.083 C 
HETATM   23 CL1  UNL     1      17.179  -3.623  53.694  1.00  0.00    -0.080 Cl
HETATM   24  C13 UNL     1      15.615  -2.239  51.830  1.00  0.00     0.135 C 
HETATM   25  F1  UNL     1      14.681  -3.227  51.914  1.00  0.00    -0.205 F 
HETATM   26  C14 UNL     1      15.532  -1.365  50.846  1.00  0.00     0.021 C 
HETATM   27  C15 UNL     1      16.538  -0.280  50.736  1.00  0.00     0.065 C 
ENDBRANCH  19  20
ENDBRANCH  10  19
BRANCH  17  28
HETATM   28  O2  UNL     1      24.700   4.126  50.455  1.00  0.00    -0.352 OA
BRANCH  28  29
HETATM   29  C21 UNL     1      25.929   3.473  50.204  1.00  0.00     0.205 C 
BRANCH  29  30
HETATM   30  C22 UNL     1      26.785   4.300  49.244  1.00  0.00     0.293 C 
BRANCH  30  31
HETATM   31  N4  UNL     1      26.678   5.725  49.588  1.00  0.00     0.080 N 
HETATM   32  H23 UNL     1      26.912   5.802  50.619  1.00  0.00     0.312 HD
HETATM   33  H24 UNL     1      25.700   6.061  49.437  1.00  0.00     0.312 HD
ENDBRANCH  30  31
ENDBRANCH  29  30
ENDBRANCH  28  29
ENDBRANCH  17  28
TORSDOF 6
ENDMDL
MODEL 8
REMARK VINA RESULT:      -7.3      8.521     10.220
REMARK  6 active torsions:
REMARK  status: ('A' for Active; 'I' for Inactive)
REMARK    1  A    between atoms: C8_10  and  C9_11 
REMARK    2  A    between atoms: C9_11  and  C10_12 
REMARK    3  A    between atoms: C20_26  and  O2_27 
REMARK    4  A    between atoms: O2_27  and  C21_28 
REMARK    5  A    between atoms: C21_28  and  C22_29 
REMARK    6  A    between atoms: C22_29  and  N4_30 
ROOT
HETATM    1  C1  UNL     1      25.225   8.333  50.415  1.00  0.00     0.143 C 
HETATM    2  N1  UNL     1      26.522   8.099  50.068  1.00  0.00    -0.408 N 
HETATM    3  C2  UNL     1      26.834   7.200  48.967  1.00  0.00     0.144 C 
HETATM    4  C3  UNL     1      26.342   7.720  47.679  1.00  0.00    -0.004 C 
HETATM    5  C4  UNL     1      26.731   8.240  46.513  1.00  0.00     0.049 C 
HETATM    6  C5  UNL     1      27.907   8.657  45.735  1.00  0.00     0.162 C 
HETATM    7  O1  UNL     1      27.821   9.073  44.522  1.00  0.00    -0.292 OA
HETATM    8  C6  UNL     1      29.282   8.635  46.324  1.00  0.00     0.134 C 
HETATM    9  C7  UNL     1      29.675   7.299  46.704  1.00  0.00     0.001 C 
HETATM   10  C8  UNL     1      30.669   6.965  47.547  1.00  0.00    -0.040 C 
HETATM   11  C16 UNL     1      31.672   7.655  48.361  1.00  0.00     0.119 C 
HETATM   12  N2  UNL     1      32.044   8.852  48.627  1.00  0.00    -0.280 NA
HETATM   13  C17 UNL     1      31.609  10.165  48.214  1.00  0.00     0.297 C 
HETATM   14  N3  UNL     1      30.168  10.239  48.168  1.00  0.00    -0.272 NA
HETATM   15  C18 UNL     1      29.314   9.646  47.442  1.00  0.00     0.048 C 
HETATM   16  C19 UNL     1      28.017  10.192  47.945  1.00  0.00     0.061 C 
HETATM   17  C20 UNL     1      27.103  10.139  48.945  1.00  0.00     0.065 C 
HETATM   18  C23 UNL     1      27.421   9.200  50.050  1.00  0.00     0.181 C 
ENDROOT
BRANCH  10  19
HETATM   19  C9  UNL     1      30.796   5.491  47.710  1.00  0.00     0.075 C 
BRANCH  19  20
HETATM   20  C10 UNL     1      31.962   4.916  47.037  1.00  0.00    -0.059 C 
HETATM   21  C11 UNL     1      32.476   5.355  45.918  1.00  0.00     0.004 C 
HETATM   22  C12 UNL     1      33.262   4.603  45.185  1.00  0.00     0.083 C 
HETATM   23 CL1  UNL     1      33.351   4.611  43.433  1.00  0.00    -0.080 Cl
HETATM   24  C13 UNL     1      34.124   3.689  45.960  1.00  0.00     0.135 C 
HETATM   25  F1  UNL     1      35.294   3.251  45.418  1.00  0.00    -0.205 F 
HETATM   26  C14 UNL     1      33.789   3.282  47.169  1.00  0.00     0.021 C 
HETATM   27  C15 UNL     1      32.519   3.746  47.779  1.00  0.00     0.065 C 
ENDBRANCH  19  20
ENDBRANCH  10  19
BRANCH  17  28
HETATM   28  O2  UNL     1      26.016  10.976  48.785  1.00  0.00    -0.352 OA
BRANCH  28  29
HETATM   29  C21 UNL     1      25.755  11.688  47.592  1.00  0.00     0.205 C 
BRANCH  29  30
HETATM   30  C22 UNL     1      25.588  13.179  47.887  1.00  0.00     0.293 C 
BRANCH  30  31
HETATM   31  N4  UNL     1      26.882  13.752  48.286  1.00  0.00     0.080 N 
HETATM   32  H23 UNL     1      27.068  14.558  47.624  1.00  0.00     0.312 HD
HETATM   33  H24 UNL     1      27.640  13.042  48.178  1.00  0.00     0.312 HD
ENDBRANCH  30  31
ENDBRANCH  29  30
ENDBRANCH  28  29
ENDBRANCH  17  28
TORSDOF 6
ENDMDL
MODEL 9
REMARK VINA RESULT:      -7.0     10.193     12.377
REMARK  6 active torsions:
REMARK  status: ('A' for Active; 'I' for Inactive)
REMARK    1  A    between atoms: C8_10  and  C9_11 
REMARK    2  A    between atoms: C9_11  and  C10_12 
REMARK    3  A    between atoms: C20_26  and  O2_27 
REMARK    4  A    between atoms: O2_27  and  C21_28 
REMARK    5  A    between atoms: C21_28  and  C22_29 
REMARK    6  A    between atoms: C22_29  and  N4_30 
ROOT
HETATM    1  C1  UNL     1      32.285   9.844  43.318  1.00  0.00     0.143 C 
HETATM    2  N1  UNL     1      32.112   8.932  44.317  1.00  0.00    -0.408 N 
HETATM    3  C2  UNL     1      32.866   9.053  45.555  1.00  0.00     0.144 C 
HETATM    4  C3  UNL     1      32.510  10.276  46.296  1.00  0.00    -0.004 C 
HETATM    5  C4  UNL     1      31.887  10.726  47.388  1.00  0.00     0.049 C 
HETATM    6  C5  UNL     1      31.128  10.309  48.576  1.00  0.00     0.162 C 
HETATM    7  O1  UNL     1      30.748  11.140  49.480  1.00  0.00    -0.292 OA
HETATM    8  C6  UNL     1      30.737   8.882  48.792  1.00  0.00     0.134 C 
HETATM    9  C7  UNL     1      31.894   8.026  48.902  1.00  0.00     0.001 C 
HETATM   10  C8  UNL     1      31.917   6.687  48.762  1.00  0.00    -0.040 C 
HETATM   11  C16 UNL     1      30.962   5.615  48.477  1.00  0.00     0.119 C 
HETATM   12  N2  UNL     1      29.711   5.472  48.240  1.00  0.00    -0.280 NA
HETATM   13  C17 UNL     1      28.587   6.374  48.140  1.00  0.00     0.297 C 
HETATM   14  N3  UNL     1      28.954   7.573  47.425  1.00  0.00    -0.272 NA
HETATM   15  C18 UNL     1      29.772   8.504  47.697  1.00  0.00     0.048 C 
HETATM   16  C19 UNL     1      29.648   9.408  46.514  1.00  0.00     0.061 C 
HETATM   17  C20 UNL     1      29.983   9.587  45.212  1.00  0.00     0.065 C 
HETATM   18  C23 UNL     1      30.790   8.497  44.607  1.00  0.00     0.181 C 
ENDROOT
BRANCH  10  19
HETATM   19  C9  UNL     1      33.285   6.128  48.942  1.00  0.00     0.075 C 
BRANCH  19  20
HETATM   20  C10 UNL     1      33.784   5.390  47.780  1.00  0.00    -0.059 C 
HETATM   21  C11 UNL     1      33.758   5.824  46.547  1.00  0.00     0.004 C 
HETATM   22  C12 UNL     1      33.868   5.002  45.531  1.00  0.00     0.083 C 
HETATM   23 CL1  UNL     1      33.070   5.175  43.978  1.00  0.00    -0.080 Cl
HETATM   24  C13 UNL     1      34.756   3.849  45.776  1.00  0.00     0.135 C 
HETATM   25  F1  UNL     1      35.357   3.230  44.722  1.00  0.00    -0.205 F 
HETATM   26  C14 UNL     1      34.984   3.399  46.995  1.00  0.00     0.021 C 
HETATM   27  C15 UNL     1      34.341   4.057  48.158  1.00  0.00     0.065 C 
ENDBRANCH  19  20
ENDBRANCH  10  19
BRANCH  17  28
HETATM   28  O2  UNL     1      29.514  10.755  44.644  1.00  0.00    -0.352 OA
BRANCH  28  29
HETATM   29  C21 UNL     1      28.920  11.796  45.393  1.00  0.00     0.205 C 
BRANCH  29  30
HETATM   30  C22 UNL     1      29.768  13.066  45.307  1.00  0.00     0.293 C 
BRANCH  30  31
HETATM   31  N4  UNL     1      29.980  13.611  46.656  1.00  0.00     0.080 N 
HETATM   32  H23 UNL     1      29.057  14.037  46.954  1.00  0.00     0.312 HD
HETATM   33  H24 UNL     1      30.708  14.359  46.633  1.00  0.00     0.312 HD
ENDBRANCH  30  31
ENDBRANCH  29  30
ENDBRANCH  28  29
ENDBRANCH  17  28
TORSDOF 6
ENDMDL
