MODEL 1
REMARK VINA RESULT:      -8.1      0.000      0.000
REMARK  3 active torsions:
REMARK  status: ('A' for Active; 'I' for Inactive)
REMARK    1  A    between atoms: C2_2  and  C3_3 
REMARK       I    between atoms: C3_3  and  N1_5 
REMARK    2  A    between atoms: N1_5  and  C4_6 
REMARK    3  A    between atoms: C5_7  and  O2_8 
ROOT
HETATM    1  C4  UNL     1      20.625   2.096  52.285  1.00  0.00     0.381 C 
HETATM    2  C5  UNL     1      22.015   1.497  52.160  1.00  0.00     0.095 C 
HETATM    3  C7  UNL     1      22.924   1.875  53.085  1.00  0.00     0.019 C 
HETATM    4  C8  UNL     1      24.290   1.534  53.266  1.00  0.00     0.044 C 
HETATM    5  C9  UNL     1      24.447   0.079  53.469  1.00  0.00     0.024 C 
HETATM    6  C10 UNL     1      25.689  -0.569  53.934  1.00  0.00     0.037 C 
HETATM    7  C11 UNL     1      26.081  -1.635  52.901  1.00  0.00     0.030 C 
HETATM    8  C12 UNL     1      26.709  -0.939  51.604  1.00  0.00     0.124 C 
HETATM    9  N2  UNL     1      26.818   0.386  52.234  1.00  0.00    -0.377 N 
HETATM   10  C13 UNL     1      27.879   0.053  53.235  1.00  0.00     0.177 C 
HETATM   11  C14 UNL     1      26.795   0.445  54.261  1.00  0.00     0.029 C 
HETATM   12  N3  UNL     1      27.635   1.387  54.657  1.00  0.00    -0.290 NA
HETATM   13  C15 UNL     1      27.697   2.446  53.542  1.00  0.00     0.205 C 
HETATM   14  C16 UNL     1      26.573   1.834  52.664  1.00  0.00     0.032 C 
HETATM   15  C17 UNL     1      25.272   2.203  52.305  1.00  0.00    -0.031 C 
HETATM   16  C18 UNL     1      24.951   3.093  51.188  1.00  0.00     0.153 C 
HETATM   17  N4  UNL     1      24.008   4.074  51.240  1.00  0.00    -0.408 N 
HETATM   18  C19 UNL     1      23.507   4.754  52.339  1.00  0.00     0.119 C 
HETATM   19  C20 UNL     1      21.957   4.765  52.268  1.00  0.00     0.055 C 
HETATM   20  C21 UNL     1      21.606   3.863  51.150  1.00  0.00     0.228 C 
HETATM   21  C22 UNL     1      22.031   4.568  49.882  1.00  0.00     0.055 C 
HETATM   22  C23 UNL     1      23.581   4.615  49.970  1.00  0.00     0.119 C 
HETATM   23  N5  UNL     1      20.440   3.081  51.174  1.00  0.00     0.118 N 
HETATM   24  C24 UNL     1      19.307   3.939  51.584  1.00  0.00     0.313 C 
ENDROOT
BRANCH   1  25
HETATM   25  N1  UNL     1      19.578   1.165  52.316  1.00  0.00    -0.322 N 
HETATM   26  C3  UNL     1      19.433  -0.031  53.051  1.00  0.00     0.242 C 
HETATM   27  O1  UNL     1      20.392  -0.346  53.832  1.00  0.00    -0.269 OA
HETATM   28  H4  UNL     1      18.729   1.354  51.703  1.00  0.00     0.165 HD
BRANCH  26  29
HETATM   29  C2  UNL     1      18.337  -0.976  53.052  1.00  0.00     0.064 C 
HETATM   30  C1  UNL     1      17.327  -0.764  52.221  1.00  0.00     0.017 C 
ENDBRANCH  26  29
ENDBRANCH   1  25
BRANCH   2  31
HETATM   31  O2  UNL     1      22.529   0.612  51.238  1.00  0.00    -0.356 OA
HETATM   32  C6  UNL     1      21.950   0.320  50.007  1.00  0.00     0.209 C 
ENDBRANCH   2  31
TORSDOF 3
ENDMDL
MODEL 2
REMARK VINA RESULT:      -7.9      2.218      6.378
REMARK  3 active torsions:
REMARK  status: ('A' for Active; 'I' for Inactive)
REMARK    1  A    between atoms: C2_2  and  C3_3 
REMARK       I    between atoms: C3_3  and  N1_5 
REMARK    2  A    between atoms: N1_5  and  C4_6 
REMARK    3  A    between atoms: C5_7  and  O2_8 
ROOT
HETATM    1  C4  UNL     1      23.939   1.209  53.039  1.00  0.00     0.381 C 
HETATM    2  C5  UNL     1      23.962   2.322  52.006  1.00  0.00     0.095 C 
HETATM    3  C7  UNL     1      23.324   3.467  52.335  1.00  0.00     0.019 C 
HETATM    4  C8  UNL     1      23.135   4.683  51.628  1.00  0.00     0.044 C 
HETATM    5  C9  UNL     1      24.433   5.308  51.299  1.00  0.00     0.024 C 
HETATM    6  C10 UNL     1      24.591   6.688  50.799  1.00  0.00     0.037 C 
HETATM    7  C11 UNL     1      25.368   6.625  49.476  1.00  0.00     0.030 C 
HETATM    8  C12 UNL     1      24.411   6.110  48.301  1.00  0.00     0.124 C 
HETATM    9  N2  UNL     1      23.182   6.228  49.101  1.00  0.00    -0.377 N 
HETATM   10  C13 UNL     1      23.149   7.721  49.210  1.00  0.00     0.177 C 
HETATM   11  C14 UNL     1      23.257   7.443  50.724  1.00  0.00     0.029 C 
HETATM   12  N3  UNL     1      22.093   8.063  50.830  1.00  0.00    -0.290 NA
HETATM   13  C15 UNL     1      21.024   7.143  50.211  1.00  0.00     0.205 C 
HETATM   14  C16 UNL     1      21.962   5.930  49.974  1.00  0.00     0.032 C 
HETATM   15  C17 UNL     1      22.090   4.645  50.513  1.00  0.00    -0.031 C 
HETATM   16  C18 UNL     1      21.322   3.485  50.058  1.00  0.00     0.153 C 
HETATM   17  N4  UNL     1      20.774   2.557  50.892  1.00  0.00    -0.408 N 
HETATM   18  C19 UNL     1      20.399   2.682  52.220  1.00  0.00     0.119 C 
HETATM   19  C20 UNL     1      20.970   1.484  53.025  1.00  0.00     0.055 C 
HETATM   20  C21 UNL     1      21.870   0.773  52.092  1.00  0.00     0.228 C 
HETATM   21  C22 UNL     1      20.983   0.123  51.054  1.00  0.00     0.055 C 
HETATM   22  C23 UNL     1      20.360   1.316  50.278  1.00  0.00     0.119 C 
HETATM   23  N5  UNL     1      23.033   0.128  52.540  1.00  0.00     0.118 N 
HETATM   24  C24 UNL     1      22.692  -0.688  53.725  1.00  0.00     0.313 C 
ENDROOT
BRANCH   1  25
HETATM   25  N1  UNL     1      25.197   0.695  53.386  1.00  0.00    -0.322 N 
HETATM   26  C3  UNL     1      26.308   1.317  53.994  1.00  0.00     0.242 C 
HETATM   27  O1  UNL     1      26.181   2.550  54.299  1.00  0.00    -0.269 OA
HETATM   28  H4  UNL     1      25.387  -0.331  53.178  1.00  0.00     0.165 HD
BRANCH  26  29
HETATM   29  C2  UNL     1      27.599   0.756  54.331  1.00  0.00     0.064 C 
HETATM   30  C1  UNL     1      28.093  -0.191  53.548  1.00  0.00     0.017 C 
ENDBRANCH  26  29
ENDBRANCH   1  25
BRANCH   2  31
HETATM   31  O2  UNL     1      24.532   2.370  50.753  1.00  0.00    -0.356 OA
HETATM   32  C6  UNL     1      25.892   2.531  50.504  1.00  0.00     0.209 C 
ENDBRANCH   2  31
TORSDOF 3
ENDMDL
MODEL 3
REMARK VINA RESULT:      -7.8      2.026      4.947
REMARK  3 active torsions:
REMARK  status: ('A' for Active; 'I' for Inactive)
REMARK    1  A    between atoms: C2_2  and  C3_3 
REMARK       I    between atoms: C3_3  and  N1_5 
REMARK    2  A    between atoms: N1_5  and  C4_6 
REMARK    3  A    between atoms: C5_7  and  O2_8 
ROOT
HETATM    1  C4  UNL     1      22.417   4.139  49.617  1.00  0.00     0.381 C 
HETATM    2  C5  UNL     1      23.362   3.605  50.680  1.00  0.00     0.095 C 
HETATM    3  C7  UNL     1      23.812   2.343  50.511  1.00  0.00     0.019 C 
HETATM    4  C8  UNL     1      24.678   1.533  51.292  1.00  0.00     0.044 C 
HETATM    5  C9  UNL     1      26.007   2.163  51.428  1.00  0.00     0.024 C 
HETATM    6  C10 UNL     1      27.204   1.479  51.955  1.00  0.00     0.037 C 
HETATM    7  C11 UNL     1      27.747   2.310  53.127  1.00  0.00     0.030 C 
HETATM    8  C12 UNL     1      26.828   2.101  54.420  1.00  0.00     0.124 C 
HETATM    9  N2  UNL     1      26.079   0.975  53.841  1.00  0.00    -0.377 N 
HETATM   10  C13 UNL     1      27.197  -0.021  53.805  1.00  0.00     0.177 C 
HETATM   11  C14 UNL     1      26.942   0.003  52.284  1.00  0.00     0.029 C 
HETATM   12  N3  UNL     1      26.669  -1.287  52.399  1.00  0.00    -0.290 NA
HETATM   13  C15 UNL     1      25.329  -1.409  53.146  1.00  0.00     0.205 C 
HETATM   14  C16 UNL     1      25.010   0.110  53.171  1.00  0.00     0.032 C 
HETATM   15  C17 UNL     1      24.066   0.943  52.562  1.00  0.00    -0.031 C 
HETATM   16  C18 UNL     1      22.719   1.176  53.088  1.00  0.00     0.153 C 
HETATM   17  N4  UNL     1      21.597   1.226  52.316  1.00  0.00    -0.408 N 
HETATM   18  C19 UNL     1      21.357   0.657  51.076  1.00  0.00     0.119 C 
HETATM   19  C20 UNL     1      20.741   1.727  50.136  1.00  0.00     0.055 C 
HETATM   20  C21 UNL     1      20.835   3.004  50.875  1.00  0.00     0.228 C 
HETATM   21  C22 UNL     1      19.848   2.913  52.016  1.00  0.00     0.055 C 
HETATM   22  C23 UNL     1      20.425   1.802  52.936  1.00  0.00     0.119 C 
HETATM   23  N5  UNL     1      21.047   4.224  50.212  1.00  0.00     0.118 N 
HETATM   24  C24 UNL     1      20.116   4.303  49.065  1.00  0.00     0.313 C 
ENDROOT
BRANCH   1  25
HETATM   25  N1  UNL     1      22.796   5.361  49.044  1.00  0.00    -0.322 N 
HETATM   26  C3  UNL     1      24.062   5.827  48.630  1.00  0.00     0.242 C 
HETATM   27  O1  UNL     1      25.047   5.030  48.781  1.00  0.00    -0.269 OA
HETATM   28  H4  UNL     1      22.036   6.084  48.871  1.00  0.00     0.165 HD
BRANCH  26  29
HETATM   29  C2  UNL     1      24.420   7.103  48.047  1.00  0.00     0.064 C 
HETATM   30  C1  UNL     1      23.859   7.445  46.898  1.00  0.00     0.017 C 
ENDBRANCH  26  29
ENDBRANCH   1  25
BRANCH   2  31
HETATM   31  O2  UNL     1      23.853   4.199  51.821  1.00  0.00    -0.356 OA
HETATM   32  C6  UNL     1      23.088   4.915  52.737  1.00  0.00     0.209 C 
ENDBRANCH   2  31
TORSDOF 3
ENDMDL
MODEL 4
REMARK VINA RESULT:      -7.6      8.293     10.295
REMARK  3 active torsions:
REMARK  status: ('A' for Active; 'I' for Inactive)
REMARK    1  A    between atoms: C2_2  and  C3_3 
REMARK       I    between atoms: C3_3  and  N1_5 
REMARK    2  A    between atoms: N1_5  and  C4_6 
REMARK    3  A    between atoms: C5_7  and  O2_8 
ROOT
HETATM    1  C4  UNL     1      27.580   8.503  48.207  1.00  0.00     0.381 C 
HETATM    2  C5  UNL     1      28.813   7.825  47.632  1.00  0.00     0.095 C 
HETATM    3  C7  UNL     1      29.849   7.635  48.478  1.00  0.00     0.019 C 
HETATM    4  C8  UNL     1      31.132   7.059  48.289  1.00  0.00     0.044 C 
HETATM    5  C9  UNL     1      31.019   5.652  47.851  1.00  0.00     0.024 C 
HETATM    6  C10 UNL     1      32.145   4.698  47.812  1.00  0.00     0.037 C 
HETATM    7  C11 UNL     1      32.238   4.136  46.386  1.00  0.00     0.030 C 
HETATM    8  C12 UNL     1      32.883   5.226  45.407  1.00  0.00     0.124 C 
HETATM    9  N2  UNL     1      33.297   6.121  46.498  1.00  0.00    -0.377 N 
HETATM   10  C13 UNL     1      34.351   5.242  47.098  1.00  0.00     0.177 C 
HETATM   11  C14 UNL     1      33.449   5.304  48.348  1.00  0.00     0.029 C 
HETATM   12  N3  UNL     1      34.485   5.854  48.959  1.00  0.00    -0.290 NA
HETATM   13  C15 UNL     1      34.663   7.270  48.381  1.00  0.00     0.205 C 
HETATM   14  C16 UNL     1      33.374   7.261  47.515  1.00  0.00     0.032 C 
HETATM   15  C17 UNL     1      32.146   7.929  47.546  1.00  0.00    -0.031 C 
HETATM   16  C18 UNL     1      31.915   9.249  46.955  1.00  0.00     0.153 C 
HETATM   17  N4  UNL     1      31.188  10.235  47.551  1.00  0.00    -0.408 N 
HETATM   18  C19 UNL     1      30.919  10.440  48.895  1.00  0.00     0.119 C 
HETATM   19  C20 UNL     1      29.400  10.700  49.076  1.00  0.00     0.055 C 
HETATM   20  C21 UNL     1      28.791  10.427  47.757  1.00  0.00     0.228 C 
HETATM   21  C22 UNL     1      29.242  11.540  46.838  1.00  0.00     0.055 C 
HETATM   22  C23 UNL     1      30.774  11.324  46.696  1.00  0.00     0.119 C 
HETATM   23  N5  UNL     1      27.502   9.885  47.639  1.00  0.00     0.118 N 
HETATM   24  C24 UNL     1      26.594  10.634  48.535  1.00  0.00     0.313 C 
ENDROOT
BRANCH   1  25
HETATM   25  N1  UNL     1      26.378   7.808  48.016  1.00  0.00    -0.322 N 
HETATM   26  C3  UNL     1      25.592   7.066  48.923  1.00  0.00     0.242 C 
HETATM   27  O1  UNL     1      26.010   6.999  50.126  1.00  0.00    -0.269 OA
HETATM   28  H4  UNL     1      25.948   7.820  47.043  1.00  0.00     0.165 HD
BRANCH  26  29
HETATM   29  C2  UNL     1      24.354   6.352  48.689  1.00  0.00     0.064 C 
HETATM   30  C1  UNL     1      24.319   5.056  48.958  1.00  0.00     0.017 C 
ENDBRANCH  26  29
ENDBRANCH   1  25
BRANCH   2  31
HETATM   31  O2  UNL     1      29.069   7.359  46.362  1.00  0.00    -0.356 OA
HETATM   32  C6  UNL     1      28.967   8.120  45.200  1.00  0.00     0.209 C 
ENDBRANCH   2  31
TORSDOF 3
ENDMDL
MODEL 5
REMARK VINA RESULT:      -7.5     11.291     14.271
REMARK  3 active torsions:
REMARK  status: ('A' for Active; 'I' for Inactive)
REMARK    1  A    between atoms: C2_2  and  C3_3 
REMARK       I    between atoms: C3_3  and  N1_5 
REMARK    2  A    between atoms: N1_5  and  C4_6 
REMARK    3  A    between atoms: C5_7  and  O2_8 
ROOT
HETATM    1  C4  UNL     1      32.329   7.114  47.653  1.00  0.00     0.381 C 
HETATM    2  C5  UNL     1      32.950   7.102  46.267  1.00  0.00     0.095 C 
HETATM    3  C7  UNL     1      32.276   6.431  45.307  1.00  0.00     0.019 C 
HETATM    4  C8  UNL     1      32.557   6.205  43.935  1.00  0.00     0.044 C 
HETATM    5  C9  UNL     1      32.656   7.483  43.200  1.00  0.00     0.024 C 
HETATM    6  C10 UNL     1      32.685   7.599  41.728  1.00  0.00     0.037 C 
HETATM    7  C11 UNL     1      33.951   8.377  41.341  1.00  0.00     0.030 C 
HETATM    8  C12 UNL     1      35.238   7.435  41.478  1.00  0.00     0.124 C 
HETATM    9  N2  UNL     1      34.453   6.204  41.658  1.00  0.00    -0.377 N 
HETATM   10  C13 UNL     1      33.871   6.126  40.281  1.00  0.00     0.177 C 
HETATM   11  C14 UNL     1      32.526   6.243  41.028  1.00  0.00     0.029 C 
HETATM   12  N3  UNL     1      32.236   5.061  40.509  1.00  0.00    -0.290 NA
HETATM   13  C15 UNL     1      33.127   4.020  41.211  1.00  0.00     0.205 C 
HETATM   14  C16 UNL     1      33.733   4.994  42.257  1.00  0.00     0.032 C 
HETATM   15  C17 UNL     1      33.634   5.161  43.642  1.00  0.00    -0.031 C 
HETATM   16  C18 UNL     1      34.445   4.428  44.616  1.00  0.00     0.153 C 
HETATM   17  N4  UNL     1      33.958   3.908  45.778  1.00  0.00    -0.408 N 
HETATM   18  C19 UNL     1      32.663   3.531  46.097  1.00  0.00     0.119 C 
HETATM   19  C20 UNL     1      32.281   4.137  47.473  1.00  0.00     0.055 C 
HETATM   20  C21 UNL     1      33.385   5.058  47.820  1.00  0.00     0.228 C 
HETATM   21  C22 UNL     1      34.585   4.190  48.128  1.00  0.00     0.055 C 
HETATM   22  C23 UNL     1      34.942   3.532  46.767  1.00  0.00     0.119 C 
HETATM   23  N5  UNL     1      33.158   6.241  48.541  1.00  0.00     0.118 N 
HETATM   24  C24 UNL     1      32.300   5.924  49.705  1.00  0.00     0.313 C 
ENDROOT
BRANCH   1  25
HETATM   25  N1  UNL     1      32.155   8.387  48.215  1.00  0.00    -0.322 N 
HETATM   26  C3  UNL     1      31.010   9.208  48.291  1.00  0.00     0.242 C 
HETATM   27  O1  UNL     1      29.936   8.746  47.781  1.00  0.00    -0.269 OA
HETATM   28  H4  UNL     1      32.998   8.845  48.674  1.00  0.00     0.165 HD
BRANCH  26  29
HETATM   29  C2  UNL     1      30.868  10.526  48.874  1.00  0.00     0.064 C 
HETATM   30  C1  UNL     1      31.235  11.572  48.151  1.00  0.00     0.017 C 
ENDBRANCH  26  29
ENDBRANCH   1  25
BRANCH   2  31
HETATM   31  O2  UNL     1      34.116   7.670  45.802  1.00  0.00    -0.356 OA
HETATM   32  C6  UNL     1      34.517   8.979  46.051  1.00  0.00     0.209 C 
ENDBRANCH   2  31
TORSDOF 3
ENDMDL
MODEL 6
REMARK VINA RESULT:      -7.5      8.380     12.000
REMARK  3 active torsions:
REMARK  status: ('A' for Active; 'I' for Inactive)
REMARK    1  A    between atoms: C2_2  and  C3_3 
REMARK       I    between atoms: C3_3  and  N1_5 
REMARK    2  A    between atoms: N1_5  and  C4_6 
REMARK    3  A    between atoms: C5_7  and  O2_8 
ROOT
HETATM    1  C4  UNL     1      32.089   6.319  46.892  1.00  0.00     0.381 C 
HETATM    2  C5  UNL     1      30.858   6.922  47.547  1.00  0.00     0.095 C 
HETATM    3  C7  UNL     1      29.800   7.163  46.742  1.00  0.00     0.019 C 
HETATM    4  C8  UNL     1      28.520   7.718  47.001  1.00  0.00     0.044 C 
HETATM    5  C9  UNL     1      27.786   6.908  47.995  1.00  0.00     0.024 C 
HETATM    6  C10 UNL     1      26.349   7.058  48.296  1.00  0.00     0.037 C 
HETATM    7  C11 UNL     1      26.205   7.306  49.805  1.00  0.00     0.030 C 
HETATM    8  C12 UNL     1      26.627   8.809  50.157  1.00  0.00     0.124 C 
HETATM    9  N2  UNL     1      26.677   9.240  48.751  1.00  0.00    -0.377 N 
HETATM   10  C13 UNL     1      25.213   9.146  48.453  1.00  0.00     0.177 C 
HETATM   11  C14 UNL     1      25.667   8.107  47.406  1.00  0.00     0.029 C 
HETATM   12  N3  UNL     1      25.133   8.913  46.504  1.00  0.00    -0.290 NA
HETATM   13  C15 UNL     1      26.030  10.162  46.415  1.00  0.00     0.205 C 
HETATM   14  C16 UNL     1      27.150   9.633  47.350  1.00  0.00     0.032 C 
HETATM   15  C17 UNL     1      28.481   9.234  47.189  1.00  0.00    -0.031 C 
HETATM   16  C18 UNL     1      29.619  10.156  47.199  1.00  0.00     0.153 C 
HETATM   17  N4  UNL     1      30.671  10.077  46.337  1.00  0.00    -0.408 N 
HETATM   18  C19 UNL     1      30.732   9.515  45.071  1.00  0.00     0.119 C 
HETATM   19  C20 UNL     1      31.984   8.604  44.979  1.00  0.00     0.055 C 
HETATM   20  C21 UNL     1      32.523   8.530  46.353  1.00  0.00     0.228 C 
HETATM   21  C22 UNL     1      33.091   9.897  46.664  1.00  0.00     0.055 C 
HETATM   22  C23 UNL     1      31.850  10.830  46.702  1.00  0.00     0.119 C 
HETATM   23  N5  UNL     1      33.150   7.371  46.837  1.00  0.00     0.118 N 
HETATM   24  C24 UNL     1      34.123   6.906  45.824  1.00  0.00     0.313 C 
ENDROOT
BRANCH   1  25
HETATM   25  N1  UNL     1      32.568   5.147  47.496  1.00  0.00    -0.322 N 
HETATM   26  C3  UNL     1      32.759   3.853  46.967  1.00  0.00     0.242 C 
HETATM   27  O1  UNL     1      32.462   3.685  45.737  1.00  0.00    -0.269 OA
HETATM   28  H4  UNL     1      32.852   5.198  48.519  1.00  0.00     0.165 HD
BRANCH  26  29
HETATM   29  C2  UNL     1      33.250   2.660  47.623  1.00  0.00     0.064 C 
HETATM   30  C1  UNL     1      32.706   1.498  47.298  1.00  0.00     0.017 C 
ENDBRANCH  26  29
ENDBRANCH   1  25
BRANCH   2  31
HETATM   31  O2  UNL     1      30.625   7.280  48.856  1.00  0.00    -0.356 OA
HETATM   32  C6  UNL     1      31.503   8.014  49.649  1.00  0.00     0.209 C 
ENDBRANCH   2  31
TORSDOF 3
ENDMDL
MODEL 7
REMARK VINA RESULT:      -7.2      4.276      7.356
REMARK  3 active torsions:
REMARK  status: ('A' for Active; 'I' for Inactive)
REMARK    1  A    between atoms: C2_2  and  C3_3 
REMARK       I    between atoms: C3_3  and  N1_5 
REMARK    2  A    between atoms: N1_5  and  C4_6 
REMARK    3  A    between atoms: C5_7  and  O2_8 
ROOT
HETATM    1  C4  UNL     1      23.489   5.268  51.897  1.00  0.00     0.381 C 
HETATM    2  C5  UNL     1      24.390   5.947  50.879  1.00  0.00     0.095 C 
HETATM    3  C7  UNL     1      24.346   7.296  50.836  1.00  0.00     0.019 C 
HETATM    4  C8  UNL     1      25.025   8.241  50.024  1.00  0.00     0.044 C 
HETATM    5  C9  UNL     1      26.488   8.131  50.199  1.00  0.00     0.024 C 
HETATM    6  C10 UNL     1      27.464   9.122  49.703  1.00  0.00     0.037 C 
HETATM    7  C11 UNL     1      28.476   8.383  48.814  1.00  0.00     0.030 C 
HETATM    8  C12 UNL     1      27.816   8.045  47.396  1.00  0.00     0.124 C 
HETATM    9  N2  UNL     1      26.633   8.889  47.622  1.00  0.00    -0.377 N 
HETATM   10  C13 UNL     1      27.319  10.219  47.594  1.00  0.00     0.177 C 
HETATM   11  C14 UNL     1      26.790  10.331  49.040  1.00  0.00     0.029 C 
HETATM   12  N3  UNL     1      26.129  11.397  48.621  1.00  0.00    -0.290 NA
HETATM   13  C15 UNL     1      25.001  10.905  47.695  1.00  0.00     0.205 C 
HETATM   14  C16 UNL     1      25.224   9.390  47.948  1.00  0.00     0.032 C 
HETATM   15  C17 UNL     1      24.515   8.368  48.589  1.00  0.00    -0.031 C 
HETATM   16  C18 UNL     1      23.457   7.581  47.951  1.00  0.00     0.153 C 
HETATM   17  N4  UNL     1      22.288   7.237  48.561  1.00  0.00    -0.408 N 
HETATM   18  C19 UNL     1      21.630   7.856  49.612  1.00  0.00     0.119 C 
HETATM   19  C20 UNL     1      21.237   6.788  50.666  1.00  0.00     0.055 C 
HETATM   20  C21 UNL     1      21.900   5.540  50.231  1.00  0.00     0.228 C 
HETATM   21  C22 UNL     1      21.187   5.091  48.976  1.00  0.00     0.055 C 
HETATM   22  C23 UNL     1      21.526   6.185  47.928  1.00  0.00     0.119 C 
HETATM   23  N5  UNL     1      22.374   4.597  51.158  1.00  0.00     0.118 N 
HETATM   24  C24 UNL     1      21.317   4.353  52.163  1.00  0.00     0.313 C 
ENDROOT
BRANCH   1  25
HETATM   25  N1  UNL     1      24.136   4.371  52.758  1.00  0.00    -0.322 N 
HETATM   26  C3  UNL     1      24.535   3.033  52.560  1.00  0.00     0.242 C 
HETATM   27  O1  UNL     1      24.288   2.522  51.417  1.00  0.00    -0.269 OA
HETATM   28  H4  UNL     1      24.392   4.717  53.731  1.00  0.00     0.165 HD
BRANCH  26  29
HETATM   29  C2  UNL     1      25.197   2.130  53.478  1.00  0.00     0.064 C 
HETATM   30  C1  UNL     1      24.981   0.831  53.343  1.00  0.00     0.017 C 
ENDBRANCH  26  29
ENDBRANCH   1  25
BRANCH   2  31
HETATM   31  O2  UNL     1      25.268   5.413  49.963  1.00  0.00    -0.356 OA
HETATM   32  C6  UNL     1      24.926   4.491  48.977  1.00  0.00     0.209 C 
ENDBRANCH   2  31
TORSDOF 3
ENDMDL
MODEL 8
REMARK VINA RESULT:      -7.0      5.607      9.598
REMARK  3 active torsions:
REMARK  status: ('A' for Active; 'I' for Inactive)
REMARK    1  A    between atoms: C2_2  and  C3_3 
REMARK       I    between atoms: C3_3  and  N1_5 
REMARK    2  A    between atoms: N1_5  and  C4_6 
REMARK    3  A    between atoms: C5_7  and  O2_8 
ROOT
HETATM    1  C4  UNL     1      28.580   7.974  48.030  1.00  0.00     0.381 C 
HETATM    2  C5  UNL     1      27.297   7.513  48.699  1.00  0.00     0.095 C 
HETATM    3  C7  UNL     1      26.510   6.677  47.988  1.00  0.00     0.019 C 
HETATM    4  C8  UNL     1      25.262   6.069  48.284  1.00  0.00     0.044 C 
HETATM    5  C9  UNL     1      25.365   5.213  49.485  1.00  0.00     0.024 C 
HETATM    6  C10 UNL     1      24.333   4.249  49.913  1.00  0.00     0.037 C 
HETATM    7  C11 UNL     1      23.941   4.588  51.359  1.00  0.00     0.030 C 
HETATM    8  C12 UNL     1      23.005   5.886  51.384  1.00  0.00     0.124 C 
HETATM    9  N2  UNL     1      22.802   5.903  49.927  1.00  0.00    -0.377 N 
HETATM   10  C13 UNL     1      21.987   4.652  49.817  1.00  0.00     0.177 C 
HETATM   11  C14 UNL     1      23.156   4.172  48.931  1.00  0.00     0.029 C 
HETATM   12  N3  UNL     1      22.260   4.061  47.964  1.00  0.00    -0.290 NA
HETATM   13  C15 UNL     1      21.850   5.486  47.550  1.00  0.00     0.205 C 
HETATM   14  C16 UNL     1      22.891   6.224  48.434  1.00  0.00     0.032 C 
HETATM   15  C17 UNL     1      24.042   6.985  48.199  1.00  0.00    -0.031 C 
HETATM   16  C18 UNL     1      24.030   8.421  47.914  1.00  0.00     0.153 C 
HETATM   17  N4  UNL     1      24.808   9.017  46.967  1.00  0.00    -0.408 N 
HETATM   18  C19 UNL     1      25.376   8.474  45.826  1.00  0.00     0.119 C 
HETATM   19  C20 UNL     1      26.872   8.880  45.759  1.00  0.00     0.055 C 
HETATM   20  C21 UNL     1      27.165   9.528  47.055  1.00  0.00     0.228 C 
HETATM   21  C22 UNL     1      26.430  10.850  47.048  1.00  0.00     0.055 C 
HETATM   22  C23 UNL     1      24.928  10.455  47.056  1.00  0.00     0.119 C 
HETATM   23  N5  UNL     1      28.424   9.416  47.666  1.00  0.00     0.118 N 
HETATM   24  C24 UNL     1      29.465   9.690  46.651  1.00  0.00     0.313 C 
ENDROOT
BRANCH   1  25
HETATM   25  N1  UNL     1      29.748   7.764  48.777  1.00  0.00    -0.322 N 
HETATM   26  C3  UNL     1      30.656   6.684  48.779  1.00  0.00     0.242 C 
HETATM   27  O1  UNL     1      30.408   5.723  47.976  1.00  0.00    -0.269 OA
HETATM   28  H4  UNL     1      30.038   8.522  49.465  1.00  0.00     0.165 HD
BRANCH  26  29
HETATM   29  C2  UNL     1      31.852   6.496  49.572  1.00  0.00     0.064 C 
HETATM   30  C1  UNL     1      32.962   6.126  48.952  1.00  0.00     0.017 C 
ENDBRANCH  26  29
ENDBRANCH   1  25
BRANCH   2  31
HETATM   31  O2  UNL     1      26.777   7.808  49.940  1.00  0.00    -0.356 OA
HETATM   32  C6  UNL     1      26.643   9.092  50.461  1.00  0.00     0.209 C 
ENDBRANCH   2  31
TORSDOF 3
ENDMDL
MODEL 9
REMARK VINA RESULT:      -6.9      3.878      7.422
REMARK  3 active torsions:
REMARK  status: ('A' for Active; 'I' for Inactive)
REMARK    1  A    between atoms: C2_2  and  C3_3 
REMARK       I    between atoms: C3_3  and  N1_5 
REMARK    2  A    between atoms: N1_5  and  C4_6 
REMARK    3  A    between atoms: C5_7  and  O2_8 
ROOT
HETATM    1  C4  UNL     1      25.810   6.957  47.941  1.00  0.00     0.381 C 
HETATM    2  C5  UNL     1      25.288   6.158  49.123  1.00  0.00     0.095 C 
HETATM    3  C7  UNL     1      24.632   5.013  48.838  1.00  0.00     0.019 C 
HETATM    4  C8  UNL     1      24.014   4.043  49.669  1.00  0.00     0.044 C 
HETATM    5  C9  UNL     1      24.995   3.442  50.597  1.00  0.00     0.024 C 
HETATM    6  C10 UNL     1      24.742   2.236  51.410  1.00  0.00     0.037 C 
HETATM    7  C11 UNL     1      25.005   2.595  52.880  1.00  0.00     0.030 C 
HETATM    8  C12 UNL     1      23.792   3.465  53.457  1.00  0.00     0.124 C 
HETATM    9  N2  UNL     1      22.921   3.222  52.297  1.00  0.00    -0.377 N 
HETATM   10  C13 UNL     1      22.688   1.760  52.517  1.00  0.00     0.177 C 
HETATM   11  C14 UNL     1      23.364   1.619  51.137  1.00  0.00     0.029 C 
HETATM   12  N3  UNL     1      22.228   1.073  50.735  1.00  0.00    -0.290 NA
HETATM   13  C15 UNL     1      21.173   2.192  50.681  1.00  0.00     0.205 C 
HETATM   14  C16 UNL     1      22.150   3.360  50.983  1.00  0.00     0.032 C 
HETATM   15  C17 UNL     1      22.664   4.444  50.265  1.00  0.00    -0.031 C 
HETATM   16  C18 UNL     1      21.983   5.733  50.125  1.00  0.00     0.153 C 
HETATM   17  N4  UNL     1      21.920   6.441  48.963  1.00  0.00    -0.408 N 
HETATM   18  C19 UNL     1      22.020   5.995  47.655  1.00  0.00     0.119 C 
HETATM   19  C20 UNL     1      23.021   6.895  46.885  1.00  0.00     0.055 C 
HETATM   20  C21 UNL     1      23.638   7.766  47.909  1.00  0.00     0.228 C 
HETATM   21  C22 UNL     1      22.561   8.726  48.360  1.00  0.00     0.055 C 
HETATM   22  C23 UNL     1      21.522   7.825  49.083  1.00  0.00     0.119 C 
HETATM   23  N5  UNL     1      24.973   8.190  47.807  1.00  0.00     0.118 N 
HETATM   24  C24 UNL     1      25.205   8.684  46.432  1.00  0.00     0.313 C 
ENDROOT
BRANCH   1  25
HETATM   25  N1  UNL     1      27.174   7.276  47.995  1.00  0.00    -0.322 N 
HETATM   26  C3  UNL     1      28.306   6.446  48.146  1.00  0.00     0.242 C 
HETATM   27  O1  UNL     1      28.090   5.192  48.246  1.00  0.00    -0.269 OA
HETATM   28  H4  UNL     1      27.447   8.300  47.907  1.00  0.00     0.165 HD
BRANCH  26  29
HETATM   29  C2  UNL     1      29.705   6.811  48.205  1.00  0.00     0.064 C 
HETATM   30  C1  UNL     1      30.013   8.065  48.499  1.00  0.00     0.017 C 
ENDBRANCH  26  29
ENDBRANCH   1  25
BRANCH   2  31
HETATM   31  O2  UNL     1      25.367   6.405  50.476  1.00  0.00    -0.356 OA
HETATM   32  C6  UNL     1      24.809   7.508  51.117  1.00  0.00     0.209 C 
ENDBRANCH   2  31
TORSDOF 3
ENDMDL
