MODEL 1
REMARK VINA RESULT:      -7.5      0.000      0.000
REMARK  9 active torsions:
REMARK  status: ('A' for Active; 'I' for Inactive)
REMARK    1  A    between atoms: C2_2  and  N1_3 
REMARK    2  A    between atoms: N1_3  and  C3_4 
REMARK    3  A    between atoms: N1_3  and  C5_6 
REMARK    4  A    between atoms: C5_6  and  C6_7 
REMARK    5  A    between atoms: C6_7  and  N2_8 
REMARK       I    between atoms: N2_8  and  C7_9 
REMARK    6  A    between atoms: C7_9  and  C8_11 
REMARK    7  A    between atoms: C8_11  and  C10_13 
REMARK    8  A    between atoms: C13_18  and  N5_19 
REMARK    9  A    between atoms: N5_19  and  C14_20 
ROOT
HETATM    1  C10 UNL     1      27.372   0.202  52.940  1.00  0.00     0.004 A 
HETATM    2  C11 UNL     1      28.492   0.168  53.738  1.00  0.00     0.033 A 
HETATM    3  C12 UNL     1      29.300   1.243  53.985  1.00  0.00     0.141 A 
HETATM    4  N3  UNL     1      29.002   2.425  53.420  1.00  0.00    -0.161 NA
HETATM    5  N4  UNL     1      27.940   2.528  52.644  1.00  0.00    -0.132 NA
HETATM    6  C13 UNL     1      27.128   1.466  52.391  1.00  0.00     0.156 A 
ENDROOT
BRANCH   1   7
HETATM    7  C8  UNL     1      26.400  -0.828  52.557  1.00  0.00     0.110 C 
HETATM    8  C9  UNL     1      27.019  -2.231  52.640  1.00  0.00     0.025 C 
BRANCH   7   9
HETATM    9  C7  UNL     1      25.299  -0.877  53.595  1.00  0.00     0.226 C 
HETATM   10  N2  UNL     1      23.994  -0.598  53.039  1.00  0.00    -0.359 N 
HETATM   11  H15 UNL     1      23.903  -0.379  52.001  1.00  0.00     0.162 HD
HETATM   12  O1  UNL     1      25.364  -1.119  54.844  1.00  0.00    -0.273 OA
BRANCH  10  13
HETATM   13  C6  UNL     1      22.792  -0.590  53.887  1.00  0.00     0.152 C 
BRANCH  13  14
HETATM   14  C5  UNL     1      22.047   0.679  53.525  1.00  0.00     0.292 C 
BRANCH  14  15
HETATM   15  N1  UNL     1      20.719   0.396  53.112  1.00  0.00     0.089 N 
BRANCH  15  16
HETATM   16  C2  UNL     1      20.217  -0.848  53.686  1.00  0.00     0.268 C 
HETATM   17  C1  UNL     1      18.806  -1.181  53.377  1.00  0.00     0.037 C 
ENDBRANCH  15  16
BRANCH  15  18
HETATM   18  C3  UNL     1      20.564   0.367  51.663  1.00  0.00     0.268 C 
HETATM   19  C4  UNL     1      21.557   1.379  51.098  1.00  0.00     0.037 C 
ENDBRANCH  15  18
ENDBRANCH  14  15
ENDBRANCH  13  14
ENDBRANCH  10  13
ENDBRANCH   7   9
ENDBRANCH   1   7
BRANCH   6  20
HETATM   20  N5  UNL     1      26.042   1.818  51.534  1.00  0.00    -0.348 N 
HETATM   21  H22 UNL     1      25.045   1.519  51.466  1.00  0.00     0.167 HD
BRANCH  20  22
HETATM   22  C14 UNL     1      26.666   2.793  50.667  1.00  0.00     0.101 C 
HETATM   23  C15 UNL     1      25.833   3.704  50.242  1.00  0.00    -0.015 A 
HETATM   24  C16 UNL     1      24.428   3.715  50.617  1.00  0.00     0.037 A 
HETATM   25  C19 UNL     1      26.271   4.795  49.346  1.00  0.00     0.062 A 
HETATM   26  C17 UNL     1      23.541   4.640  50.202  1.00  0.00     0.144 A 
HETATM   27  O2  UNL     1      24.034   5.643  49.352  1.00  0.00    -0.311 OA
HETATM   28  C18 UNL     1      25.370   5.670  48.967  1.00  0.00     0.145 A 
HETATM   29 CL1  UNL     1      25.884   6.963  47.908  1.00  0.00    -0.057 Cl
ENDBRANCH  20  22
ENDBRANCH   6  20
TORSDOF 9
ENDMDL
MODEL 2
REMARK VINA RESULT:      -7.5      3.121      6.681
REMARK  9 active torsions:
REMARK  status: ('A' for Active; 'I' for Inactive)
REMARK    1  A    between atoms: C2_2  and  N1_3 
REMARK    2  A    between atoms: N1_3  and  C3_4 
REMARK    3  A    between atoms: N1_3  and  C5_6 
REMARK    4  A    between atoms: C5_6  and  C6_7 
REMARK    5  A    between atoms: C6_7  and  N2_8 
REMARK       I    between atoms: N2_8  and  C7_9 
REMARK    6  A    between atoms: C7_9  and  C8_11 
REMARK    7  A    between atoms: C8_11  and  C10_13 
REMARK    8  A    between atoms: C13_18  and  N5_19 
REMARK    9  A    between atoms: N5_19  and  C14_20 
ROOT
HETATM    1  C10 UNL     1      21.743   0.084  52.842  1.00  0.00     0.004 A 
HETATM    2  C11 UNL     1      20.821  -0.690  53.508  1.00  0.00     0.033 A 
HETATM    3  C12 UNL     1      21.105  -1.473  54.592  1.00  0.00     0.141 A 
HETATM    4  N3  UNL     1      22.364  -1.507  55.058  1.00  0.00    -0.161 NA
HETATM    5  N4  UNL     1      23.299  -0.788  54.467  1.00  0.00    -0.132 NA
HETATM    6  C13 UNL     1      23.029  -0.005  53.388  1.00  0.00     0.156 A 
ENDROOT
BRANCH   1   7
HETATM    7  C8  UNL     1      21.635   0.969  51.677  1.00  0.00     0.110 C 
HETATM    8  C9  UNL     1      20.425   0.593  50.808  1.00  0.00     0.025 C 
BRANCH   7   9
HETATM    9  C7  UNL     1      21.296   2.366  52.150  1.00  0.00     0.226 C 
HETATM   10  N2  UNL     1      22.265   3.351  51.724  1.00  0.00    -0.359 N 
HETATM   11  H15 UNL     1      23.107   3.042  51.149  1.00  0.00     0.162 HD
HETATM   12  O1  UNL     1      20.314   2.777  52.848  1.00  0.00    -0.273 OA
BRANCH  10  13
HETATM   13  C6  UNL     1      22.121   4.769  52.088  1.00  0.00     0.152 C 
BRANCH  13  14
HETATM   14  C5  UNL     1      23.482   5.391  51.853  1.00  0.00     0.292 C 
BRANCH  14  15
HETATM   15  N1  UNL     1      23.769   5.491  50.467  1.00  0.00     0.089 N 
BRANCH  15  16
HETATM   16  C2  UNL     1      25.196   5.363  50.188  1.00  0.00     0.268 C 
HETATM   17  C1  UNL     1      25.684   3.989  49.925  1.00  0.00     0.037 C 
ENDBRANCH  15  16
BRANCH  15  18
HETATM   18  C3  UNL     1      23.258   6.715  49.864  1.00  0.00     0.268 C 
HETATM   19  C4  UNL     1      23.814   7.873  50.689  1.00  0.00     0.037 C 
ENDBRANCH  15  18
ENDBRANCH  14  15
ENDBRANCH  13  14
ENDBRANCH  10  13
ENDBRANCH   7   9
ENDBRANCH   1   7
BRANCH   6  20
HETATM   20  N5  UNL     1      24.191   0.685  52.926  1.00  0.00    -0.348 N 
HETATM   21  H22 UNL     1      24.363   1.638  52.539  1.00  0.00     0.167 HD
BRANCH  20  22
HETATM   22  C14 UNL     1      25.215  -0.318  53.121  1.00  0.00     0.101 C 
HETATM   23  C15 UNL     1      26.415   0.187  53.193  1.00  0.00    -0.015 A 
HETATM   24  C16 UNL     1      26.671   1.615  53.088  1.00  0.00     0.037 A 
HETATM   25  C19 UNL     1      27.605  -0.669  53.392  1.00  0.00     0.062 A 
HETATM   26  C17 UNL     1      27.895   2.172  53.162  1.00  0.00     0.144 A 
HETATM   27  O2  UNL     1      28.973   1.292  53.352  1.00  0.00    -0.311 OA
HETATM   28  C18 UNL     1      28.775  -0.080  53.456  1.00  0.00     0.145 A 
HETATM   29 CL1  UNL     1      30.184  -1.088  53.694  1.00  0.00    -0.057 Cl
ENDBRANCH  20  22
ENDBRANCH   6  20
TORSDOF 9
ENDMDL
MODEL 3
REMARK VINA RESULT:      -7.5      3.480      6.959
REMARK  9 active torsions:
REMARK  status: ('A' for Active; 'I' for Inactive)
REMARK    1  A    between atoms: C2_2  and  N1_3 
REMARK    2  A    between atoms: N1_3  and  C3_4 
REMARK    3  A    between atoms: N1_3  and  C5_6 
REMARK    4  A    between atoms: C5_6  and  C6_7 
REMARK    5  A    between atoms: C6_7  and  N2_8 
REMARK       I    between atoms: N2_8  and  C7_9 
REMARK    6  A    between atoms: C7_9  and  C8_11 
REMARK    7  A    between atoms: C8_11  and  C10_13 
REMARK    8  A    between atoms: C13_18  and  N5_19 
REMARK    9  A    between atoms: N5_19  and  C14_20 
ROOT
HETATM    1  C10 UNL     1      24.440   3.077  50.199  1.00  0.00     0.004 A 
HETATM    2  C11 UNL     1      23.585   2.943  49.130  1.00  0.00     0.033 A 
HETATM    3  C12 UNL     1      22.467   2.154  49.126  1.00  0.00     0.141 A 
HETATM    4  N3  UNL     1      22.163   1.452  50.229  1.00  0.00    -0.161 NA
HETATM    5  N4  UNL     1      22.940   1.535  51.291  1.00  0.00    -0.132 NA
HETATM    6  C13 UNL     1      24.054   2.315  51.309  1.00  0.00     0.156 A 
ENDROOT
BRANCH   1   7
HETATM    7  C8  UNL     1      25.669   3.854  50.390  1.00  0.00     0.110 C 
HETATM    8  C9  UNL     1      26.782   3.370  49.449  1.00  0.00     0.025 C 
BRANCH   7   9
HETATM    9  C7  UNL     1      25.429   5.277  49.933  1.00  0.00     0.226 C 
HETATM   10  N2  UNL     1      24.686   6.056  50.898  1.00  0.00    -0.359 N 
HETATM   11  H15 UNL     1      24.367   5.600  51.806  1.00  0.00     0.162 HD
HETATM   12  O1  UNL     1      25.776   5.859  48.855  1.00  0.00    -0.273 OA
BRANCH  10  13
HETATM   13  C6  UNL     1      24.342   7.463  50.638  1.00  0.00     0.152 C 
BRANCH  13  14
HETATM   14  C5  UNL     1      22.829   7.526  50.673  1.00  0.00     0.292 C 
BRANCH  14  15
HETATM   15  N1  UNL     1      22.253   6.515  49.862  1.00  0.00     0.089 N 
BRANCH  15  16
HETATM   16  C2  UNL     1      22.085   6.947  48.478  1.00  0.00     0.268 C 
HETATM   17  C1  UNL     1      22.624   6.033  47.444  1.00  0.00     0.037 C 
ENDBRANCH  15  16
BRANCH  15  18
HETATM   18  C3  UNL     1      20.984   6.018  50.380  1.00  0.00     0.268 C 
HETATM   19  C4  UNL     1      21.322   4.920  51.384  1.00  0.00     0.037 C 
ENDBRANCH  15  18
ENDBRANCH  14  15
ENDBRANCH  13  14
ENDBRANCH  10  13
ENDBRANCH   7   9
ENDBRANCH   1   7
BRANCH   6  20
HETATM   20  N5  UNL     1      24.730   2.253  52.565  1.00  0.00    -0.348 N 
HETATM   21  H22 UNL     1      24.857   2.923  53.355  1.00  0.00     0.167 HD
BRANCH  20  22
HETATM   22  C14 UNL     1      25.274   0.914  52.531  1.00  0.00     0.101 C 
HETATM   23  C15 UNL     1      26.529   0.864  52.885  1.00  0.00    -0.015 A 
HETATM   24  C16 UNL     1      27.280   2.049  53.272  1.00  0.00     0.037 A 
HETATM   25  C19 UNL     1      27.274  -0.412  52.919  1.00  0.00     0.062 A 
HETATM   26  C17 UNL     1      28.573   2.036  53.647  1.00  0.00     0.144 A 
HETATM   27  O2  UNL     1      29.211   0.785  53.652  1.00  0.00    -0.311 OA
HETATM   28  C18 UNL     1      28.532  -0.373  53.289  1.00  0.00     0.145 A 
HETATM   29 CL1  UNL     1      29.417  -1.881  53.332  1.00  0.00    -0.057 Cl
ENDBRANCH  20  22
ENDBRANCH   6  20
TORSDOF 9
ENDMDL
MODEL 4
REMARK VINA RESULT:      -7.4      3.199      7.717
REMARK  9 active torsions:
REMARK  status: ('A' for Active; 'I' for Inactive)
REMARK    1  A    between atoms: C2_2  and  N1_3 
REMARK    2  A    between atoms: N1_3  and  C3_4 
REMARK    3  A    between atoms: N1_3  and  C5_6 
REMARK    4  A    between atoms: C5_6  and  C6_7 
REMARK    5  A    between atoms: C6_7  and  N2_8 
REMARK       I    between atoms: N2_8  and  C7_9 
REMARK    6  A    between atoms: C7_9  and  C8_11 
REMARK    7  A    between atoms: C8_11  and  C10_13 
REMARK    8  A    between atoms: C13_18  and  N5_19 
REMARK    9  A    between atoms: N5_19  and  C14_20 
ROOT
HETATM    1  C10 UNL     1      23.726   2.407  50.873  1.00  0.00     0.004 A 
HETATM    2  C11 UNL     1      22.808   2.060  49.909  1.00  0.00     0.033 A 
HETATM    3  C12 UNL     1      21.860   1.086  50.056  1.00  0.00     0.141 A 
HETATM    4  N3  UNL     1      21.799   0.406  51.213  1.00  0.00    -0.161 NA
HETATM    5  N4  UNL     1      22.649   0.689  52.181  1.00  0.00    -0.132 NA
HETATM    6  C13 UNL     1      23.598   1.655  52.047  1.00  0.00     0.156 A 
ENDROOT
BRANCH   1   7
HETATM    7  C8  UNL     1      24.804   3.401  50.900  1.00  0.00     0.110 C 
HETATM    8  C9  UNL     1      25.848   3.113  49.811  1.00  0.00     0.025 C 
BRANCH   7   9
HETATM    9  C7  UNL     1      24.245   4.747  50.491  1.00  0.00     0.226 C 
HETATM   10  N2  UNL     1      24.633   5.131  49.152  1.00  0.00    -0.359 N 
HETATM   11  H15 UNL     1      25.259   4.483  48.583  1.00  0.00     0.162 HD
HETATM   12  O1  UNL     1      23.510   5.558  51.142  1.00  0.00    -0.273 OA
BRANCH  10  13
HETATM   13  C6  UNL     1      24.198   6.410  48.571  1.00  0.00     0.152 C 
BRANCH  13  14
HETATM   14  C5  UNL     1      25.462   7.081  48.071  1.00  0.00     0.292 C 
BRANCH  14  15
HETATM   15  N1  UNL     1      26.489   7.035  49.049  1.00  0.00     0.089 N 
BRANCH  15  16
HETATM   16  C2  UNL     1      26.337   8.078  50.058  1.00  0.00     0.268 C 
HETATM   17  C1  UNL     1      27.384   9.127  50.068  1.00  0.00     0.037 C 
ENDBRANCH  15  16
BRANCH  15  18
HETATM   18  C3  UNL     1      27.828   7.096  48.475  1.00  0.00     0.268 C 
HETATM   19  C4  UNL     1      28.318   5.656  48.357  1.00  0.00     0.037 C 
ENDBRANCH  15  18
ENDBRANCH  14  15
ENDBRANCH  13  14
ENDBRANCH  10  13
ENDBRANCH   7   9
ENDBRANCH   1   7
BRANCH   6  20
HETATM   20  N5  UNL     1      24.393   1.788  53.225  1.00  0.00    -0.348 N 
HETATM   21  H22 UNL     1      24.497   2.530  53.951  1.00  0.00     0.167 HD
BRANCH  20  22
HETATM   22  C14 UNL     1      25.123   0.539  53.219  1.00  0.00     0.101 C 
HETATM   23  C15 UNL     1      26.413   0.702  53.326  1.00  0.00    -0.015 A 
HETATM   24  C16 UNL     1      27.029   2.015  53.440  1.00  0.00     0.037 A 
HETATM   25  C19 UNL     1      27.340  -0.449  53.342  1.00  0.00     0.062 A 
HETATM   26  C17 UNL     1      28.355   2.222  53.557  1.00  0.00     0.144 A 
HETATM   27  O2  UNL     1      29.168   1.077  53.563  1.00  0.00    -0.311 OA
HETATM   28  C18 UNL     1      28.622  -0.197  53.455  1.00  0.00     0.145 A 
HETATM   29 CL1  UNL     1      29.722  -1.557  53.476  1.00  0.00    -0.057 Cl
ENDBRANCH  20  22
ENDBRANCH   6  20
TORSDOF 9
ENDMDL
MODEL 5
REMARK VINA RESULT:      -7.3      3.788      8.540
REMARK  9 active torsions:
REMARK  status: ('A' for Active; 'I' for Inactive)
REMARK    1  A    between atoms: C2_2  and  N1_3 
REMARK    2  A    between atoms: N1_3  and  C3_4 
REMARK    3  A    between atoms: N1_3  and  C5_6 
REMARK    4  A    between atoms: C5_6  and  C6_7 
REMARK    5  A    between atoms: C6_7  and  N2_8 
REMARK       I    between atoms: N2_8  and  C7_9 
REMARK    6  A    between atoms: C7_9  and  C8_11 
REMARK    7  A    between atoms: C8_11  and  C10_13 
REMARK    8  A    between atoms: C13_18  and  N5_19 
REMARK    9  A    between atoms: N5_19  and  C14_20 
ROOT
HETATM    1  C10 UNL     1      24.466   3.160  50.163  1.00  0.00     0.004 A 
HETATM    2  C11 UNL     1      23.670   3.030  49.048  1.00  0.00     0.033 A 
HETATM    3  C12 UNL     1      22.582   2.206  48.963  1.00  0.00     0.141 A 
HETATM    4  N3  UNL     1      22.246   1.461  50.029  1.00  0.00    -0.161 NA
HETATM    5  N4  UNL     1      22.966   1.537  51.132  1.00  0.00    -0.132 NA
HETATM    6  C13 UNL     1      24.050   2.353  51.229  1.00  0.00     0.156 A 
ENDROOT
BRANCH   1   7
HETATM    7  C8  UNL     1      25.656   3.970  50.439  1.00  0.00     0.110 C 
HETATM    8  C9  UNL     1      26.710   3.800  49.335  1.00  0.00     0.025 C 
BRANCH   7   9
HETATM    9  C7  UNL     1      25.289   5.435  50.339  1.00  0.00     0.226 C 
HETATM   10  N2  UNL     1      26.396   6.261  49.911  1.00  0.00    -0.359 N 
HETATM   11  H15 UNL     1      27.342   5.810  49.718  1.00  0.00     0.162 HD
HETATM   12  O1  UNL     1      24.182   6.019  50.574  1.00  0.00    -0.273 OA
BRANCH  10  13
HETATM   13  C6  UNL     1      26.246   7.717  49.760  1.00  0.00     0.152 C 
BRANCH  13  14
HETATM   14  C5  UNL     1      27.222   8.116  48.671  1.00  0.00     0.292 C 
BRANCH  14  15
HETATM   15  N1  UNL     1      28.447   8.572  49.222  1.00  0.00     0.089 N 
BRANCH  15  16
HETATM   16  C2  UNL     1      28.551  10.028  49.207  1.00  0.00     0.268 C 
HETATM   17  C1  UNL     1      29.883  10.579  48.862  1.00  0.00     0.037 C 
ENDBRANCH  15  16
BRANCH  15  18
HETATM   18  C3  UNL     1      29.617   7.989  48.577  1.00  0.00     0.268 C 
HETATM   19  C4  UNL     1      29.097   6.959  47.578  1.00  0.00     0.037 C 
ENDBRANCH  15  18
ENDBRANCH  14  15
ENDBRANCH  13  14
ENDBRANCH  10  13
ENDBRANCH   7   9
ENDBRANCH   1   7
BRANCH   6  20
HETATM   20  N5  UNL     1      24.663   2.274  52.516  1.00  0.00    -0.348 N 
HETATM   21  H22 UNL     1      24.752   2.935  53.318  1.00  0.00     0.167 HD
BRANCH  20  22
HETATM   22  C14 UNL     1      25.206   0.934  52.493  1.00  0.00     0.101 C 
HETATM   23  C15 UNL     1      26.460   0.886  52.847  1.00  0.00    -0.015 A 
HETATM   24  C16 UNL     1      27.213   2.073  53.224  1.00  0.00     0.037 A 
HETATM   25  C19 UNL     1      27.205  -0.391  52.892  1.00  0.00     0.062 A 
HETATM   26  C17 UNL     1      28.506   2.062  53.599  1.00  0.00     0.144 A 
HETATM   27  O2  UNL     1      29.142   0.810  53.615  1.00  0.00    -0.311 OA
HETATM   28  C18 UNL     1      28.463  -0.350  53.261  1.00  0.00     0.145 A 
HETATM   29 CL1  UNL     1      29.346  -1.858  53.317  1.00  0.00    -0.057 Cl
ENDBRANCH  20  22
ENDBRANCH   6  20
TORSDOF 9
ENDMDL
MODEL 6
REMARK VINA RESULT:      -7.1      2.988      6.676
REMARK  9 active torsions:
REMARK  status: ('A' for Active; 'I' for Inactive)
REMARK    1  A    between atoms: C2_2  and  N1_3 
REMARK    2  A    between atoms: N1_3  and  C3_4 
REMARK    3  A    between atoms: N1_3  and  C5_6 
REMARK    4  A    between atoms: C5_6  and  C6_7 
REMARK    5  A    between atoms: C6_7  and  N2_8 
REMARK       I    between atoms: N2_8  and  C7_9 
REMARK    6  A    between atoms: C7_9  and  C8_11 
REMARK    7  A    between atoms: C8_11  and  C10_13 
REMARK    8  A    between atoms: C13_18  and  N5_19 
REMARK    9  A    between atoms: N5_19  and  C14_20 
ROOT
HETATM    1  C10 UNL     1      22.374   0.481  52.876  1.00  0.00     0.004 A 
HETATM    2  C11 UNL     1      21.322   0.645  53.747  1.00  0.00     0.033 A 
HETATM    3  C12 UNL     1      21.153  -0.067  54.902  1.00  0.00     0.141 A 
HETATM    4  N3  UNL     1      22.064  -0.998  55.231  1.00  0.00    -0.161 NA
HETATM    5  N4  UNL     1      23.099  -1.206  54.440  1.00  0.00    -0.132 NA
HETATM    6  C13 UNL     1      23.278  -0.504  53.289  1.00  0.00     0.156 A 
ENDROOT
BRANCH   1   7
HETATM    7  C8  UNL     1      22.719   1.132  51.608  1.00  0.00     0.110 C 
HETATM    8  C9  UNL     1      21.468   1.360  50.745  1.00  0.00     0.025 C 
BRANCH   7   9
HETATM    9  C7  UNL     1      23.200   2.540  51.891  1.00  0.00     0.226 C 
HETATM   10  N2  UNL     1      23.103   3.407  50.738  1.00  0.00    -0.359 N 
HETATM   11  H15 UNL     1      22.732   3.016  49.819  1.00  0.00     0.162 HD
HETATM   12  O1  UNL     1      23.663   3.044  52.964  1.00  0.00    -0.273 OA
BRANCH  10  13
HETATM   13  C6  UNL     1      23.529   4.813  50.805  1.00  0.00     0.152 C 
BRANCH  13  14
HETATM   14  C5  UNL     1      24.967   4.826  50.330  1.00  0.00     0.292 C 
BRANCH  14  15
HETATM   15  N1  UNL     1      25.184   5.853  49.376  1.00  0.00     0.089 N 
BRANCH  15  16
HETATM   16  C2  UNL     1      26.548   5.848  48.858  1.00  0.00     0.268 C 
HETATM   17  C1  UNL     1      27.249   4.542  48.893  1.00  0.00     0.037 C 
ENDBRANCH  15  16
BRANCH  15  18
HETATM   18  C3  UNL     1      24.855   7.181  49.879  1.00  0.00     0.268 C 
HETATM   19  C4  UNL     1      26.181   7.892  50.135  1.00  0.00     0.037 C 
ENDBRANCH  15  18
ENDBRANCH  14  15
ENDBRANCH  13  14
ENDBRANCH  10  13
ENDBRANCH   7   9
ENDBRANCH   1   7
BRANCH   6  20
HETATM   20  N5  UNL     1      24.470  -0.895  52.606  1.00  0.00    -0.348 N 
HETATM   21  H22 UNL     1      24.671  -1.266  51.652  1.00  0.00     0.167 HD
BRANCH  20  22
HETATM   22  C14 UNL     1      25.473  -0.648  53.618  1.00  0.00     0.101 C 
HETATM   23  C15 UNL     1      26.321   0.282  53.278  1.00  0.00    -0.015 A 
HETATM   24  C16 UNL     1      26.243   0.986  52.007  1.00  0.00     0.037 A 
HETATM   25  C19 UNL     1      27.426   0.689  54.173  1.00  0.00     0.062 A 
HETATM   26  C17 UNL     1      27.098   1.954  51.624  1.00  0.00     0.144 A 
HETATM   27  O2  UNL     1      28.119   2.282  52.530  1.00  0.00    -0.311 OA
HETATM   28  C18 UNL     1      28.233   1.635  53.755  1.00  0.00     0.145 A 
HETATM   29 CL1  UNL     1      29.539   2.119  54.812  1.00  0.00    -0.057 Cl
ENDBRANCH  20  22
ENDBRANCH   6  20
TORSDOF 9
ENDMDL
MODEL 7
REMARK VINA RESULT:      -7.1      3.681      6.226
REMARK  9 active torsions:
REMARK  status: ('A' for Active; 'I' for Inactive)
REMARK    1  A    between atoms: C2_2  and  N1_3 
REMARK    2  A    between atoms: N1_3  and  C3_4 
REMARK    3  A    between atoms: N1_3  and  C5_6 
REMARK    4  A    between atoms: C5_6  and  C6_7 
REMARK    5  A    between atoms: C6_7  and  N2_8 
REMARK       I    between atoms: N2_8  and  C7_9 
REMARK    6  A    between atoms: C7_9  and  C8_11 
REMARK    7  A    between atoms: C8_11  and  C10_13 
REMARK    8  A    between atoms: C13_18  and  N5_19 
REMARK    9  A    between atoms: N5_19  and  C14_20 
ROOT
HETATM    1  C10 UNL     1      21.675   0.186  52.960  1.00  0.00     0.004 A 
HETATM    2  C11 UNL     1      20.766  -0.649  53.567  1.00  0.00     0.033 A 
HETATM    3  C12 UNL     1      21.068  -1.522  54.575  1.00  0.00     0.141 A 
HETATM    4  N3  UNL     1      22.333  -1.589  55.021  1.00  0.00    -0.161 NA
HETATM    5  N4  UNL     1      23.256  -0.815  54.482  1.00  0.00    -0.132 NA
HETATM    6  C13 UNL     1      22.969   0.057  53.479  1.00  0.00     0.156 A 
ENDROOT
BRANCH   1   7
HETATM    7  C8  UNL     1      21.546   1.168  51.878  1.00  0.00     0.110 C 
HETATM    8  C9  UNL     1      21.061   0.503  50.582  1.00  0.00     0.025 C 
BRANCH   7   9
HETATM    9  C7  UNL     1      20.422   2.125  52.213  1.00  0.00     0.226 C 
HETATM   10  N2  UNL     1      19.247   1.915  51.399  1.00  0.00    -0.359 N 
HETATM   11  H15 UNL     1      19.255   1.152  50.655  1.00  0.00     0.162 HD
HETATM   12  O1  UNL     1      20.374   3.058  53.080  1.00  0.00    -0.273 OA
BRANCH  10  13
HETATM   13  C6  UNL     1      18.047   2.749  51.564  1.00  0.00     0.152 C 
BRANCH  13  14
HETATM   14  C5  UNL     1      16.889   1.898  51.081  1.00  0.00     0.292 C 
BRANCH  14  15
HETATM   15  N1  UNL     1      17.163   0.516  51.249  1.00  0.00     0.089 N 
BRANCH  15  16
HETATM   16  C2  UNL     1      16.980  -0.237  50.012  1.00  0.00     0.268 C 
HETATM   17  C1  UNL     1      16.096   0.387  48.999  1.00  0.00     0.037 C 
ENDBRANCH  15  16
BRANCH  15  18
HETATM   18  C3  UNL     1      16.383  -0.096  52.317  1.00  0.00     0.268 C 
HETATM   19  C4  UNL     1      17.298  -1.110  52.999  1.00  0.00     0.037 C 
ENDBRANCH  15  18
ENDBRANCH  14  15
ENDBRANCH  13  14
ENDBRANCH  10  13
ENDBRANCH   7   9
ENDBRANCH   1   7
BRANCH   6  20
HETATM   20  N5  UNL     1      24.121   0.791  53.064  1.00  0.00    -0.348 N 
HETATM   21  H22 UNL     1      24.285   1.778  52.769  1.00  0.00     0.167 HD
BRANCH  20  22
HETATM   22  C14 UNL     1      25.148  -0.223  53.140  1.00  0.00     0.101 C 
HETATM   23  C15 UNL     1      26.347   0.274  53.277  1.00  0.00    -0.015 A 
HETATM   24  C16 UNL     1      26.596   1.706  53.345  1.00  0.00     0.037 A 
HETATM   25  C19 UNL     1      27.539  -0.594  53.375  1.00  0.00     0.062 A 
HETATM   26  C17 UNL     1      27.817   2.256  53.490  1.00  0.00     0.144 A 
HETATM   27  O2  UNL     1      28.899   1.364  53.575  1.00  0.00    -0.311 OA
HETATM   28  C18 UNL     1      28.707  -0.012  53.513  1.00  0.00     0.145 A 
HETATM   29 CL1  UNL     1      30.120  -1.035  53.632  1.00  0.00    -0.057 Cl
ENDBRANCH  20  22
ENDBRANCH   6  20
TORSDOF 9
ENDMDL
MODEL 8
REMARK VINA RESULT:      -6.7      3.088      5.765
REMARK  9 active torsions:
REMARK  status: ('A' for Active; 'I' for Inactive)
REMARK    1  A    between atoms: C2_2  and  N1_3 
REMARK    2  A    between atoms: N1_3  and  C3_4 
REMARK    3  A    between atoms: N1_3  and  C5_6 
REMARK    4  A    between atoms: C5_6  and  C6_7 
REMARK    5  A    between atoms: C6_7  and  N2_8 
REMARK       I    between atoms: N2_8  and  C7_9 
REMARK    6  A    between atoms: C7_9  and  C8_11 
REMARK    7  A    between atoms: C8_11  and  C10_13 
REMARK    8  A    between atoms: C13_18  and  N5_19 
REMARK    9  A    between atoms: N5_19  and  C14_20 
ROOT
HETATM    1  C10 UNL     1      24.659   3.664  51.141  1.00  0.00     0.004 A 
HETATM    2  C11 UNL     1      24.944   4.714  50.300  1.00  0.00     0.033 A 
HETATM    3  C12 UNL     1      26.050   4.787  49.498  1.00  0.00     0.141 A 
HETATM    4  N3  UNL     1      26.934   3.776  49.516  1.00  0.00    -0.161 NA
HETATM    5  N4  UNL     1      26.721   2.737  50.299  1.00  0.00    -0.132 NA
HETATM    6  C13 UNL     1      25.626   2.652  51.101  1.00  0.00     0.156 A 
ENDROOT
BRANCH   1   7
HETATM    7  C8  UNL     1      23.549   3.410  52.065  1.00  0.00     0.110 C 
HETATM    8  C9  UNL     1      22.930   4.726  52.560  1.00  0.00     0.025 C 
BRANCH   7   9
HETATM    9  C7  UNL     1      22.412   2.762  51.304  1.00  0.00     0.226 C 
HETATM   10  N2  UNL     1      21.175   3.504  51.407  1.00  0.00    -0.359 N 
HETATM   11  H15 UNL     1      21.147   4.398  51.987  1.00  0.00     0.162 HD
HETATM   12  O1  UNL     1      22.395   1.692  50.614  1.00  0.00    -0.273 OA
BRANCH  10  13
HETATM   13  C6  UNL     1      19.948   3.035  50.745  1.00  0.00     0.152 C 
BRANCH  13  14
HETATM   14  C5  UNL     1      19.060   2.513  51.855  1.00  0.00     0.292 C 
BRANCH  14  15
HETATM   15  N1  UNL     1      18.443   1.289  51.487  1.00  0.00     0.089 N 
BRANCH  15  16
HETATM   16  C2  UNL     1      19.296   0.137  51.762  1.00  0.00     0.268 C 
HETATM   17  C1  UNL     1      20.091   0.203  53.012  1.00  0.00     0.037 C 
ENDBRANCH  15  16
BRANCH  15  18
HETATM   18  C3  UNL     1      18.013   1.261  50.095  1.00  0.00     0.268 C 
HETATM   19  C4  UNL     1      17.182  -0.008  49.921  1.00  0.00     0.037 C 
ENDBRANCH  15  18
ENDBRANCH  14  15
ENDBRANCH  13  14
ENDBRANCH  10  13
ENDBRANCH   7   9
ENDBRANCH   1   7
BRANCH   6  20
HETATM   20  N5  UNL     1      25.605   1.436  51.849  1.00  0.00    -0.348 N 
HETATM   21  H22 UNL     1      24.894   0.687  51.997  1.00  0.00     0.167 HD
BRANCH  20  22
HETATM   22  C14 UNL     1      26.927   1.440  52.437  1.00  0.00     0.101 C 
HETATM   23  C15 UNL     1      27.386   0.241  52.665  1.00  0.00    -0.015 A 
HETATM   24  C16 UNL     1      26.629  -0.961  52.350  1.00  0.00     0.037 A 
HETATM   25  C19 UNL     1      28.722   0.023  53.262  1.00  0.00     0.062 A 
HETATM   26  C17 UNL     1      27.072  -2.214  52.566  1.00  0.00     0.144 A 
HETATM   27  O2  UNL     1      28.350  -2.336  53.137  1.00  0.00    -0.311 OA
HETATM   28  C18 UNL     1      29.108  -1.215  53.456  1.00  0.00     0.145 A 
HETATM   29 CL1  UNL     1      30.688  -1.476  54.160  1.00  0.00    -0.057 Cl
ENDBRANCH  20  22
ENDBRANCH   6  20
TORSDOF 9
ENDMDL
MODEL 9
REMARK VINA RESULT:      -6.6      3.451      6.744
REMARK  9 active torsions:
REMARK  status: ('A' for Active; 'I' for Inactive)
REMARK    1  A    between atoms: C2_2  and  N1_3 
REMARK    2  A    between atoms: N1_3  and  C3_4 
REMARK    3  A    between atoms: N1_3  and  C5_6 
REMARK    4  A    between atoms: C5_6  and  C6_7 
REMARK    5  A    between atoms: C6_7  and  N2_8 
REMARK       I    between atoms: N2_8  and  C7_9 
REMARK    6  A    between atoms: C7_9  and  C8_11 
REMARK    7  A    between atoms: C8_11  and  C10_13 
REMARK    8  A    between atoms: C13_18  and  N5_19 
REMARK    9  A    between atoms: N5_19  and  C14_20 
ROOT
HETATM    1  C10 UNL     1      25.985   6.176  49.485  1.00  0.00     0.004 A 
HETATM    2  C11 UNL     1      26.913   6.754  48.649  1.00  0.00     0.033 A 
HETATM    3  C12 UNL     1      28.017   6.115  48.158  1.00  0.00     0.141 A 
HETATM    4  N3  UNL     1      28.234   4.834  48.500  1.00  0.00    -0.161 NA
HETATM    5  N4  UNL     1      27.383   4.219  49.298  1.00  0.00    -0.132 NA
HETATM    6  C13 UNL     1      26.281   4.843  49.794  1.00  0.00     0.156 A 
ENDROOT
BRANCH   1   7
HETATM    7  C8  UNL     1      24.763   6.691  50.111  1.00  0.00     0.110 C 
HETATM    8  C9  UNL     1      24.784   8.224  50.188  1.00  0.00     0.025 C 
BRANCH   7   9
HETATM    9  C7  UNL     1      23.587   6.410  49.200  1.00  0.00     0.226 C 
HETATM   10  N2  UNL     1      22.410   5.980  49.922  1.00  0.00    -0.359 N 
HETATM   11  H15 UNL     1      22.452   5.884  50.982  1.00  0.00     0.162 HD
HETATM   12  O1  UNL     1      23.496   6.495  47.932  1.00  0.00    -0.273 OA
BRANCH  10  13
HETATM   13  C6  UNL     1      21.162   5.649  49.216  1.00  0.00     0.152 C 
BRANCH  13  14
HETATM   14  C5  UNL     1      20.942   4.168  49.450  1.00  0.00     0.292 C 
BRANCH  14  15
HETATM   15  N1  UNL     1      21.336   3.406  48.320  1.00  0.00     0.089 N 
BRANCH  15  16
HETATM   16  C2  UNL     1      21.053   4.092  47.064  1.00  0.00     0.268 C 
HETATM   17  C1  UNL     1      21.870   3.676  45.900  1.00  0.00     0.037 C 
ENDBRANCH  15  16
BRANCH  15  18
HETATM   18  C3  UNL     1      20.747   2.072  48.296  1.00  0.00     0.268 C 
HETATM   19  C4  UNL     1      21.598   1.203  49.218  1.00  0.00     0.037 C 
ENDBRANCH  15  18
ENDBRANCH  14  15
ENDBRANCH  13  14
ENDBRANCH  10  13
ENDBRANCH   7   9
ENDBRANCH   1   7
BRANCH   6  20
HETATM   20  N5  UNL     1      25.506   3.978  50.624  1.00  0.00    -0.348 N 
HETATM   21  H22 UNL     1      24.543   4.026  51.023  1.00  0.00     0.167 HD
BRANCH  20  22
HETATM   22  C14 UNL     1      26.427   2.882  50.832  1.00  0.00     0.101 C 
HETATM   23  C15 UNL     1      25.902   1.897  51.507  1.00  0.00    -0.015 A 
HETATM   24  C16 UNL     1      24.528   1.922  51.988  1.00  0.00     0.037 A 
HETATM   25  C19 UNL     1      26.675   0.678  51.828  1.00  0.00     0.062 A 
HETATM   26  C17 UNL     1      23.951   0.922  52.683  1.00  0.00     0.144 A 
HETATM   27  O2  UNL     1      24.753  -0.200  52.947  1.00  0.00    -0.311 OA
HETATM   28  C18 UNL     1      26.071  -0.266  52.508  1.00  0.00     0.145 A 
HETATM   29 CL1  UNL     1      26.982  -1.710  52.888  1.00  0.00    -0.057 Cl
ENDBRANCH  20  22
ENDBRANCH   6  20
TORSDOF 9
ENDMDL
