MODEL 1
REMARK VINA RESULT:      -8.1      0.000      0.000
REMARK  1 active torsions:
REMARK  status: ('A' for Active; 'I' for Inactive)
REMARK    1  A    between atoms: C3_4  and  O1_5 
ROOT
HETATM    1  C1  UNL     1      25.496   2.383  53.894  1.00  0.00     0.144 C 
HETATM    2  N1  UNL     1      26.084   0.958  53.644  1.00  0.00    -0.400 N 
HETATM    3  C2  UNL     1      26.453   0.717  55.210  1.00  0.00     0.149 C 
HETATM    4  C3  UNL     1      27.906   0.424  55.033  1.00  0.00     0.136 C 
HETATM    5  C4  UNL     1      28.570  -0.566  54.249  1.00  0.00     0.044 C 
HETATM    6  C5  UNL     1      28.149  -1.131  52.900  1.00  0.00    -0.023 A 
HETATM    7  C6  UNL     1      28.474  -2.546  52.851  1.00  0.00     0.016 C 
HETATM    8  C7  UNL     1      27.221  -0.537  52.115  1.00  0.00     0.009 A 
HETATM    9  C8  UNL     1      26.779  -2.127  52.315  1.00  0.00     0.011 A 
HETATM   10  C9  UNL     1      26.425  -1.187  53.213  1.00  0.00     0.038 A 
HETATM   11  C10 UNL     1      26.266   0.088  52.118  1.00  0.00     0.071 A 
HETATM   12  C11 UNL     1      26.130   1.369  51.633  1.00  0.00    -0.007 A 
HETATM   13  C12 UNL     1      24.765   1.773  51.378  1.00  0.00    -0.005 A 
HETATM   14  C13 UNL     1      23.578   1.410  51.920  1.00  0.00     0.014 A 
HETATM   15  C14 UNL     1      22.516   2.023  51.368  1.00  0.00     0.001 A 
HETATM   16  C15 UNL     1      22.644   2.925  50.355  1.00  0.00     0.002 A 
HETATM   17  C16 UNL     1      23.807   3.317  49.784  1.00  0.00     0.024 A 
HETATM   18  C17 UNL     1      24.940   2.696  50.336  1.00  0.00     0.044 A 
HETATM   19 CL1  UNL     1      26.476   3.185  49.599  1.00  0.00    -0.083 Cl
HETATM   20  O2  UNL     1      27.505   0.935  51.898  1.00  0.00     0.000 OA
ENDROOT
BRANCH   4  21
HETATM   21  O1  UNL     1      28.443   1.696  54.601  1.00  0.00    -0.394 OA
HETATM   22  H7  UNL     1      28.497   2.326  55.334  1.00  0.00     0.210 HD
ENDBRANCH   4  21
TORSDOF 1
ENDMDL
MODEL 2
REMARK VINA RESULT:      -7.6      4.388      5.681
REMARK  1 active torsions:
REMARK  status: ('A' for Active; 'I' for Inactive)
REMARK    1  A    between atoms: C3_4  and  O1_5 
ROOT
HETATM    1  C1  UNL     1      22.171   4.328  51.809  1.00  0.00     0.144 C 
HETATM    2  N1  UNL     1      23.614   4.317  51.213  1.00  0.00    -0.400 N 
HETATM    3  C2  UNL     1      23.914   5.861  51.629  1.00  0.00     0.149 C 
HETATM    4  C3  UNL     1      24.270   6.372  50.273  1.00  0.00     0.136 C 
HETATM    5  C4  UNL     1      25.268   5.946  49.347  1.00  0.00     0.044 C 
HETATM    6  C5  UNL     1      25.776   4.533  49.100  1.00  0.00    -0.023 A 
HETATM    7  C6  UNL     1      27.202   4.577  48.831  1.00  0.00     0.016 C 
HETATM    8  C7  UNL     1      25.118   3.433  49.534  1.00  0.00     0.009 A 
HETATM    9  C8  UNL     1      26.691   3.329  50.062  1.00  0.00     0.011 A 
HETATM   10  C9  UNL     1      25.760   3.999  50.770  1.00  0.00     0.038 A 
HETATM   11  C10 UNL     1      24.450   3.017  50.360  1.00  0.00     0.071 A 
HETATM   12  C11 UNL     1      23.152   2.583  50.216  1.00  0.00    -0.007 A 
HETATM   13  C12 UNL     1      22.678   1.737  51.290  1.00  0.00    -0.005 A 
HETATM   14  C13 UNL     1      23.000   1.643  52.601  1.00  0.00     0.014 A 
HETATM   15  C14 UNL     1      22.324   0.687  53.262  1.00  0.00     0.001 A 
HETATM   16  C15 UNL     1      21.402  -0.106  52.648  1.00  0.00     0.002 A 
HETATM   17  C16 UNL     1      21.049  -0.047  51.342  1.00  0.00     0.024 A 
HETATM   18  C17 UNL     1      21.736   0.942  50.619  1.00  0.00     0.044 A 
HETATM   19 CL1  UNL     1      21.299   1.034  48.904  1.00  0.00    -0.083 Cl
HETATM   20  O2  UNL     1      23.656   3.441  49.140  1.00  0.00     0.000 OA
ENDROOT
BRANCH   4  21
HETATM   21  O1  UNL     1      23.013   6.300  49.560  1.00  0.00    -0.394 OA
HETATM   22  H7  UNL     1      22.984   5.534  48.968  1.00  0.00     0.210 HD
ENDBRANCH   4  21
TORSDOF 1
ENDMDL
MODEL 3
REMARK VINA RESULT:      -7.6      3.070      6.289
REMARK  1 active torsions:
REMARK  status: ('A' for Active; 'I' for Inactive)
REMARK    1  A    between atoms: C3_4  and  O1_5 
ROOT
HETATM    1  C1  UNL     1      24.096   3.357  52.839  1.00  0.00     0.144 C 
HETATM    2  N1  UNL     1      23.300   3.059  51.528  1.00  0.00    -0.400 N 
HETATM    3  C2  UNL     1      23.015   4.630  51.216  1.00  0.00     0.149 C 
HETATM    4  C3  UNL     1      21.526   4.553  51.132  1.00  0.00     0.136 C 
HETATM    5  C4  UNL     1      20.677   3.761  50.303  1.00  0.00     0.044 C 
HETATM    6  C5  UNL     1      20.918   2.346  49.796  1.00  0.00    -0.023 A 
HETATM    7  C6  UNL     1      20.398   2.228  48.445  1.00  0.00     0.016 C 
HETATM    8  C7  UNL     1      21.860   1.530  50.322  1.00  0.00     0.009 A 
HETATM    9  C8  UNL     1      22.091   1.584  48.677  1.00  0.00     0.011 A 
HETATM   10  C9  UNL     1      22.636   2.512  49.488  1.00  0.00     0.038 A 
HETATM   11  C10 UNL     1      22.889   1.498  50.813  1.00  0.00     0.071 A 
HETATM   12  C11 UNL     1      23.165   1.091  52.099  1.00  0.00    -0.007 A 
HETATM   13  C12 UNL     1      24.552   0.753  52.337  1.00  0.00    -0.005 A 
HETATM   14  C13 UNL     1      25.713   1.169  51.779  1.00  0.00     0.014 A 
HETATM   15  C14 UNL     1      26.807   0.576  52.288  1.00  0.00     0.001 A 
HETATM   16  C15 UNL     1      26.732  -0.360  53.275  1.00  0.00     0.002 A 
HETATM   17  C16 UNL     1      25.596  -0.805  53.862  1.00  0.00     0.024 A 
HETATM   18  C17 UNL     1      24.431  -0.205  53.355  1.00  0.00     0.044 A 
HETATM   19 CL1  UNL     1      22.928  -0.778  54.100  1.00  0.00    -0.083 Cl
HETATM   20  O2  UNL     1      21.767   1.439  51.831  1.00  0.00     0.000 OA
ENDROOT
BRANCH   4  21
HETATM   21  O1  UNL     1      21.141   4.255  52.494  1.00  0.00    -0.394 OA
HETATM   22  H7  UNL     1      21.743   3.615  52.901  1.00  0.00     0.210 HD
ENDBRANCH   4  21
TORSDOF 1
ENDMDL
MODEL 4
REMARK VINA RESULT:      -7.4      3.754      6.269
REMARK  1 active torsions:
REMARK  status: ('A' for Active; 'I' for Inactive)
REMARK    1  A    between atoms: C3_4  and  O1_5 
ROOT
HETATM    1  C1  UNL     1      21.601   0.939  50.559  1.00  0.00     0.144 C 
HETATM    2  N1  UNL     1      22.098   2.388  50.862  1.00  0.00    -0.400 N 
HETATM    3  C2  UNL     1      21.402   3.021  49.534  1.00  0.00     0.149 C 
HETATM    4  C3  UNL     1      22.625   3.634  48.937  1.00  0.00     0.136 C 
HETATM    5  C4  UNL     1      23.546   4.586  49.468  1.00  0.00     0.044 C 
HETATM    6  C5  UNL     1      24.000   4.746  50.912  1.00  0.00    -0.023 A 
HETATM    7  C6  UNL     1      24.168   6.158  51.208  1.00  0.00     0.016 C 
HETATM    8  C7  UNL     1      23.806   3.792  51.850  1.00  0.00     0.009 A 
HETATM    9  C8  UNL     1      23.205   5.223  52.445  1.00  0.00     0.011 A 
HETATM   10  C9  UNL     1      22.452   4.420  51.668  1.00  0.00     0.038 A 
HETATM   11  C10 UNL     1      23.108   2.956  52.194  1.00  0.00     0.071 A 
HETATM   12  C11 UNL     1      23.407   1.614  52.241  1.00  0.00    -0.007 A 
HETATM   13  C12 UNL     1      22.527   0.832  53.082  1.00  0.00    -0.005 A 
HETATM   14  C13 UNL     1      21.234   0.980  53.455  1.00  0.00     0.014 A 
HETATM   15  C14 UNL     1      20.792   0.018  54.286  1.00  0.00     0.001 A 
HETATM   16  C15 UNL     1      21.592  -1.003  54.704  1.00  0.00     0.002 A 
HETATM   17  C16 UNL     1      22.887  -1.189  54.358  1.00  0.00     0.024 A 
HETATM   18  C17 UNL     1      23.383  -0.203  53.489  1.00  0.00     0.044 A 
HETATM   19 CL1  UNL     1      25.081  -0.419  53.028  1.00  0.00    -0.083 Cl
HETATM   20  O2  UNL     1      24.284   2.428  51.395  1.00  0.00     0.000 OA
ENDROOT
BRANCH   4  21
HETATM   21  O1  UNL     1      23.417   2.482  48.565  1.00  0.00    -0.394 OA
HETATM   22  H7  UNL     1      24.211   2.741  48.075  1.00  0.00     0.210 HD
ENDBRANCH   4  21
TORSDOF 1
ENDMDL
MODEL 5
REMARK VINA RESULT:      -7.2      4.370      5.970
REMARK  1 active torsions:
REMARK  status: ('A' for Active; 'I' for Inactive)
REMARK    1  A    between atoms: C3_4  and  O1_5 
ROOT
HETATM    1  C1  UNL     1      22.679   2.916  48.572  1.00  0.00     0.144 C 
HETATM    2  N1  UNL     1      22.504   2.151  49.923  1.00  0.00    -0.400 N 
HETATM    3  C2  UNL     1      21.610   0.964  49.261  1.00  0.00     0.149 C 
HETATM    4  C3  UNL     1      20.419   1.087  50.151  1.00  0.00     0.136 C 
HETATM    5  C4  UNL     1      20.302   1.009  51.571  1.00  0.00     0.044 C 
HETATM    6  C5  UNL     1      21.307   1.462  52.620  1.00  0.00    -0.023 A 
HETATM    7  C6  UNL     1      21.292   0.530  53.733  1.00  0.00     0.016 C 
HETATM    8  C7  UNL     1      22.340   2.288  52.335  1.00  0.00     0.009 A 
HETATM    9  C8  UNL     1      22.954   0.948  53.104  1.00  0.00     0.011 A 
HETATM   10  C9  UNL     1      22.755   0.957  51.771  1.00  0.00     0.038 A 
HETATM   11  C10 UNL     1      23.088   2.595  51.529  1.00  0.00     0.071 A 
HETATM   12  C11 UNL     1      23.164   3.823  50.914  1.00  0.00    -0.007 A 
HETATM   13  C12 UNL     1      24.423   4.087  50.252  1.00  0.00    -0.005 A 
HETATM   14  C13 UNL     1      25.353   3.284  49.684  1.00  0.00     0.014 A 
HETATM   15  C14 UNL     1      26.414   3.945  49.187  1.00  0.00     0.001 A 
HETATM   16  C15 UNL     1      26.524   5.301  49.261  1.00  0.00     0.002 A 
HETATM   17  C16 UNL     1      25.621   6.141  49.819  1.00  0.00     0.024 A 
HETATM   18  C17 UNL     1      24.497   5.485  50.349  1.00  0.00     0.044 A 
HETATM   19 CL1  UNL     1      23.303   6.563  51.094  1.00  0.00    -0.083 Cl
HETATM   20  O2  UNL     1      21.898   3.532  51.593  1.00  0.00     0.000 OA
ENDROOT
BRANCH   4  21
HETATM   21  O1  UNL     1      19.867   2.372  49.779  1.00  0.00    -0.394 OA
HETATM   22  H7  UNL     1      18.947   2.459  50.066  1.00  0.00     0.210 HD
ENDBRANCH   4  21
TORSDOF 1
ENDMDL
MODEL 6
REMARK VINA RESULT:      -7.1      5.966      7.837
REMARK  1 active torsions:
REMARK  status: ('A' for Active; 'I' for Inactive)
REMARK    1  A    between atoms: C3_4  and  O1_5 
ROOT
HETATM    1  C1  UNL     1      24.811   7.034  50.742  1.00  0.00     0.144 C 
HETATM    2  N1  UNL     1      23.617   6.621  49.824  1.00  0.00    -0.400 N 
HETATM    3  C2  UNL     1      22.546   7.558  50.613  1.00  0.00     0.149 C 
HETATM    4  C3  UNL     1      21.554   6.494  50.947  1.00  0.00     0.136 C 
HETATM    5  C4  UNL     1      20.838   5.588  50.109  1.00  0.00     0.044 C 
HETATM    6  C5  UNL     1      21.308   4.938  48.815  1.00  0.00    -0.023 A 
HETATM    7  C6  UNL     1      20.191   4.849  47.891  1.00  0.00     0.016 C 
HETATM    8  C7  UNL     1      22.607   4.909  48.440  1.00  0.00     0.009 A 
HETATM    9  C8  UNL     1      21.725   5.533  47.177  1.00  0.00     0.011 A 
HETATM   10  C9  UNL     1      22.171   6.324  48.174  1.00  0.00     0.038 A 
HETATM   11  C10 UNL     1      23.598   5.475  48.481  1.00  0.00     0.071 A 
HETATM   12  C11 UNL     1      24.746   5.061  49.114  1.00  0.00    -0.007 A 
HETATM   13  C12 UNL     1      25.950   5.736  48.679  1.00  0.00    -0.005 A 
HETATM   14  C13 UNL     1      26.184   6.967  48.166  1.00  0.00     0.014 A 
HETATM   15  C14 UNL     1      27.475   7.197  47.866  1.00  0.00     0.001 A 
HETATM   16  C15 UNL     1      28.444   6.261  48.066  1.00  0.00     0.002 A 
HETATM   17  C16 UNL     1      28.256   5.020  48.575  1.00  0.00     0.024 A 
HETATM   18  C17 UNL     1      26.918   4.744  48.901  1.00  0.00     0.044 A 
HETATM   19 CL1  UNL     1      26.644   3.123  49.561  1.00  0.00    -0.083 Cl
HETATM   20  O2  UNL     1      23.513   4.391  49.538  1.00  0.00     0.000 OA
ENDROOT
BRANCH   4  21
HETATM   21  O1  UNL     1      22.269   5.672  51.898  1.00  0.00    -0.394 OA
HETATM   22  H7  UNL     1      21.953   4.756  51.884  1.00  0.00     0.210 HD
ENDBRANCH   4  21
TORSDOF 1
ENDMDL
MODEL 7
REMARK VINA RESULT:      -7.1      4.729      6.201
REMARK  1 active torsions:
REMARK  status: ('A' for Active; 'I' for Inactive)
REMARK    1  A    between atoms: C3_4  and  O1_5 
ROOT
HETATM    1  C1  UNL     1      24.538   6.573  51.094  1.00  0.00     0.144 C 
HETATM    2  N1  UNL     1      23.746   5.337  50.559  1.00  0.00    -0.400 N 
HETATM    3  C2  UNL     1      22.693   5.338  51.799  1.00  0.00     0.149 C 
HETATM    4  C3  UNL     1      22.915   3.934  52.254  1.00  0.00     0.136 C 
HETATM    5  C4  UNL     1      22.795   2.696  51.554  1.00  0.00     0.044 C 
HETATM    6  C5  UNL     1      23.093   2.416  50.088  1.00  0.00    -0.023 A 
HETATM    7  C6  UNL     1      22.125   1.461  49.577  1.00  0.00     0.016 C 
HETATM    8  C7  UNL     1      23.808   3.263  49.312  1.00  0.00     0.009 A 
HETATM    9  C8  UNL     1      22.379   2.934  48.528  1.00  0.00     0.011 A 
HETATM   10  C9  UNL     1      22.462   3.920  49.444  1.00  0.00     0.038 A 
HETATM   11  C10 UNL     1      24.060   4.359  49.123  1.00  0.00     0.071 A 
HETATM   12  C11 UNL     1      25.295   4.948  49.269  1.00  0.00    -0.007 A 
HETATM   13  C12 UNL     1      25.441   6.215  48.585  1.00  0.00    -0.005 A 
HETATM   14  C13 UNL     1      24.562   7.184  48.239  1.00  0.00     0.014 A 
HETATM   15  C14 UNL     1      25.118   8.215  47.579  1.00  0.00     0.001 A 
HETATM   16  C15 UNL     1      26.449   8.260  47.292  1.00  0.00     0.002 A 
HETATM   17  C16 UNL     1      27.363   7.316  47.618  1.00  0.00     0.024 A 
HETATM   18  C17 UNL     1      26.817   6.222  48.310  1.00  0.00     0.044 A 
HETATM   19 CL1  UNL     1      27.992   4.967  48.741  1.00  0.00    -0.083 Cl
HETATM   20  O2  UNL     1      25.121   3.663  49.951  1.00  0.00     0.000 OA
ENDROOT
BRANCH   4  21
HETATM   21  O1  UNL     1      24.266   3.969  52.768  1.00  0.00    -0.394 OA
HETATM   22  H7  UNL     1      24.788   4.668  52.347  1.00  0.00     0.210 HD
ENDBRANCH   4  21
TORSDOF 1
ENDMDL
MODEL 8
REMARK VINA RESULT:      -6.8      9.671     11.482
REMARK  1 active torsions:
REMARK  status: ('A' for Active; 'I' for Inactive)
REMARK    1  A    between atoms: C3_4  and  O1_5 
ROOT
HETATM    1  C1  UNL     1      33.390   6.919  45.440  1.00  0.00     0.144 C 
HETATM    2  N1  UNL     1      32.400   7.630  46.416  1.00  0.00    -0.400 N 
HETATM    3  C2  UNL     1      31.954   8.749  45.322  1.00  0.00     0.149 C 
HETATM    4  C3  UNL     1      32.288   9.962  46.125  1.00  0.00     0.136 C 
HETATM    5  C4  UNL     1      31.842  10.381  47.414  1.00  0.00     0.044 C 
HETATM    6  C5  UNL     1      31.496   9.511  48.614  1.00  0.00    -0.023 A 
HETATM    7  C6  UNL     1      30.367  10.093  49.318  1.00  0.00     0.016 C 
HETATM    8  C7  UNL     1      31.859   8.210  48.704  1.00  0.00     0.009 A 
HETATM    9  C8  UNL     1      30.222   8.305  48.980  1.00  0.00     0.011 A 
HETATM   10  C9  UNL     1      30.714   8.215  47.728  1.00  0.00     0.038 A 
HETATM   11  C10 UNL     1      32.053   7.258  48.107  1.00  0.00     0.071 A 
HETATM   12  C11 UNL     1      33.260   6.611  47.976  1.00  0.00    -0.007 A 
HETATM   13  C12 UNL     1      33.161   5.238  47.528  1.00  0.00    -0.005 A 
HETATM   14  C13 UNL     1      32.256   4.579  46.767  1.00  0.00     0.014 A 
HETATM   15  C14 UNL     1      32.530   3.272  46.603  1.00  0.00     0.001 A 
HETATM   16  C15 UNL     1      33.624   2.684  47.163  1.00  0.00     0.002 A 
HETATM   17  C16 UNL     1      34.553   3.303  47.928  1.00  0.00     0.024 A 
HETATM   18  C17 UNL     1      34.299   4.672  48.121  1.00  0.00     0.044 A 
HETATM   19 CL1  UNL     1      35.496   5.504  49.129  1.00  0.00    -0.083 Cl
HETATM   20  O2  UNL     1      33.333   8.002  48.430  1.00  0.00     0.000 OA
ENDROOT
BRANCH   4  21
HETATM   21  O1  UNL     1      33.732   9.912  46.203  1.00  0.00    -0.394 OA
HETATM   22  H7  UNL     1      34.117   9.531  45.401  1.00  0.00     0.210 HD
ENDBRANCH   4  21
TORSDOF 1
ENDMDL
MODEL 9
REMARK VINA RESULT:      -6.8      8.463      9.357
REMARK  1 active torsions:
REMARK  status: ('A' for Active; 'I' for Inactive)
REMARK    1  A    between atoms: C3_4  and  O1_5 
ROOT
HETATM    1  C1  UNL     1      31.368   6.858  49.455  1.00  0.00     0.144 C 
HETATM    2  N1  UNL     1      32.097   6.010  48.364  1.00  0.00    -0.400 N 
HETATM    3  C2  UNL     1      33.337   5.620  49.342  1.00  0.00     0.149 C 
HETATM    4  C3  UNL     1      34.444   6.128  48.479  1.00  0.00     0.136 C 
HETATM    5  C4  UNL     1      34.802   5.808  47.136  1.00  0.00     0.044 C 
HETATM    6  C5  UNL     1      33.880   5.445  45.980  1.00  0.00    -0.023 A 
HETATM    7  C6  UNL     1      34.516   4.429  45.161  1.00  0.00     0.016 C 
HETATM    8  C7  UNL     1      32.547   5.674  46.009  1.00  0.00     0.009 A 
HETATM    9  C8  UNL     1      32.784   4.076  45.616  1.00  0.00     0.011 A 
HETATM   10  C9  UNL     1      32.743   4.479  46.901  1.00  0.00     0.038 A 
HETATM   11  C10 UNL     1      31.629   5.729  46.685  1.00  0.00     0.071 A 
HETATM   12  C11 UNL     1      30.876   6.851  46.944  1.00  0.00    -0.007 A 
HETATM   13  C12 UNL     1      29.560   6.580  47.482  1.00  0.00    -0.005 A 
HETATM   14  C13 UNL     1      29.057   5.566  48.224  1.00  0.00     0.014 A 
HETATM   15  C14 UNL     1      27.747   5.689  48.500  1.00  0.00     0.001 A 
HETATM   16  C15 UNL     1      27.009   6.747  48.061  1.00  0.00     0.002 A 
HETATM   17  C16 UNL     1      27.469   7.781  47.318  1.00  0.00     0.024 A 
HETATM   18  C17 UNL     1      28.837   7.686  47.010  1.00  0.00     0.044 A 
HETATM   19 CL1  UNL     1      29.462   9.024  46.030  1.00  0.00    -0.083 Cl
HETATM   20  O2  UNL     1      32.213   7.099  46.398  1.00  0.00     0.000 OA
ENDROOT
BRANCH   4  21
HETATM   21  O1  UNL     1      34.242   7.560  48.504  1.00  0.00    -0.394 OA
HETATM   22  H7  UNL     1      33.494   7.823  47.947  1.00  0.00     0.210 HD
ENDBRANCH   4  21
TORSDOF 1
ENDMDL
