MODEL 1
REMARK VINA RESULT:      -7.8      0.000      0.000
REMARK  10 active torsions:
REMARK  status: ('A' for Active; 'I' for Inactive)
REMARK    1  A    between atoms: O1_2  and  C2_3 
REMARK    2  A    between atoms: C6_9  and  N3_10 
REMARK    3  A    between atoms: N3_10  and  C7_11 
REMARK    4  A    between atoms: C15_21  and  O2_22 
REMARK    5  A    between atoms: O2_22  and  C16_23 
REMARK    6  A    between atoms: C16_23  and  C17_24 
REMARK    7  A    between atoms: C17_24  and  C18_25 
REMARK    8  A    between atoms: C17_24  and  C19_27 
REMARK    9  A    between atoms: C18_25  and  O3_26 
REMARK   10  A    between atoms: C19_27  and  N4_28 
ROOT
HETATM    1  C2  UNL     1      22.772   0.438  53.119  1.00  0.00     0.103 A 
HETATM    2  C3  UNL     1      21.629   1.068  52.679  1.00  0.00     0.072 A 
HETATM    3  C4  UNL     1      21.695   2.365  52.236  1.00  0.00     0.075 A 
HETATM    4  N1  UNL     1      20.531   2.923  51.817  1.00  0.00    -0.241 NA
HETATM    5  C5  UNL     1      20.499   4.189  51.367  1.00  0.00     0.236 A 
HETATM    6  N2  UNL     1      21.656   4.857  51.353  1.00  0.00    -0.224 NA
HETATM    7  C6  UNL     1      22.837   4.414  51.734  1.00  0.00     0.142 A 
HETATM    8  C13 UNL     1      22.841   3.116  52.191  1.00  0.00     0.042 A 
HETATM    9  C14 UNL     1      23.945   2.428  52.644  1.00  0.00     0.057 A 
HETATM   10  C15 UNL     1      23.953   1.144  53.096  1.00  0.00     0.103 A 
ENDROOT
BRANCH   7  11
HETATM   11  N3  UNL     1      24.043   5.122  51.716  1.00  0.00    -0.340 N 
HETATM   12  H6  UNL     1      24.340   5.743  52.487  1.00  0.00     0.167 HD
BRANCH  11  13
HETATM   13  C7  UNL     1      25.057   5.159  50.727  1.00  0.00     0.035 A 
HETATM   14  C8  UNL     1      25.783   4.075  50.247  1.00  0.00     0.032 A 
HETATM   15  C9  UNL     1      26.754   4.149  49.291  1.00  0.00     0.046 A 
HETATM   16  C10 UNL     1      27.080   5.355  48.727  1.00  0.00     0.138 A 
HETATM   17  F1  UNL     1      28.040   5.350  47.799  1.00  0.00    -0.204 F 
HETATM   18  C11 UNL     1      26.398   6.450  49.164  1.00  0.00     0.074 A 
HETATM   19 CL1  UNL     1      26.856   7.975  48.406  1.00  0.00    -0.081 Cl
HETATM   20  C12 UNL     1      25.432   6.337  50.121  1.00  0.00     0.056 A 
ENDBRANCH  11  13
ENDBRANCH   7  11
BRANCH  10  21
HETATM   21  O2  UNL     1      25.095   0.515  53.535  1.00  0.00    -0.348 OA
BRANCH  21  22
HETATM   22  C16 UNL     1      26.113   0.085  52.688  1.00  0.00     0.184 C 
BRANCH  22  23
HETATM   23  C17 UNL     1      27.477   0.577  53.123  1.00  0.00     0.054 C 
BRANCH  23  24
HETATM   24  C18 UNL     1      27.696   2.025  52.828  1.00  0.00     0.172 C 
BRANCH  24  25
HETATM   25  O3  UNL     1      28.969   2.464  53.158  1.00  0.00    -0.400 OA
HETATM   26  H16 UNL     1      29.599   2.493  52.400  1.00  0.00     0.209 HD
ENDBRANCH  24  25
ENDBRANCH  23  24
BRANCH  23  27
HETATM   27  C19 UNL     1      27.744   0.210  54.551  1.00  0.00     0.167 C 
BRANCH  27  28
HETATM   28  N4  UNL     1      29.034  -0.448  54.602  1.00  0.00    -0.245 NA
HETATM   29  S1  UNL     1      29.516  -1.141  53.487  1.00  0.00     0.062 SA
ENDBRANCH  27  28
ENDBRANCH  23  27
ENDBRANCH  22  23
ENDBRANCH  21  22
ENDBRANCH  10  21
BRANCH   1  30
HETATM   30  O1  UNL     1      22.770  -0.871  53.579  1.00  0.00    -0.353 OA
HETATM   31  C1  UNL     1      22.099  -1.250  54.761  1.00  0.00     0.210 C 
ENDBRANCH   1  30
TORSDOF 10
ENDMDL
MODEL 2
REMARK VINA RESULT:      -7.8      3.867      6.101
REMARK  10 active torsions:
REMARK  status: ('A' for Active; 'I' for Inactive)
REMARK    1  A    between atoms: O1_2  and  C2_3 
REMARK    2  A    between atoms: C6_9  and  N3_10 
REMARK    3  A    between atoms: N3_10  and  C7_11 
REMARK    4  A    between atoms: C15_21  and  O2_22 
REMARK    5  A    between atoms: O2_22  and  C16_23 
REMARK    6  A    between atoms: C16_23  and  C17_24 
REMARK    7  A    between atoms: C17_24  and  C18_25 
REMARK    8  A    between atoms: C17_24  and  C19_27 
REMARK    9  A    between atoms: C18_25  and  O3_26 
REMARK   10  A    between atoms: C19_27  and  N4_28 
ROOT
HETATM    1  C2  UNL     1      20.392   2.526  52.572  1.00  0.00     0.103 A 
HETATM    2  C3  UNL     1      20.343   1.392  53.353  1.00  0.00     0.072 A 
HETATM    3  C4  UNL     1      21.469   0.624  53.508  1.00  0.00     0.075 A 
HETATM    4  N1  UNL     1      21.349  -0.478  54.291  1.00  0.00    -0.241 NA
HETATM    5  C5  UNL     1      22.400  -1.291  54.501  1.00  0.00     0.236 A 
HETATM    6  N2  UNL     1      23.549  -0.959  53.906  1.00  0.00    -0.224 NA
HETATM    7  C6  UNL     1      23.776   0.082  53.131  1.00  0.00     0.142 A 
HETATM    8  C13 UNL     1      22.684   0.896  52.932  1.00  0.00     0.042 A 
HETATM    9  C14 UNL     1      22.664   2.040  52.166  1.00  0.00     0.057 A 
HETATM   10  C15 UNL     1      21.587   2.848  51.968  1.00  0.00     0.103 A 
ENDROOT
BRANCH   7  11
HETATM   11  N3  UNL     1      24.984   0.419  52.513  1.00  0.00    -0.340 N 
HETATM   12  H6  UNL     1      25.034   0.992  51.654  1.00  0.00     0.167 HD
BRANCH  11  13
HETATM   13  C7  UNL     1      26.313   0.087  52.879  1.00  0.00     0.035 A 
HETATM   14  C8  UNL     1      26.926  -1.151  52.729  1.00  0.00     0.032 A 
HETATM   15  C9  UNL     1      28.210  -1.434  53.094  1.00  0.00     0.046 A 
HETATM   16  C10 UNL     1      29.000  -0.464  53.654  1.00  0.00     0.138 A 
HETATM   17  F1  UNL     1      30.245  -0.814  53.987  1.00  0.00    -0.204 F 
HETATM   18  C11 UNL     1      28.445   0.769  53.825  1.00  0.00     0.074 A 
HETATM   19 CL1  UNL     1      29.503   1.978  54.549  1.00  0.00    -0.081 Cl
HETATM   20  C12 UNL     1      27.158   1.014  53.447  1.00  0.00     0.056 A 
ENDBRANCH  11  13
ENDBRANCH   7  11
BRANCH  10  21
HETATM   21  O2  UNL     1      21.636   3.980  51.189  1.00  0.00    -0.348 OA
BRANCH  21  22
HETATM   22  C16 UNL     1      22.248   5.165  51.587  1.00  0.00     0.184 C 
BRANCH  22  23
HETATM   23  C17 UNL     1      23.313   5.625  50.614  1.00  0.00     0.054 C 
BRANCH  23  24
HETATM   24  C18 UNL     1      23.765   7.027  50.862  1.00  0.00     0.172 C 
BRANCH  24  25
HETATM   25  O3  UNL     1      24.512   7.164  52.022  1.00  0.00    -0.400 OA
HETATM   26  H16 UNL     1      25.268   7.792  51.947  1.00  0.00     0.209 HD
ENDBRANCH  24  25
ENDBRANCH  23  24
BRANCH  23  27
HETATM   27  C19 UNL     1      24.438   4.636  50.553  1.00  0.00     0.167 C 
BRANCH  27  28
HETATM   28  N4  UNL     1      25.522   5.248  49.811  1.00  0.00    -0.245 NA
HETATM   29  S1  UNL     1      26.554   4.459  49.292  1.00  0.00     0.062 SA
ENDBRANCH  27  28
ENDBRANCH  23  27
ENDBRANCH  22  23
ENDBRANCH  21  22
ENDBRANCH  10  21
BRANCH   1  30
HETATM   30  O1  UNL     1      19.288   3.343  52.376  1.00  0.00    -0.353 OA
HETATM   31  C1  UNL     1      18.269   3.018  51.455  1.00  0.00     0.210 C 
ENDBRANCH   1  30
TORSDOF 10
ENDMDL
MODEL 3
REMARK VINA RESULT:      -7.8      1.775      2.103
REMARK  10 active torsions:
REMARK  status: ('A' for Active; 'I' for Inactive)
REMARK    1  A    between atoms: O1_2  and  C2_3 
REMARK    2  A    between atoms: C6_9  and  N3_10 
REMARK    3  A    between atoms: N3_10  and  C7_11 
REMARK    4  A    between atoms: C15_21  and  O2_22 
REMARK    5  A    between atoms: O2_22  and  C16_23 
REMARK    6  A    between atoms: C16_23  and  C17_24 
REMARK    7  A    between atoms: C17_24  and  C18_25 
REMARK    8  A    between atoms: C17_24  and  C19_27 
REMARK    9  A    between atoms: C18_25  and  O3_26 
REMARK   10  A    between atoms: C19_27  and  N4_28 
ROOT
HETATM    1  C2  UNL     1      22.372   0.443  53.380  1.00  0.00     0.103 A 
HETATM    2  C3  UNL     1      21.149   1.077  53.351  1.00  0.00     0.072 A 
HETATM    3  C4  UNL     1      20.930   2.089  52.452  1.00  0.00     0.075 A 
HETATM    4  N1  UNL     1      19.702   2.669  52.478  1.00  0.00    -0.241 NA
HETATM    5  C5  UNL     1      19.396   3.669  51.633  1.00  0.00     0.236 A 
HETATM    6  N2  UNL     1      20.350   4.055  50.781  1.00  0.00    -0.224 NA
HETATM    7  C6  UNL     1      21.568   3.564  50.670  1.00  0.00     0.142 A 
HETATM    8  C13 UNL     1      21.855   2.543  51.546  1.00  0.00     0.042 A 
HETATM    9  C14 UNL     1      23.052   1.868  51.629  1.00  0.00     0.057 A 
HETATM   10  C15 UNL     1      23.340   0.857  52.494  1.00  0.00     0.103 A 
ENDROOT
BRANCH   7  11
HETATM   11  N3  UNL     1      22.559   3.977  49.774  1.00  0.00    -0.340 N 
HETATM   12  H6  UNL     1      22.667   3.566  48.830  1.00  0.00     0.167 HD
BRANCH  11  13
HETATM   13  C7  UNL     1      23.563   4.965  49.925  1.00  0.00     0.035 A 
HETATM   14  C8  UNL     1      23.483   6.111  50.708  1.00  0.00     0.032 A 
HETATM   15  C9  UNL     1      24.473   7.042  50.830  1.00  0.00     0.046 A 
HETATM   16  C10 UNL     1      25.655   6.888  50.153  1.00  0.00     0.138 A 
HETATM   17  F1  UNL     1      26.577   7.840  50.320  1.00  0.00    -0.204 F 
HETATM   18  C11 UNL     1      25.784   5.781  49.370  1.00  0.00     0.074 A 
HETATM   19 CL1  UNL     1      27.323   5.632  48.523  1.00  0.00    -0.081 Cl
HETATM   20  C12 UNL     1      24.773   4.871  49.274  1.00  0.00     0.056 A 
ENDBRANCH  11  13
ENDBRANCH   7  11
BRANCH  10  21
HETATM   21  O2  UNL     1      24.561   0.224  52.523  1.00  0.00    -0.348 OA
BRANCH  21  22
HETATM   22  C16 UNL     1      25.779   0.894  52.448  1.00  0.00     0.184 C 
BRANCH  22  23
HETATM   23  C17 UNL     1      26.808   0.337  53.409  1.00  0.00     0.054 C 
BRANCH  23  24
HETATM   24  C18 UNL     1      26.274   0.148  54.791  1.00  0.00     0.172 C 
BRANCH  24  25
HETATM   25  O3  UNL     1      25.565  -1.033  54.947  1.00  0.00    -0.400 OA
HETATM   26  H16 UNL     1      24.644  -1.004  54.597  1.00  0.00     0.209 HD
ENDBRANCH  24  25
ENDBRANCH  23  24
BRANCH  23  27
HETATM   27  C19 UNL     1      27.453  -0.892  52.844  1.00  0.00     0.167 C 
BRANCH  27  28
HETATM   28  N4  UNL     1      28.470  -1.326  53.780  1.00  0.00    -0.245 NA
HETATM   29  S1  UNL     1      29.797  -0.912  53.620  1.00  0.00     0.062 SA
ENDBRANCH  27  28
ENDBRANCH  23  27
ENDBRANCH  22  23
ENDBRANCH  21  22
ENDBRANCH  10  21
BRANCH   1  30
HETATM   30  O1  UNL     1      22.655  -0.587  54.266  1.00  0.00    -0.353 OA
HETATM   31  C1  UNL     1      21.735  -1.623  54.531  1.00  0.00     0.210 C 
ENDBRANCH   1  30
TORSDOF 10
ENDMDL
MODEL 4
REMARK VINA RESULT:      -7.5      3.982      6.212
REMARK  10 active torsions:
REMARK  status: ('A' for Active; 'I' for Inactive)
REMARK    1  A    between atoms: O1_2  and  C2_3 
REMARK    2  A    between atoms: C6_9  and  N3_10 
REMARK    3  A    between atoms: N3_10  and  C7_11 
REMARK    4  A    between atoms: C15_21  and  O2_22 
REMARK    5  A    between atoms: O2_22  and  C16_23 
REMARK    6  A    between atoms: C16_23  and  C17_24 
REMARK    7  A    between atoms: C17_24  and  C18_25 
REMARK    8  A    between atoms: C17_24  and  C19_27 
REMARK    9  A    between atoms: C18_25  and  O3_26 
REMARK   10  A    between atoms: C19_27  and  N4_28 
ROOT
HETATM    1  C2  UNL     1      26.072   3.603  49.749  1.00  0.00     0.103 A 
HETATM    2  C3  UNL     1      24.927   4.147  49.211  1.00  0.00     0.072 A 
HETATM    3  C4  UNL     1      23.723   3.955  49.840  1.00  0.00     0.075 A 
HETATM    4  N1  UNL     1      22.636   4.520  49.255  1.00  0.00    -0.241 NA
HETATM    5  C5  UNL     1      21.414   4.386  49.800  1.00  0.00     0.236 A 
HETATM    6  N2  UNL     1      21.330   3.679  50.930  1.00  0.00    -0.224 NA
HETATM    7  C6  UNL     1      22.315   3.091  51.579  1.00  0.00     0.142 A 
HETATM    8  C13 UNL     1      23.553   3.244  51.000  1.00  0.00     0.042 A 
HETATM    9  C14 UNL     1      24.735   2.728  51.484  1.00  0.00     0.057 A 
HETATM   10  C15 UNL     1      25.962   2.877  50.914  1.00  0.00     0.103 A 
ENDROOT
BRANCH   7  11
HETATM   11  N3  UNL     1      22.214   2.352  52.763  1.00  0.00    -0.340 N 
HETATM   12  H6  UNL     1      22.729   2.602  53.624  1.00  0.00     0.167 HD
BRANCH  11  13
HETATM   13  C7  UNL     1      21.454   1.190  53.043  1.00  0.00     0.035 A 
HETATM   14  C8  UNL     1      21.813   0.154  53.897  1.00  0.00     0.032 A 
HETATM   15  C9  UNL     1      21.053  -0.952  54.144  1.00  0.00     0.046 A 
HETATM   16  C10 UNL     1      19.836  -1.106  53.532  1.00  0.00     0.138 A 
HETATM   17  F1  UNL     1      19.149  -2.215  53.820  1.00  0.00    -0.204 F 
HETATM   18  C11 UNL     1      19.437  -0.118  52.683  1.00  0.00     0.074 A 
HETATM   19 CL1  UNL     1      17.866  -0.366  51.924  1.00  0.00    -0.081 Cl
HETATM   20  C12 UNL     1      20.224   0.974  52.462  1.00  0.00     0.056 A 
ENDBRANCH  11  13
ENDBRANCH   7  11
BRANCH  10  21
HETATM   21  O2  UNL     1      27.105   2.334  51.452  1.00  0.00    -0.348 OA
BRANCH  21  22
HETATM   22  C16 UNL     1      27.167   1.059  52.009  1.00  0.00     0.184 C 
BRANCH  22  23
HETATM   23  C17 UNL     1      28.227   0.944  53.083  1.00  0.00     0.054 C 
BRANCH  23  24
HETATM   24  C18 UNL     1      28.609   2.264  53.670  1.00  0.00     0.172 C 
BRANCH  24  25
HETATM   25  O3  UNL     1      27.525   2.985  54.145  1.00  0.00    -0.400 OA
HETATM   26  H16 UNL     1      27.425   2.971  55.126  1.00  0.00     0.209 HD
ENDBRANCH  24  25
ENDBRANCH  23  24
BRANCH  23  27
HETATM   27  C19 UNL     1      27.836  -0.076  54.108  1.00  0.00     0.167 C 
BRANCH  27  28
HETATM   28  N4  UNL     1      26.573   0.340  54.684  1.00  0.00    -0.245 NA
HETATM   29  S1  UNL     1      25.511  -0.564  54.781  1.00  0.00     0.062 SA
ENDBRANCH  27  28
ENDBRANCH  23  27
ENDBRANCH  22  23
ENDBRANCH  21  22
ENDBRANCH  10  21
BRANCH   1  30
HETATM   30  O1  UNL     1      27.319   3.760  49.160  1.00  0.00    -0.353 OA
HETATM   31  C1  UNL     1      27.735   4.987  48.602  1.00  0.00     0.210 C 
ENDBRANCH   1  30
TORSDOF 10
ENDMDL
MODEL 5
REMARK VINA RESULT:      -7.5      4.837      7.488
REMARK  10 active torsions:
REMARK  status: ('A' for Active; 'I' for Inactive)
REMARK    1  A    between atoms: O1_2  and  C2_3 
REMARK    2  A    between atoms: C6_9  and  N3_10 
REMARK    3  A    between atoms: N3_10  and  C7_11 
REMARK    4  A    between atoms: C15_21  and  O2_22 
REMARK    5  A    between atoms: O2_22  and  C16_23 
REMARK    6  A    between atoms: C16_23  and  C17_24 
REMARK    7  A    between atoms: C17_24  and  C18_25 
REMARK    8  A    between atoms: C17_24  and  C19_27 
REMARK    9  A    between atoms: C18_25  and  O3_26 
REMARK   10  A    between atoms: C19_27  and  N4_28 
ROOT
HETATM    1  C2  UNL     1      26.939   7.091  47.961  1.00  0.00     0.103 A 
HETATM    2  C3  UNL     1      25.597   6.870  48.186  1.00  0.00     0.072 A 
HETATM    3  C4  UNL     1      25.194   5.715  48.807  1.00  0.00     0.075 A 
HETATM    4  N1  UNL     1      23.859   5.563  48.996  1.00  0.00    -0.241 NA
HETATM    5  C5  UNL     1      23.370   4.463  49.596  1.00  0.00     0.236 A 
HETATM    6  N2  UNL     1      24.256   3.544  49.989  1.00  0.00    -0.224 NA
HETATM    7  C6  UNL     1      25.567   3.590  49.856  1.00  0.00     0.142 A 
HETATM    8  C13 UNL     1      26.040   4.725  49.239  1.00  0.00     0.042 A 
HETATM    9  C14 UNL     1      27.363   5.009  48.984  1.00  0.00     0.057 A 
HETATM   10  C15 UNL     1      27.834   6.131  48.374  1.00  0.00     0.103 A 
ENDROOT
BRANCH   7  11
HETATM   11  N3  UNL     1      26.486   2.621  50.272  1.00  0.00    -0.340 N 
HETATM   12  H6  UNL     1      27.269   2.300  49.678  1.00  0.00     0.167 HD
BRANCH  11  13
HETATM   13  C7  UNL     1      26.561   1.909  51.495  1.00  0.00     0.035 A 
HETATM   14  C8  UNL     1      26.494   2.452  52.773  1.00  0.00     0.032 A 
HETATM   15  C9  UNL     1      26.569   1.734  53.930  1.00  0.00     0.046 A 
HETATM   16  C10 UNL     1      26.721   0.372  53.891  1.00  0.00     0.138 A 
HETATM   17  F1  UNL     1      26.788  -0.264  55.063  1.00  0.00    -0.204 F 
HETATM   18  C11 UNL     1      26.792  -0.211  52.661  1.00  0.00     0.074 A 
HETATM   19 CL1  UNL     1      26.988  -1.962  52.667  1.00  0.00    -0.081 Cl
HETATM   20  C12 UNL     1      26.713   0.541  51.526  1.00  0.00     0.056 A 
ENDBRANCH  11  13
ENDBRANCH   7  11
BRANCH  10  21
HETATM   21  O2  UNL     1      29.173   6.352  48.151  1.00  0.00    -0.348 OA
BRANCH  21  22
HETATM   22  C16 UNL     1      30.108   5.333  47.988  1.00  0.00     0.184 C 
BRANCH  22  23
HETATM   23  C17 UNL     1      31.534   5.829  48.091  1.00  0.00     0.054 C 
BRANCH  23  24
HETATM   24  C18 UNL     1      31.958   6.095  49.498  1.00  0.00     0.172 C 
BRANCH  24  25
HETATM   25  O3  UNL     1      31.248   5.358  50.433  1.00  0.00    -0.400 OA
HETATM   26  H16 UNL     1      30.357   5.722  50.647  1.00  0.00     0.209 HD
ENDBRANCH  24  25
ENDBRANCH  23  24
BRANCH  23  27
HETATM   27  C19 UNL     1      32.467   4.924  47.346  1.00  0.00     0.167 C 
BRANCH  27  28
HETATM   28  N4  UNL     1      32.523   3.665  48.061  1.00  0.00    -0.245 NA
HETATM   29  S1  UNL     1      33.054   2.527  47.443  1.00  0.00     0.062 SA
ENDBRANCH  27  28
ENDBRANCH  23  27
ENDBRANCH  22  23
ENDBRANCH  21  22
ENDBRANCH  10  21
BRANCH   1  30
HETATM   30  O1  UNL     1      27.409   8.238  47.338  1.00  0.00    -0.353 OA
HETATM   31  C1  UNL     1      27.238   9.521  47.900  1.00  0.00     0.210 C 
ENDBRANCH   1  30
TORSDOF 10
ENDMDL
MODEL 6
REMARK VINA RESULT:      -7.5      3.729      6.366
REMARK  10 active torsions:
REMARK  status: ('A' for Active; 'I' for Inactive)
REMARK    1  A    between atoms: O1_2  and  C2_3 
REMARK    2  A    between atoms: C6_9  and  N3_10 
REMARK    3  A    between atoms: N3_10  and  C7_11 
REMARK    4  A    between atoms: C15_21  and  O2_22 
REMARK    5  A    between atoms: O2_22  and  C16_23 
REMARK    6  A    between atoms: C16_23  and  C17_24 
REMARK    7  A    between atoms: C17_24  and  C18_25 
REMARK    8  A    between atoms: C17_24  and  C19_27 
REMARK    9  A    between atoms: C18_25  and  O3_26 
REMARK   10  A    between atoms: C19_27  and  N4_28 
ROOT
HETATM    1  C2  UNL     1      27.116   0.424  53.473  1.00  0.00     0.103 A 
HETATM    2  C3  UNL     1      26.553  -0.224  54.551  1.00  0.00     0.072 A 
HETATM    3  C4  UNL     1      25.221  -0.549  54.529  1.00  0.00     0.075 A 
HETATM    4  N1  UNL     1      24.734  -1.187  55.624  1.00  0.00    -0.241 NA
HETATM    5  C5  UNL     1      23.440  -1.545  55.692  1.00  0.00     0.236 A 
HETATM    6  N2  UNL     1      22.673  -1.246  54.640  1.00  0.00    -0.224 NA
HETATM    7  C6  UNL     1      23.041  -0.634  53.532  1.00  0.00     0.142 A 
HETATM    8  C13 UNL     1      24.369  -0.277  53.490  1.00  0.00     0.042 A 
HETATM    9  C14 UNL     1      24.993   0.370  52.447  1.00  0.00     0.057 A 
HETATM   10  C15 UNL     1      26.307   0.724  52.400  1.00  0.00     0.103 A 
ENDROOT
BRANCH   7  11
HETATM   11  N3  UNL     1      22.228  -0.325  52.437  1.00  0.00    -0.340 N 
HETATM   12  H6  UNL     1      22.209  -0.896  51.575  1.00  0.00     0.167 HD
BRANCH  11  13
HETATM   13  C7  UNL     1      21.317   0.746  52.257  1.00  0.00     0.035 A 
HETATM   14  C8  UNL     1      19.936   0.645  52.139  1.00  0.00     0.032 A 
HETATM   15  C9  UNL     1      19.089   1.701  51.967  1.00  0.00     0.046 A 
HETATM   16  C10 UNL     1      19.580   2.978  51.900  1.00  0.00     0.138 A 
HETATM   17  F1  UNL     1      18.692   3.961  51.730  1.00  0.00    -0.204 F 
HETATM   18  C11 UNL     1      20.930   3.133  52.011  1.00  0.00     0.074 A 
HETATM   19 CL1  UNL     1      21.509   4.795  51.918  1.00  0.00    -0.081 Cl
HETATM   20  C12 UNL     1      21.745   2.052  52.182  1.00  0.00     0.056 A 
ENDBRANCH  11  13
ENDBRANCH   7  11
BRANCH  10  21
HETATM   21  O2  UNL     1      26.868   1.370  51.324  1.00  0.00    -0.348 OA
BRANCH  21  22
HETATM   22  C16 UNL     1      26.902   2.755  51.186  1.00  0.00     0.184 C 
BRANCH  22  23
HETATM   23  C17 UNL     1      26.152   3.237  49.964  1.00  0.00     0.054 C 
BRANCH  23  24
HETATM   24  C18 UNL     1      24.795   3.773  50.285  1.00  0.00     0.172 C 
BRANCH  24  25
HETATM   25  O3  UNL     1      24.775   4.566  51.421  1.00  0.00    -0.400 OA
HETATM   26  H16 UNL     1      24.869   5.532  51.246  1.00  0.00     0.209 HD
ENDBRANCH  24  25
ENDBRANCH  23  24
BRANCH  23  27
HETATM   27  C19 UNL     1      26.994   4.182  49.162  1.00  0.00     0.167 C 
BRANCH  27  28
HETATM   28  N4  UNL     1      26.212   5.379  48.929  1.00  0.00    -0.245 NA
HETATM   29  S1  UNL     1      26.843   6.572  48.559  1.00  0.00     0.062 SA
ENDBRANCH  27  28
ENDBRANCH  23  27
ENDBRANCH  22  23
ENDBRANCH  21  22
ENDBRANCH  10  21
BRANCH   1  30
HETATM   30  O1  UNL     1      28.456   0.781  53.436  1.00  0.00    -0.353 OA
HETATM   31  C1  UNL     1      29.485  -0.132  53.751  1.00  0.00     0.210 C 
ENDBRANCH   1  30
TORSDOF 10
ENDMDL
MODEL 7
REMARK VINA RESULT:      -7.4      4.093      6.334
REMARK  10 active torsions:
REMARK  status: ('A' for Active; 'I' for Inactive)
REMARK    1  A    between atoms: O1_2  and  C2_3 
REMARK    2  A    between atoms: C6_9  and  N3_10 
REMARK    3  A    between atoms: N3_10  and  C7_11 
REMARK    4  A    between atoms: C15_21  and  O2_22 
REMARK    5  A    between atoms: O2_22  and  C16_23 
REMARK    6  A    between atoms: C16_23  and  C17_24 
REMARK    7  A    between atoms: C17_24  and  C18_25 
REMARK    8  A    between atoms: C17_24  and  C19_27 
REMARK    9  A    between atoms: C18_25  and  O3_26 
REMARK   10  A    between atoms: C19_27  and  N4_28 
ROOT
HETATM    1  C2  UNL     1      19.930   0.180  52.109  1.00  0.00     0.103 A 
HETATM    2  C3  UNL     1      20.163  -0.467  53.303  1.00  0.00     0.072 A 
HETATM    3  C4  UNL     1      21.449  -0.608  53.759  1.00  0.00     0.075 A 
HETATM    4  N1  UNL     1      21.606  -1.255  54.942  1.00  0.00    -0.241 NA
HETATM    5  C5  UNL     1      22.829  -1.441  55.467  1.00  0.00     0.236 A 
HETATM    6  N2  UNL     1      23.865  -0.961  54.774  1.00  0.00    -0.224 NA
HETATM    7  C6  UNL     1      23.827  -0.319  53.623  1.00  0.00     0.142 A 
HETATM    8  C13 UNL     1      22.563  -0.144  53.108  1.00  0.00     0.042 A 
HETATM    9  C14 UNL     1      22.260   0.491  51.924  1.00  0.00     0.057 A 
HETATM   10  C15 UNL     1      21.012   0.667  51.411  1.00  0.00     0.103 A 
ENDROOT
BRANCH   7  11
HETATM   11  N3  UNL     1      24.919   0.179  52.906  1.00  0.00    -0.340 N 
HETATM   12  H6  UNL     1      24.815   0.803  52.088  1.00  0.00     0.167 HD
BRANCH  11  13
HETATM   13  C7  UNL     1      26.306  -0.030  53.106  1.00  0.00     0.035 A 
HETATM   14  C8  UNL     1      27.003  -1.213  52.887  1.00  0.00     0.032 A 
HETATM   15  C9  UNL     1      28.342  -1.378  53.091  1.00  0.00     0.046 A 
HETATM   16  C10 UNL     1      29.107  -0.334  53.544  1.00  0.00     0.138 A 
HETATM   17  F1  UNL     1      30.410  -0.570  53.721  1.00  0.00    -0.204 F 
HETATM   18  C11 UNL     1      28.471   0.849  53.775  1.00  0.00     0.074 A 
HETATM   19 CL1  UNL     1      29.500   2.156  54.356  1.00  0.00    -0.081 Cl
HETATM   20  C12 UNL     1      27.130   0.975  53.559  1.00  0.00     0.056 A 
ENDBRANCH  11  13
ENDBRANCH   7  11
BRANCH  10  21
HETATM   21  O2  UNL     1      20.779   1.314  50.220  1.00  0.00    -0.348 OA
BRANCH  21  22
HETATM   22  C16 UNL     1      21.156   2.630  49.969  1.00  0.00     0.184 C 
BRANCH  22  23
HETATM   23  C17 UNL     1      22.541   2.735  49.368  1.00  0.00     0.054 C 
BRANCH  23  24
HETATM   24  C18 UNL     1      22.522   2.902  47.884  1.00  0.00     0.172 C 
BRANCH  24  25
HETATM   25  O3  UNL     1      22.723   1.715  47.197  1.00  0.00    -0.400 OA
HETATM   26  H16 UNL     1      23.132   0.998  47.735  1.00  0.00     0.209 HD
ENDBRANCH  24  25
ENDBRANCH  23  24
BRANCH  23  27
HETATM   27  C19 UNL     1      23.351   3.777  50.077  1.00  0.00     0.167 C 
BRANCH  27  28
HETATM   28  N4  UNL     1      22.571   4.250  51.202  1.00  0.00    -0.245 NA
HETATM   29  S1  UNL     1      23.201   4.586  52.405  1.00  0.00     0.062 SA
ENDBRANCH  27  28
ENDBRANCH  23  27
ENDBRANCH  22  23
ENDBRANCH  21  22
ENDBRANCH  10  21
BRANCH   1  30
HETATM   30  O1  UNL     1      18.653   0.354  51.594  1.00  0.00    -0.353 OA
HETATM   31  C1  UNL     1      17.554  -0.410  52.041  1.00  0.00     0.210 C 
ENDBRANCH   1  30
TORSDOF 10
ENDMDL
MODEL 8
REMARK VINA RESULT:      -7.3      4.012      6.141
REMARK  10 active torsions:
REMARK  status: ('A' for Active; 'I' for Inactive)
REMARK    1  A    between atoms: O1_2  and  C2_3 
REMARK    2  A    between atoms: C6_9  and  N3_10 
REMARK    3  A    between atoms: N3_10  and  C7_11 
REMARK    4  A    between atoms: C15_21  and  O2_22 
REMARK    5  A    between atoms: O2_22  and  C16_23 
REMARK    6  A    between atoms: C16_23  and  C17_24 
REMARK    7  A    between atoms: C17_24  and  C18_25 
REMARK    8  A    between atoms: C17_24  and  C19_27 
REMARK    9  A    between atoms: C18_25  and  O3_26 
REMARK   10  A    between atoms: C19_27  and  N4_28 
ROOT
HETATM    1  C2  UNL     1      21.533   1.366  50.036  1.00  0.00     0.103 A 
HETATM    2  C3  UNL     1      20.882   0.587  50.966  1.00  0.00     0.072 A 
HETATM    3  C4  UNL     1      21.528   0.223  52.120  1.00  0.00     0.075 A 
HETATM    4  N1  UNL     1      20.826  -0.545  52.992  1.00  0.00    -0.241 NA
HETATM    5  C5  UNL     1      21.378  -0.950  54.149  1.00  0.00     0.236 A 
HETATM    6  N2  UNL     1      22.633  -0.563  54.390  1.00  0.00    -0.224 NA
HETATM    7  C6  UNL     1      23.402   0.179  53.617  1.00  0.00     0.142 A 
HETATM    8  C13 UNL     1      22.813   0.579  52.440  1.00  0.00     0.042 A 
HETATM    9  C14 UNL     1      23.406   1.355  51.470  1.00  0.00     0.057 A 
HETATM   10  C15 UNL     1      22.827   1.754  50.304  1.00  0.00     0.103 A 
ENDROOT
BRANCH   7  11
HETATM   11  N3  UNL     1      24.716   0.579  53.880  1.00  0.00    -0.340 N 
HETATM   12  H6  UNL     1      24.948   1.478  54.335  1.00  0.00     0.167 HD
BRANCH  11  13
HETATM   13  C7  UNL     1      25.937  -0.089  53.610  1.00  0.00     0.035 A 
HETATM   14  C8  UNL     1      26.083  -1.329  53.000  1.00  0.00     0.032 A 
HETATM   15  C9  UNL     1      27.278  -1.941  52.756  1.00  0.00     0.046 A 
HETATM   16  C10 UNL     1      28.453  -1.336  53.118  1.00  0.00     0.138 A 
HETATM   17  F1  UNL     1      29.583  -1.995  52.849  1.00  0.00    -0.204 F 
HETATM   18  C11 UNL     1      28.365  -0.118  53.722  1.00  0.00     0.074 A 
HETATM   19 CL1  UNL     1      29.904   0.617  54.167  1.00  0.00    -0.081 Cl
HETATM   20  C12 UNL     1      27.152   0.464  53.948  1.00  0.00     0.056 A 
ENDBRANCH  11  13
ENDBRANCH   7  11
BRANCH  10  21
HETATM   21  O2  UNL     1      23.478   2.532  49.375  1.00  0.00    -0.348 OA
BRANCH  21  22
HETATM   22  C16 UNL     1      23.608   3.914  49.481  1.00  0.00     0.184 C 
BRANCH  22  23
HETATM   23  C17 UNL     1      24.908   4.327  50.136  1.00  0.00     0.054 C 
BRANCH  23  24
HETATM   24  C18 UNL     1      26.052   3.438  49.775  1.00  0.00     0.172 C 
BRANCH  24  25
HETATM   25  O3  UNL     1      27.098   3.496  50.682  1.00  0.00    -0.400 OA
HETATM   26  H16 UNL     1      27.662   4.301  50.603  1.00  0.00     0.209 HD
ENDBRANCH  24  25
ENDBRANCH  23  24
BRANCH  23  27
HETATM   27  C19 UNL     1      25.183   5.782  49.901  1.00  0.00     0.167 C 
BRANCH  27  28
HETATM   28  N4  UNL     1      26.456   5.884  49.218  1.00  0.00    -0.245 NA
HETATM   29  S1  UNL     1      26.807   7.065  48.555  1.00  0.00     0.062 SA
ENDBRANCH  27  28
ENDBRANCH  23  27
ENDBRANCH  22  23
ENDBRANCH  21  22
ENDBRANCH  10  21
BRANCH   1  30
HETATM   30  O1  UNL     1      20.934   1.767  48.850  1.00  0.00    -0.353 OA
HETATM   31  C1  UNL     1      19.856   2.677  48.824  1.00  0.00     0.210 C 
ENDBRANCH   1  30
TORSDOF 10
ENDMDL
MODEL 9
REMARK VINA RESULT:      -7.2      4.242      6.464
REMARK  10 active torsions:
REMARK  status: ('A' for Active; 'I' for Inactive)
REMARK    1  A    between atoms: O1_2  and  C2_3 
REMARK    2  A    between atoms: C6_9  and  N3_10 
REMARK    3  A    between atoms: N3_10  and  C7_11 
REMARK    4  A    between atoms: C15_21  and  O2_22 
REMARK    5  A    between atoms: O2_22  and  C16_23 
REMARK    6  A    between atoms: C16_23  and  C17_24 
REMARK    7  A    between atoms: C17_24  and  C18_25 
REMARK    8  A    between atoms: C17_24  and  C19_27 
REMARK    9  A    between atoms: C18_25  and  O3_26 
REMARK   10  A    between atoms: C19_27  and  N4_28 
ROOT
HETATM    1  C2  UNL     1      20.929   2.125  51.268  1.00  0.00     0.103 A 
HETATM    2  C3  UNL     1      20.534   1.504  52.433  1.00  0.00     0.072 A 
HETATM    3  C4  UNL     1      21.416   0.698  53.106  1.00  0.00     0.075 A 
HETATM    4  N1  UNL     1      20.960   0.119  54.246  1.00  0.00    -0.241 NA
HETATM    5  C5  UNL     1      21.753  -0.687  54.973  1.00  0.00     0.236 A 
HETATM    6  N2  UNL     1      22.994  -0.883  54.520  1.00  0.00    -0.224 NA
HETATM    7  C6  UNL     1      23.537  -0.373  53.432  1.00  0.00     0.142 A 
HETATM    8  C13 UNL     1      22.704   0.446  52.707  1.00  0.00     0.042 A 
HETATM    9  C14 UNL     1      23.034   1.096  51.539  1.00  0.00     0.057 A 
HETATM   10  C15 UNL     1      22.212   1.908  50.819  1.00  0.00     0.103 A 
ENDROOT
BRANCH   7  11
HETATM   11  N3  UNL     1      24.839  -0.586  52.967  1.00  0.00    -0.340 N 
HETATM   12  H6  UNL     1      25.078  -1.329  52.288  1.00  0.00     0.167 HD
BRANCH  11  13
HETATM   13  C7  UNL     1      26.038   0.100  53.284  1.00  0.00     0.035 A 
HETATM   14  C8  UNL     1      26.161   1.450  53.591  1.00  0.00     0.032 A 
HETATM   15  C9  UNL     1      27.334   2.078  53.893  1.00  0.00     0.046 A 
HETATM   16  C10 UNL     1      28.511   1.375  53.909  1.00  0.00     0.138 A 
HETATM   17  F1  UNL     1      29.619   2.055  54.211  1.00  0.00    -0.204 F 
HETATM   18  C11 UNL     1      28.446   0.046  53.613  1.00  0.00     0.074 A 
HETATM   19 CL1  UNL     1      29.986  -0.810  53.648  1.00  0.00    -0.081 Cl
HETATM   20  C12 UNL     1      27.253  -0.547  53.318  1.00  0.00     0.056 A 
ENDBRANCH  11  13
ENDBRANCH   7  11
BRANCH  10  21
HETATM   21  O2  UNL     1      22.607   2.528  49.657  1.00  0.00    -0.348 OA
BRANCH  21  22
HETATM   22  C16 UNL     1      23.828   3.181  49.506  1.00  0.00     0.184 C 
BRANCH  22  23
HETATM   23  C17 UNL     1      23.666   4.665  49.252  1.00  0.00     0.054 C 
BRANCH  23  24
HETATM   24  C18 UNL     1      22.620   4.972  48.232  1.00  0.00     0.172 C 
BRANCH  24  25
HETATM   25  O3  UNL     1      21.332   4.940  48.743  1.00  0.00    -0.400 OA
HETATM   26  H16 UNL     1      20.721   4.329  48.269  1.00  0.00     0.209 HD
ENDBRANCH  24  25
ENDBRANCH  23  24
BRANCH  23  27
HETATM   27  C19 UNL     1      23.482   5.407  50.541  1.00  0.00     0.167 C 
BRANCH  27  28
HETATM   28  N4  UNL     1      23.126   6.772  50.216  1.00  0.00    -0.245 NA
HETATM   29  S1  UNL     1      23.920   7.833  50.663  1.00  0.00     0.062 SA
ENDBRANCH  27  28
ENDBRANCH  23  27
ENDBRANCH  22  23
ENDBRANCH  21  22
ENDBRANCH  10  21
BRANCH   1  30
HETATM   30  O1  UNL     1      20.083   2.951  50.541  1.00  0.00    -0.353 OA
HETATM   31  C1  UNL     1      18.970   2.449  49.834  1.00  0.00     0.210 C 
ENDBRANCH   1  30
TORSDOF 10
ENDMDL
