MODEL 1
REMARK VINA RESULT:      -7.7      0.000      0.000
REMARK  7 active torsions:
REMARK  status: ('A' for Active; 'I' for Inactive)
REMARK    1  A    between atoms: C2_2  and  C3_3 
REMARK    2  A    between atoms: C3_3  and  C4_4 
REMARK    3  A    between atoms: C4_4  and  C5_5 
REMARK    4  A    between atoms: C5_5  and  O1_6 
REMARK    5  A    between atoms: O1_6  and  C6_7 
REMARK    6  A    between atoms: N3_14  and  C11_15 
REMARK    7  A    between atoms: C17_23  and  O2_24 
ROOT
HETATM    1  C6  UNL     1      25.625   1.820  53.475  1.00  0.00     0.100 A 
HETATM    2  C7  UNL     1      25.107   2.872  52.862  1.00  0.00     0.044 A 
HETATM    3  C8  UNL     1      23.863   2.855  52.097  1.00  0.00     0.166 A 
HETATM    4  C9  UNL     1      23.293   1.482  52.126  1.00  0.00     0.083 A 
HETATM    5  N1  UNL     1      22.188   1.510  51.430  1.00  0.00    -0.180 NA
HETATM    6  N2  UNL     1      21.765   2.726  50.828  1.00  0.00    -0.295 N 
HETATM    7  C10 UNL     1      22.818   3.113  49.887  1.00  0.00     0.267 C 
HETATM    8  N3  UNL     1      24.019   3.243  50.697  1.00  0.00    -0.347 N 
HETATM    9  C16 UNL     1      23.829   0.298  52.787  1.00  0.00     0.071 A 
HETATM   10  C17 UNL     1      24.966   0.495  53.436  1.00  0.00     0.103 A 
HETATM   11  H14 UNL     1      20.886   3.270  50.995  1.00  0.00     0.184 HD
ENDROOT
BRANCH   8  12
HETATM   12  C11 UNL     1      25.195   3.724  50.052  1.00  0.00     0.069 A 
HETATM   13  C12 UNL     1      26.413   3.305  49.800  1.00  0.00     0.125 A 
HETATM   14  F1  UNL     1      26.773   2.066  50.230  1.00  0.00    -0.208 F 
HETATM   15  C13 UNL     1      27.174   4.342  49.055  1.00  0.00     0.123 A 
HETATM   16  C14 UNL     1      26.198   5.436  48.914  1.00  0.00     0.020 A 
HETATM   17 CL1  UNL     1      26.742   6.855  48.074  1.00  0.00    -0.088 Cl
HETATM   18  C15 UNL     1      25.060   5.080  49.488  1.00  0.00     0.052 A 
ENDBRANCH   8  12
BRANCH   1  19
HETATM   19  O1  UNL     1      26.816   1.873  54.197  1.00  0.00    -0.348 OA
BRANCH  19  20
HETATM   20  C5  UNL     1      28.050   2.256  53.702  1.00  0.00     0.176 C 
BRANCH  20  21
HETATM   21  C4  UNL     1      29.217   1.472  54.256  1.00  0.00     0.027 C 
BRANCH  21  22
HETATM   22  C3  UNL     1      28.849   0.021  54.457  1.00  0.00     0.002 C 
BRANCH  22  23
HETATM   23  C2  UNL     1      29.767  -0.918  53.752  1.00  0.00    -0.004 C 
HETATM   24  C1  UNL     1      29.134  -2.149  53.198  1.00  0.00     0.005 C 
ENDBRANCH  22  23
ENDBRANCH  21  22
ENDBRANCH  20  21
ENDBRANCH  19  20
ENDBRANCH   1  19
BRANCH  10  25
HETATM   25  O2  UNL     1      25.526  -0.595  54.087  1.00  0.00    -0.353 OA
HETATM   26  C18 UNL     1      25.102  -1.032  55.361  1.00  0.00     0.210 C 
ENDBRANCH  10  25
TORSDOF 7
ENDMDL
MODEL 2
REMARK VINA RESULT:      -7.5      3.146      5.936
REMARK  7 active torsions:
REMARK  status: ('A' for Active; 'I' for Inactive)
REMARK    1  A    between atoms: C2_2  and  C3_3 
REMARK    2  A    between atoms: C3_3  and  C4_4 
REMARK    3  A    between atoms: C4_4  and  C5_5 
REMARK    4  A    between atoms: C5_5  and  O1_6 
REMARK    5  A    between atoms: O1_6  and  C6_7 
REMARK    6  A    between atoms: N3_14  and  C11_15 
REMARK    7  A    between atoms: C17_23  and  O2_24 
ROOT
HETATM    1  C6  UNL     1      24.083   3.410  51.239  1.00  0.00     0.100 A 
HETATM    2  C7  UNL     1      24.395   2.124  51.242  1.00  0.00     0.044 A 
HETATM    3  C8  UNL     1      23.587   1.078  51.864  1.00  0.00     0.166 A 
HETATM    4  C9  UNL     1      22.382   1.695  52.478  1.00  0.00     0.083 A 
HETATM    5  N1  UNL     1      21.692   0.728  53.023  1.00  0.00    -0.180 NA
HETATM    6  N2  UNL     1      22.166  -0.609  52.941  1.00  0.00    -0.295 N 
HETATM    7  C10 UNL     1      23.462  -0.633  53.623  1.00  0.00     0.267 C 
HETATM    8  N3  UNL     1      24.284   0.328  52.906  1.00  0.00    -0.347 N 
HETATM    9  C16 UNL     1      22.000   3.102  52.498  1.00  0.00     0.071 A 
HETATM   10  C17 UNL     1      22.850   3.913  51.885  1.00  0.00     0.103 A 
HETATM   11  H14 UNL     1      21.712  -1.440  52.493  1.00  0.00     0.184 HD
ENDROOT
BRANCH   8  12
HETATM   12  C11 UNL     1      25.652   0.433  53.288  1.00  0.00     0.069 A 
HETATM   13  C12 UNL     1      26.439   1.304  53.875  1.00  0.00     0.125 A 
HETATM   14  F1  UNL     1      25.906   2.487  54.281  1.00  0.00    -0.208 F 
HETATM   15  C13 UNL     1      27.823   0.770  53.971  1.00  0.00     0.123 A 
HETATM   16  C14 UNL     1      27.714  -0.557  53.342  1.00  0.00     0.020 A 
HETATM   17 CL1  UNL     1      29.170  -1.501  53.270  1.00  0.00    -0.088 Cl
HETATM   18  C15 UNL     1      26.465  -0.750  52.950  1.00  0.00     0.052 A 
ENDBRANCH   8  12
BRANCH   1  19
HETATM   19  O1  UNL     1      24.878   4.382  50.635  1.00  0.00    -0.348 OA
BRANCH  19  20
HETATM   20  C5  UNL     1      25.336   4.362  49.329  1.00  0.00     0.176 C 
BRANCH  20  21
HETATM   21  C4  UNL     1      26.838   4.279  49.193  1.00  0.00     0.027 C 
BRANCH  21  22
HETATM   22  C3  UNL     1      27.401   5.555  48.611  1.00  0.00     0.002 C 
BRANCH  22  23
HETATM   23  C2  UNL     1      28.846   5.451  48.263  1.00  0.00    -0.004 C 
HETATM   24  C1  UNL     1      29.454   6.669  47.654  1.00  0.00     0.005 C 
ENDBRANCH  22  23
ENDBRANCH  21  22
ENDBRANCH  20  21
ENDBRANCH  19  20
ENDBRANCH   1  19
BRANCH  10  25
HETATM   25  O2  UNL     1      22.541   5.265  51.869  1.00  0.00    -0.353 OA
HETATM   26  C18 UNL     1      21.647   5.840  50.939  1.00  0.00     0.210 C 
ENDBRANCH  10  25
TORSDOF 7
ENDMDL
MODEL 3
REMARK VINA RESULT:      -7.4      2.795      5.140
REMARK  7 active torsions:
REMARK  status: ('A' for Active; 'I' for Inactive)
REMARK    1  A    between atoms: C2_2  and  C3_3 
REMARK    2  A    between atoms: C3_3  and  C4_4 
REMARK    3  A    between atoms: C4_4  and  C5_5 
REMARK    4  A    between atoms: C5_5  and  O1_6 
REMARK    5  A    between atoms: O1_6  and  C6_7 
REMARK    6  A    between atoms: N3_14  and  C11_15 
REMARK    7  A    between atoms: C17_23  and  O2_24 
ROOT
HETATM    1  C6  UNL     1      25.125   0.688  53.209  1.00  0.00     0.100 A 
HETATM    2  C7  UNL     1      24.590   1.044  52.052  1.00  0.00     0.044 A 
HETATM    3  C8  UNL     1      25.225   1.936  51.085  1.00  0.00     0.166 A 
HETATM    4  C9  UNL     1      26.546   2.365  51.614  1.00  0.00     0.083 A 
HETATM    5  N1  UNL     1      27.076   3.160  50.723  1.00  0.00    -0.180 NA
HETATM    6  N2  UNL     1      26.369   3.447  49.525  1.00  0.00    -0.295 N 
HETATM    7  C10 UNL     1      25.120   4.099  49.924  1.00  0.00     0.267 C 
HETATM    8  N3  UNL     1      24.452   3.139  50.788  1.00  0.00    -0.347 N 
HETATM    9  C16 UNL     1      27.172   1.999  52.879  1.00  0.00     0.071 A 
HETATM   10  C17 UNL     1      26.455   1.180  53.634  1.00  0.00     0.103 A 
HETATM   11  H14 UNL     1      26.647   3.248  48.535  1.00  0.00     0.184 HD
ENDROOT
BRANCH   8  12
HETATM   12  C11 UNL     1      23.142   3.468  51.242  1.00  0.00     0.069 A 
HETATM   13  C12 UNL     1      22.585   4.082  52.260  1.00  0.00     0.125 A 
HETATM   14  F1  UNL     1      23.393   4.595  53.226  1.00  0.00    -0.208 F 
HETATM   15  C13 UNL     1      21.106   4.078  52.121  1.00  0.00     0.123 A 
HETATM   16  C14 UNL     1      20.890   3.360  50.853  1.00  0.00     0.020 A 
HETATM   17 CL1  UNL     1      19.241   3.156  50.350  1.00  0.00    -0.088 Cl
HETATM   18  C15 UNL     1      22.062   3.010  50.349  1.00  0.00     0.052 A 
ENDBRANCH   8  12
BRANCH   1  19
HETATM   19  O1  UNL     1      24.490  -0.165  54.108  1.00  0.00    -0.348 OA
BRANCH  19  20
HETATM   20  C5  UNL     1      23.347  -0.905  53.858  1.00  0.00     0.176 C 
BRANCH  20  21
HETATM   21  C4  UNL     1      22.324  -0.872  54.970  1.00  0.00     0.027 C 
BRANCH  21  22
HETATM   22  C3  UNL     1      21.146  -0.002  54.597  1.00  0.00     0.002 C 
BRANCH  22  23
HETATM   23  C2  UNL     1      21.131   0.376  53.156  1.00  0.00    -0.004 C 
HETATM   24  C1  UNL     1      19.832   0.186  52.449  1.00  0.00     0.005 C 
ENDBRANCH  22  23
ENDBRANCH  21  22
ENDBRANCH  20  21
ENDBRANCH  19  20
ENDBRANCH   1  19
BRANCH  10  25
HETATM   25  O2  UNL     1      26.998   0.794  54.850  1.00  0.00    -0.353 OA
HETATM   26  C18 UNL     1      28.255   0.161  54.966  1.00  0.00     0.210 C 
ENDBRANCH  10  25
TORSDOF 7
ENDMDL
MODEL 4
REMARK VINA RESULT:      -7.3      3.450      5.935
REMARK  7 active torsions:
REMARK  status: ('A' for Active; 'I' for Inactive)
REMARK    1  A    between atoms: C2_2  and  C3_3 
REMARK    2  A    between atoms: C3_3  and  C4_4 
REMARK    3  A    between atoms: C4_4  and  C5_5 
REMARK    4  A    between atoms: C5_5  and  O1_6 
REMARK    5  A    between atoms: O1_6  and  C6_7 
REMARK    6  A    between atoms: N3_14  and  C11_15 
REMARK    7  A    between atoms: C17_23  and  O2_24 
ROOT
HETATM    1  C6  UNL     1      21.995   2.147  51.249  1.00  0.00     0.100 A 
HETATM    2  C7  UNL     1      22.631   1.010  51.485  1.00  0.00     0.044 A 
HETATM    3  C8  UNL     1      22.281   0.071  52.547  1.00  0.00     0.166 A 
HETATM    4  C9  UNL     1      21.112   0.600  53.299  1.00  0.00     0.083 A 
HETATM    5  N1  UNL     1      20.835  -0.266  54.237  1.00  0.00    -0.180 NA
HETATM    6  N2  UNL     1      21.618  -1.444  54.362  1.00  0.00    -0.295 N 
HETATM    7  C10 UNL     1      22.988  -1.006  54.640  1.00  0.00     0.267 C 
HETATM    8  N3  UNL     1      23.355  -0.171  53.507  1.00  0.00    -0.347 N 
HETATM    9  C16 UNL     1      20.383   1.843  53.073  1.00  0.00     0.071 A 
HETATM   10  C17 UNL     1      20.838   2.574  52.067  1.00  0.00     0.103 A 
HETATM   11  H14 UNL     1      21.319  -2.445  54.279  1.00  0.00     0.184 HD
ENDROOT
BRANCH   8  12
HETATM   12  C11 UNL     1      24.695   0.310  53.456  1.00  0.00     0.069 A 
HETATM   13  C12 UNL     1      25.321   1.464  53.479  1.00  0.00     0.125 A 
HETATM   14  F1  UNL     1      24.580   2.600  53.581  1.00  0.00    -0.208 F 
HETATM   15  C13 UNL     1      26.789   1.258  53.384  1.00  0.00     0.123 A 
HETATM   16  C14 UNL     1      26.917  -0.207  53.301  1.00  0.00     0.020 A 
HETATM   17 CL1  UNL     1      28.531  -0.837  53.175  1.00  0.00    -0.088 Cl
HETATM   18  C15 UNL     1      25.712  -0.751  53.342  1.00  0.00     0.052 A 
ENDBRANCH   8  12
BRANCH   1  19
HETATM   19  O1  UNL     1      22.358   3.020  50.226  1.00  0.00    -0.348 OA
BRANCH  19  20
HETATM   20  C5  UNL     1      23.601   3.091  49.620  1.00  0.00     0.176 C 
BRANCH  20  21
HETATM   21  C4  UNL     1      24.571   4.034  50.291  1.00  0.00     0.027 C 
BRANCH  21  22
HETATM   22  C3  UNL     1      25.951   3.423  50.373  1.00  0.00     0.002 C 
BRANCH  22  23
HETATM   23  C2  UNL     1      26.856   3.874  49.279  1.00  0.00    -0.004 C 
HETATM   24  C1  UNL     1      26.722   5.303  48.874  1.00  0.00     0.005 C 
ENDBRANCH  22  23
ENDBRANCH  21  22
ENDBRANCH  20  21
ENDBRANCH  19  20
ENDBRANCH   1  19
BRANCH  10  25
HETATM   25  O2  UNL     1      20.184   3.769  51.801  1.00  0.00    -0.353 OA
HETATM   26  C18 UNL     1      18.870   3.830  51.289  1.00  0.00     0.210 C 
ENDBRANCH  10  25
TORSDOF 7
ENDMDL
MODEL 5
REMARK VINA RESULT:      -7.3      3.720      6.661
REMARK  7 active torsions:
REMARK  status: ('A' for Active; 'I' for Inactive)
REMARK    1  A    between atoms: C2_2  and  C3_3 
REMARK    2  A    between atoms: C3_3  and  C4_4 
REMARK    3  A    between atoms: C4_4  and  C5_5 
REMARK    4  A    between atoms: C5_5  and  O1_6 
REMARK    5  A    between atoms: O1_6  and  C6_7 
REMARK    6  A    between atoms: N3_14  and  C11_15 
REMARK    7  A    between atoms: C17_23  and  O2_24 
ROOT
HETATM    1  C6  UNL     1      24.598   3.182  52.201  1.00  0.00     0.100 A 
HETATM    2  C7  UNL     1      24.574   2.414  53.279  1.00  0.00     0.044 A 
HETATM    3  C8  UNL     1      25.501   1.314  53.533  1.00  0.00     0.166 A 
HETATM    4  C9  UNL     1      26.454   1.209  52.397  1.00  0.00     0.083 A 
HETATM    5  N1  UNL     1      27.260   0.215  52.663  1.00  0.00    -0.180 NA
HETATM    6  N2  UNL     1      27.100  -0.518  53.869  1.00  0.00    -0.295 N 
HETATM    7  C10 UNL     1      25.763  -1.113  53.822  1.00  0.00     0.267 C 
HETATM    8  N3  UNL     1      24.853   0.014  53.692  1.00  0.00    -0.347 N 
HETATM    9  C16 UNL     1      26.517   2.031  51.195  1.00  0.00     0.071 A 
HETATM   10  C17 UNL     1      25.599   2.984  51.129  1.00  0.00     0.103 A 
HETATM   11  H14 UNL     1      27.777  -0.635  54.661  1.00  0.00     0.184 HD
ENDROOT
BRANCH   8  12
HETATM   12  C11 UNL     1      23.456  -0.265  53.734  1.00  0.00     0.069 A 
HETATM   13  C12 UNL     1      22.591  -0.804  54.561  1.00  0.00     0.125 A 
HETATM   14  F1  UNL     1      23.042  -1.267  55.758  1.00  0.00    -0.208 F 
HETATM   15  C13 UNL     1      21.228  -0.787  53.969  1.00  0.00     0.123 A 
HETATM   16  C14 UNL     1      21.441  -0.148  52.659  1.00  0.00     0.020 A 
HETATM   17 CL1  UNL     1      20.036   0.048  51.657  1.00  0.00    -0.088 Cl
HETATM   18  C15 UNL     1      22.722   0.151  52.525  1.00  0.00     0.052 A 
ENDBRANCH   8  12
BRANCH   1  19
HETATM   19  O1  UNL     1      23.697   4.223  51.992  1.00  0.00    -0.348 OA
BRANCH  19  20
HETATM   20  C5  UNL     1      22.341   4.193  52.269  1.00  0.00     0.176 C 
BRANCH  20  21
HETATM   21  C4  UNL     1      21.532   3.322  51.337  1.00  0.00     0.027 C 
BRANCH  21  22
HETATM   22  C3  UNL     1      22.026   3.444  49.914  1.00  0.00     0.002 C 
BRANCH  22  23
HETATM   23  C2  UNL     1      22.514   2.154  49.352  1.00  0.00    -0.004 C 
HETATM   24  C1  UNL     1      21.511   1.362  48.583  1.00  0.00     0.005 C 
ENDBRANCH  22  23
ENDBRANCH  21  22
ENDBRANCH  20  21
ENDBRANCH  19  20
ENDBRANCH   1  19
BRANCH  10  25
HETATM   25  O2  UNL     1      25.608   3.801  50.008  1.00  0.00    -0.353 OA
HETATM   26  C18 UNL     1      26.792   4.169  49.333  1.00  0.00     0.210 C 
ENDBRANCH  10  25
TORSDOF 7
ENDMDL
MODEL 6
REMARK VINA RESULT:      -6.7      3.509      5.763
REMARK  7 active torsions:
REMARK  status: ('A' for Active; 'I' for Inactive)
REMARK    1  A    between atoms: C2_2  and  C3_3 
REMARK    2  A    between atoms: C3_3  and  C4_4 
REMARK    3  A    between atoms: C4_4  and  C5_5 
REMARK    4  A    between atoms: C5_5  and  O1_6 
REMARK    5  A    between atoms: O1_6  and  C6_7 
REMARK    6  A    between atoms: N3_14  and  C11_15 
REMARK    7  A    between atoms: C17_23  and  O2_24 
ROOT
HETATM    1  C6  UNL     1      23.942   1.688  52.528  1.00  0.00     0.100 A 
HETATM    2  C7  UNL     1      22.674   1.800  52.893  1.00  0.00     0.044 A 
HETATM    3  C8  UNL     1      21.910   0.751  53.564  1.00  0.00     0.166 A 
HETATM    4  C9  UNL     1      22.783  -0.437  53.760  1.00  0.00     0.083 A 
HETATM    5  N1  UNL     1      22.062  -1.348  54.358  1.00  0.00    -0.180 NA
HETATM    6  N2  UNL     1      20.708  -1.072  54.684  1.00  0.00    -0.295 N 
HETATM    7  C10 UNL     1      20.020  -0.812  53.418  1.00  0.00     0.267 C 
HETATM    8  N3  UNL     1      20.725   0.316  52.829  1.00  0.00    -0.347 N 
HETATM    9  C16 UNL     1      24.180  -0.602  53.375  1.00  0.00     0.071 A 
HETATM   10  C17 UNL     1      24.716   0.451  52.777  1.00  0.00     0.103 A 
HETATM   11  H14 UNL     1      20.250  -1.049  55.626  1.00  0.00     0.184 HD
ENDROOT
BRANCH   8  12
HETATM   12  C11 UNL     1      20.195   0.864  51.626  1.00  0.00     0.069 A 
HETATM   13  C12 UNL     1      20.532   0.951  50.360  1.00  0.00     0.125 A 
HETATM   14  F1  UNL     1      21.707   0.392  49.963  1.00  0.00    -0.208 F 
HETATM   15  C13 UNL     1      19.490   1.686  49.596  1.00  0.00     0.123 A 
HETATM   16  C14 UNL     1      18.489   2.014  50.626  1.00  0.00     0.020 A 
HETATM   17 CL1  UNL     1      17.091   2.895  50.093  1.00  0.00    -0.088 Cl
HETATM   18  C15 UNL     1      18.896   1.541  51.793  1.00  0.00     0.052 A 
ENDBRANCH   8  12
BRANCH   1  19
HETATM   19  O1  UNL     1      24.640   2.711  51.889  1.00  0.00    -0.348 OA
BRANCH  19  20
HETATM   20  C5  UNL     1      24.091   3.875  51.381  1.00  0.00     0.176 C 
BRANCH  20  21
HETATM   21  C4  UNL     1      24.485   4.182  49.955  1.00  0.00     0.027 C 
BRANCH  21  22
HETATM   22  C3  UNL     1      25.649   3.323  49.517  1.00  0.00     0.002 C 
BRANCH  22  23
HETATM   23  C2  UNL     1      26.908   4.097  49.329  1.00  0.00    -0.004 C 
HETATM   24  C1  UNL     1      26.749   5.464  48.754  1.00  0.00     0.005 C 
ENDBRANCH  22  23
ENDBRANCH  21  22
ENDBRANCH  20  21
ENDBRANCH  19  20
ENDBRANCH   1  19
BRANCH  10  25
HETATM   25  O2  UNL     1      26.044   0.356  52.387  1.00  0.00    -0.353 OA
HETATM   26  C18 UNL     1      26.763  -0.860  52.395  1.00  0.00     0.210 C 
ENDBRANCH  10  25
TORSDOF 7
ENDMDL
MODEL 7
REMARK VINA RESULT:      -6.7      2.609      4.648
REMARK  7 active torsions:
REMARK  status: ('A' for Active; 'I' for Inactive)
REMARK    1  A    between atoms: C2_2  and  C3_3 
REMARK    2  A    between atoms: C3_3  and  C4_4 
REMARK    3  A    between atoms: C4_4  and  C5_5 
REMARK    4  A    between atoms: C5_5  and  O1_6 
REMARK    5  A    between atoms: O1_6  and  C6_7 
REMARK    6  A    between atoms: N3_14  and  C11_15 
REMARK    7  A    between atoms: C17_23  and  O2_24 
ROOT
HETATM    1  C6  UNL     1      25.089   1.598  52.901  1.00  0.00     0.100 A 
HETATM    2  C7  UNL     1      23.862   2.086  52.988  1.00  0.00     0.044 A 
HETATM    3  C8  UNL     1      22.675   1.292  53.300  1.00  0.00     0.166 A 
HETATM    4  C9  UNL     1      23.077  -0.126  53.498  1.00  0.00     0.083 A 
HETATM    5  N1  UNL     1      21.990  -0.797  53.771  1.00  0.00    -0.180 NA
HETATM    6  N2  UNL     1      20.741  -0.124  53.826  1.00  0.00    -0.295 N 
HETATM    7  C10 UNL     1      20.514   0.444  52.495  1.00  0.00     0.267 C 
HETATM    8  N3  UNL     1      21.648   1.324  52.262  1.00  0.00    -0.347 N 
HETATM    9  C16 UNL     1      24.412  -0.705  53.411  1.00  0.00     0.071 A 
HETATM   10  C17 UNL     1      25.371   0.161  53.119  1.00  0.00     0.103 A 
HETATM   11  H14 UNL     1      20.082  -0.027  54.635  1.00  0.00     0.184 HD
ENDROOT
BRANCH   8  12
HETATM   12  C11 UNL     1      21.635   2.106  51.072  1.00  0.00     0.069 A 
HETATM   13  C12 UNL     1      21.220   3.290  50.684  1.00  0.00     0.125 A 
HETATM   14  F1  UNL     1      20.609   4.092  51.596  1.00  0.00    -0.208 F 
HETATM   15  C13 UNL     1      21.529   3.502  49.246  1.00  0.00     0.123 A 
HETATM   16  C14 UNL     1      22.194   2.246  48.858  1.00  0.00     0.020 A 
HETATM   17 CL1  UNL     1      22.711   2.123  47.205  1.00  0.00    -0.088 Cl
HETATM   18  C15 UNL     1      22.254   1.444  49.909  1.00  0.00     0.052 A 
ENDBRANCH   8  12
BRANCH   1  19
HETATM   19  O1  UNL     1      26.198   2.385  52.601  1.00  0.00    -0.348 OA
BRANCH  19  20
HETATM   20  C5  UNL     1      26.824   2.472  51.369  1.00  0.00     0.176 C 
BRANCH  20  21
HETATM   21  C4  UNL     1      25.891   2.741  50.211  1.00  0.00     0.027 C 
BRANCH  21  22
HETATM   22  C3  UNL     1      26.247   4.036  49.518  1.00  0.00     0.002 C 
BRANCH  22  23
HETATM   23  C2  UNL     1      25.108   4.994  49.449  1.00  0.00    -0.004 C 
HETATM   24  C1  UNL     1      24.365   5.211  50.724  1.00  0.00     0.005 C 
ENDBRANCH  22  23
ENDBRANCH  21  22
ENDBRANCH  20  21
ENDBRANCH  19  20
ENDBRANCH   1  19
BRANCH  10  25
HETATM   25  O2  UNL     1      26.666  -0.330  53.024  1.00  0.00    -0.353 OA
HETATM   26  C18 UNL     1      26.957  -1.686  52.758  1.00  0.00     0.210 C 
ENDBRANCH  10  25
TORSDOF 7
ENDMDL
MODEL 8
REMARK VINA RESULT:      -6.5      3.891      7.141
REMARK  7 active torsions:
REMARK  status: ('A' for Active; 'I' for Inactive)
REMARK    1  A    between atoms: C2_2  and  C3_3 
REMARK    2  A    between atoms: C3_3  and  C4_4 
REMARK    3  A    between atoms: C4_4  and  C5_5 
REMARK    4  A    between atoms: C5_5  and  O1_6 
REMARK    5  A    between atoms: O1_6  and  C6_7 
REMARK    6  A    between atoms: N3_14  and  C11_15 
REMARK    7  A    between atoms: C17_23  and  O2_24 
ROOT
HETATM    1  C6  UNL     1      23.902   4.440  51.462  1.00  0.00     0.100 A 
HETATM    2  C7  UNL     1      24.079   3.519  52.395  1.00  0.00     0.044 A 
HETATM    3  C8  UNL     1      25.212   2.598  52.444  1.00  0.00     0.166 A 
HETATM    4  C9  UNL     1      26.111   2.871  51.291  1.00  0.00     0.083 A 
HETATM    5  N1  UNL     1      27.105   2.027  51.373  1.00  0.00    -0.180 NA
HETATM    6  N2  UNL     1      27.151   1.092  52.441  1.00  0.00    -0.295 N 
HETATM    7  C10 UNL     1      25.953   0.259  52.315  1.00  0.00     0.267 C 
HETATM    8  N3  UNL     1      24.837   1.188  52.393  1.00  0.00    -0.347 N 
HETATM    9  C16 UNL     1      25.954   3.873  50.244  1.00  0.00     0.071 A 
HETATM   10  C17 UNL     1      24.868   4.622  50.355  1.00  0.00     0.103 A 
HETATM   11  H14 UNL     1      27.875   0.985  53.190  1.00  0.00     0.184 HD
ENDROOT
BRANCH   8  12
HETATM   12  C11 UNL     1      23.524   0.634  52.410  1.00  0.00     0.069 A 
HETATM   13  C12 UNL     1      22.459   0.620  51.642  1.00  0.00     0.125 A 
HETATM   14  F1  UNL     1      22.502   1.296  50.463  1.00  0.00    -0.208 F 
HETATM   15  C13 UNL     1      21.376  -0.179  52.273  1.00  0.00     0.123 A 
HETATM   16  C14 UNL     1      21.986  -0.630  53.536  1.00  0.00     0.020 A 
HETATM   17 CL1  UNL     1      20.994  -1.615  54.566  1.00  0.00    -0.088 Cl
HETATM   18  C15 UNL     1      23.221  -0.161  53.613  1.00  0.00     0.052 A 
ENDBRANCH   8  12
BRANCH   1  19
HETATM   19  O1  UNL     1      22.807   5.302  51.445  1.00  0.00    -0.348 OA
BRANCH  19  20
HETATM   20  C5  UNL     1      21.477   4.928  51.528  1.00  0.00     0.176 C 
BRANCH  20  21
HETATM   21  C4  UNL     1      20.966   4.165  50.328  1.00  0.00     0.027 C 
BRANCH  21  22
HETATM   22  C3  UNL     1      19.853   3.221  50.721  1.00  0.00     0.002 C 
BRANCH  22  23
HETATM   23  C2  UNL     1      19.406   2.346  49.601  1.00  0.00    -0.004 C 
HETATM   24  C1  UNL     1      18.783   1.051  50.000  1.00  0.00     0.005 C 
ENDBRANCH  22  23
ENDBRANCH  21  22
ENDBRANCH  20  21
ENDBRANCH  19  20
ENDBRANCH   1  19
BRANCH  10  25
HETATM   25  O2  UNL     1      24.663   5.596  49.388  1.00  0.00    -0.353 OA
HETATM   26  C18 UNL     1      25.720   6.234  48.702  1.00  0.00     0.210 C 
ENDBRANCH  10  25
TORSDOF 7
ENDMDL
MODEL 9
REMARK VINA RESULT:      -6.5      3.450      6.000
REMARK  7 active torsions:
REMARK  status: ('A' for Active; 'I' for Inactive)
REMARK    1  A    between atoms: C2_2  and  C3_3 
REMARK    2  A    between atoms: C3_3  and  C4_4 
REMARK    3  A    between atoms: C4_4  and  C5_5 
REMARK    4  A    between atoms: C5_5  and  O1_6 
REMARK    5  A    between atoms: O1_6  and  C6_7 
REMARK    6  A    between atoms: N3_14  and  C11_15 
REMARK    7  A    between atoms: C17_23  and  O2_24 
ROOT
HETATM    1  C6  UNL     1      21.548   0.215  51.615  1.00  0.00     0.100 A 
HETATM    2  C7  UNL     1      22.465  -0.664  51.986  1.00  0.00     0.044 A 
HETATM    3  C8  UNL     1      22.724  -1.057  53.369  1.00  0.00     0.166 A 
HETATM    4  C9  UNL     1      21.799  -0.315  54.267  1.00  0.00     0.083 A 
HETATM    5  N1  UNL     1      22.065  -0.693  55.489  1.00  0.00    -0.180 NA
HETATM    6  N2  UNL     1      23.088  -1.650  55.723  1.00  0.00    -0.295 N 
HETATM    7  C10 UNL     1      24.333  -1.060  55.226  1.00  0.00     0.267 C 
HETATM    8  N3  UNL     1      24.088  -0.792  53.818  1.00  0.00    -0.347 N 
HETATM    9  C16 UNL     1      20.777   0.659  53.902  1.00  0.00     0.071 A 
HETATM   10  C17 UNL     1      20.679   0.896  52.602  1.00  0.00     0.103 A 
HETATM   11  H14 UNL     1      23.012  -2.600  56.159  1.00  0.00     0.184 HD
ENDROOT
BRANCH   8  12
HETATM   12  C11 UNL     1      25.183  -0.310  53.044  1.00  0.00     0.069 A 
HETATM   13  C12 UNL     1      26.282  -0.784  52.505  1.00  0.00     0.125 A 
HETATM   14  F1  UNL     1      26.565  -2.104  52.665  1.00  0.00    -0.208 F 
HETATM   15  C13 UNL     1      27.018   0.296  51.796  1.00  0.00     0.123 A 
HETATM   16  C14 UNL     1      26.166   1.478  52.011  1.00  0.00     0.020 A 
HETATM   17 CL1  UNL     1      26.719   2.968  51.310  1.00  0.00    -0.088 Cl
HETATM   18  C15 UNL     1      25.111   1.128  52.729  1.00  0.00     0.052 A 
ENDBRANCH   8  12
BRANCH   1  19
HETATM   19  O1  UNL     1      21.328   0.567  50.285  1.00  0.00    -0.348 OA
BRANCH  19  20
HETATM   20  C5  UNL     1      21.766   1.726  49.668  1.00  0.00     0.176 C 
BRANCH  20  21
HETATM   21  C4  UNL     1      23.077   2.260  50.197  1.00  0.00     0.027 C 
BRANCH  21  22
HETATM   22  C3  UNL     1      23.736   3.173  49.189  1.00  0.00     0.002 C 
BRANCH  22  23
HETATM   23  C2  UNL     1      23.850   4.581  49.662  1.00  0.00    -0.004 C 
HETATM   24  C1  UNL     1      23.578   4.801  51.112  1.00  0.00     0.005 C 
ENDBRANCH  22  23
ENDBRANCH  21  22
ENDBRANCH  20  21
ENDBRANCH  19  20
ENDBRANCH   1  19
BRANCH  10  25
HETATM   25  O2  UNL     1      19.723   1.813  52.191  1.00  0.00    -0.353 OA
HETATM   26  C18 UNL     1      19.923   3.210  52.246  1.00  0.00     0.210 C 
ENDBRANCH  10  25
TORSDOF 7
ENDMDL
