MODEL 1
REMARK VINA RESULT:      -7.6      0.000      0.000
REMARK  5 active torsions:
REMARK  status: ('A' for Active; 'I' for Inactive)
REMARK    1  A    between atoms: C2_2  and  C3_3 
REMARK    2  A    between atoms: C3_3  and  N1_4 
REMARK    3  A    between atoms: C7_8  and  N2_9 
REMARK    4  A    between atoms: N2_9  and  C8_10 
REMARK    5  A    between atoms: C16_21  and  O1_22 
ROOT
HETATM    1  N1  UNL     1      27.420   0.584  52.794  1.00  0.00     0.122 NA
HETATM    2  C4  UNL     1      26.228   0.189  52.127  1.00  0.00     0.303 C 
HETATM    3  C5  UNL     1      25.184   1.152  51.846  1.00  0.00     0.007 C 
HETATM    4  C6  UNL     1      23.965   1.214  52.372  1.00  0.00     0.048 C 
HETATM    5  C7  UNL     1      23.259   0.416  53.373  1.00  0.00     0.129 C 
HETATM    6  N3  UNL     1      23.478  -0.477  54.261  1.00  0.00    -0.225 NA
HETATM    7  C14 UNL     1      24.682  -1.083  54.634  1.00  0.00     0.229 C 
HETATM    8  N4  UNL     1      25.847  -0.588  54.933  1.00  0.00    -0.278 NA
HETATM    9  C15 UNL     1      26.144   0.825  54.936  1.00  0.00     0.214 C 
HETATM   10  C16 UNL     1      27.228   1.281  54.026  1.00  0.00     0.376 C 
ENDROOT
BRANCH   5  11
HETATM   11  N2  UNL     1      21.870   0.741  53.619  1.00  0.00    -0.341 N 
HETATM   12  H12 UNL     1      21.726   1.289  54.533  1.00  0.00     0.167 HD
BRANCH  11  13
HETATM   13  C8  UNL     1      20.704   0.447  52.863  1.00  0.00     0.034 A 
HETATM   14  C9  UNL     1      20.305   1.030  51.688  1.00  0.00     0.029 A 
HETATM   15  C10 UNL     1      19.151   0.715  51.012  1.00  0.00     0.004 A 
HETATM   16  C11 UNL     1      18.327  -0.246  51.533  1.00  0.00     0.019 A 
HETATM   17  C12 UNL     1      18.693  -0.856  52.712  1.00  0.00     0.013 A 
HETATM   18 BR1  UNL     1      17.540  -2.185  53.419  1.00  0.00    -0.051 Br
HETATM   19  C13 UNL     1      19.856  -0.518  53.363  1.00  0.00     0.048 A 
ENDBRANCH  11  13
ENDBRANCH   5  11
BRANCH   1  20
HETATM   20  C3  UNL     1      28.190  -0.627  53.028  1.00  0.00     0.276 C 
BRANCH  20  21
HETATM   21  C2  UNL     1      29.573  -0.275  53.478  1.00  0.00     0.026 C 
HETATM   22  C1  UNL     1      30.303  -1.560  53.890  1.00  0.00     0.007 C 
ENDBRANCH  20  21
ENDBRANCH   1  20
BRANCH  10  23
HETATM   23  O1  UNL     1      27.451   2.649  53.979  1.00  0.00    -0.366 OA
HETATM   24  H21 UNL     1      28.016   2.846  54.791  1.00  0.00     0.212 HD
ENDBRANCH  10  23
TORSDOF 5
ENDMDL
MODEL 2
REMARK VINA RESULT:      -7.1      1.517      1.765
REMARK  5 active torsions:
REMARK  status: ('A' for Active; 'I' for Inactive)
REMARK    1  A    between atoms: C2_2  and  C3_3 
REMARK    2  A    between atoms: C3_3  and  N1_4 
REMARK    3  A    between atoms: C7_8  and  N2_9 
REMARK    4  A    between atoms: N2_9  and  C8_10 
REMARK    5  A    between atoms: C16_21  and  O1_22 
ROOT
HETATM    1  N1  UNL     1      27.313   0.722  52.715  1.00  0.00     0.122 NA
HETATM    2  C4  UNL     1      26.102   0.342  52.075  1.00  0.00     0.303 C 
HETATM    3  C5  UNL     1      25.027   1.296  51.898  1.00  0.00     0.007 C 
HETATM    4  C6  UNL     1      23.831   1.296  52.477  1.00  0.00     0.048 C 
HETATM    5  C7  UNL     1      23.186   0.420  53.454  1.00  0.00     0.129 C 
HETATM    6  N3  UNL     1      23.461  -0.520  54.274  1.00  0.00    -0.225 NA
HETATM    7  C14 UNL     1      24.693  -1.119  54.558  1.00  0.00     0.229 C 
HETATM    8  N4  UNL     1      25.859  -0.617  54.839  1.00  0.00    -0.278 NA
HETATM    9  C15 UNL     1      26.126   0.799  54.919  1.00  0.00     0.214 C 
HETATM   10  C16 UNL     1      27.160   1.337  53.995  1.00  0.00     0.376 C 
ENDROOT
BRANCH   5  11
HETATM   11  N2  UNL     1      21.802   0.697  53.778  1.00  0.00    -0.341 N 
HETATM   12  H12 UNL     1      21.645   0.864  54.829  1.00  0.00     0.167 HD
BRANCH  11  13
HETATM   13  C8  UNL     1      20.655   0.771  52.944  1.00  0.00     0.034 A 
HETATM   14  C9  UNL     1      19.868  -0.267  52.517  1.00  0.00     0.029 A 
HETATM   15  C10 UNL     1      18.778  -0.134  51.691  1.00  0.00     0.004 A 
HETATM   16  C11 UNL     1      18.437   1.117  51.251  1.00  0.00     0.019 A 
HETATM   17  C12 UNL     1      19.203   2.187  51.658  1.00  0.00     0.013 A 
HETATM   18 BR1  UNL     1      18.716   3.912  51.039  1.00  0.00    -0.051 Br
HETATM   19  C13 UNL     1      20.287   2.019  52.486  1.00  0.00     0.048 A 
ENDBRANCH  11  13
ENDBRANCH   5  11
BRANCH   1  20
HETATM   20  C3  UNL     1      28.117  -0.482  52.840  1.00  0.00     0.276 C 
BRANCH  20  21
HETATM   21  C2  UNL     1      29.431  -0.156  53.478  1.00  0.00     0.026 C 
HETATM   22  C1  UNL     1      30.142  -1.465  53.847  1.00  0.00     0.007 C 
ENDBRANCH  20  21
ENDBRANCH   1  20
BRANCH  10  23
HETATM   23  O1  UNL     1      27.352   2.710  54.025  1.00  0.00    -0.366 OA
HETATM   24  H21 UNL     1      28.325   2.829  54.262  1.00  0.00     0.212 HD
ENDBRANCH  10  23
TORSDOF 5
ENDMDL
MODEL 3
REMARK VINA RESULT:      -6.9      5.200      7.724
REMARK  5 active torsions:
REMARK  status: ('A' for Active; 'I' for Inactive)
REMARK    1  A    between atoms: C2_2  and  C3_3 
REMARK    2  A    between atoms: C3_3  and  N1_4 
REMARK    3  A    between atoms: C7_8  and  N2_9 
REMARK    4  A    between atoms: N2_9  and  C8_10 
REMARK    5  A    between atoms: C16_21  and  O1_22 
ROOT
HETATM    1  N1  UNL     1      22.518   6.711  50.913  1.00  0.00     0.122 NA
HETATM    2  C4  UNL     1      21.799   5.492  51.054  1.00  0.00     0.303 C 
HETATM    3  C5  UNL     1      22.018   4.633  52.199  1.00  0.00     0.007 C 
HETATM    4  C6  UNL     1      22.571   3.425  52.220  1.00  0.00     0.048 C 
HETATM    5  C7  UNL     1      23.148   2.564  51.189  1.00  0.00     0.129 C 
HETATM    6  N3  UNL     1      23.541   2.602  49.974  1.00  0.00    -0.225 NA
HETATM    7  C14 UNL     1      23.555   3.676  49.077  1.00  0.00     0.229 C 
HETATM    8  N4  UNL     1      23.989   4.897  49.192  1.00  0.00    -0.278 NA
HETATM    9  C15 UNL     1      24.601   5.424  50.388  1.00  0.00     0.214 C 
HETATM   10  C16 UNL     1      23.937   6.598  51.015  1.00  0.00     0.376 C 
ENDROOT
BRANCH   5  11
HETATM   11  N2  UNL     1      23.574   1.241  51.595  1.00  0.00    -0.341 N 
HETATM   12  H12 UNL     1      23.067   0.458  51.060  1.00  0.00     0.167 HD
BRANCH  11  13
HETATM   13  C8  UNL     1      24.524   0.834  52.569  1.00  0.00     0.034 A 
HETATM   14  C9  UNL     1      24.386  -0.160  53.502  1.00  0.00     0.029 A 
HETATM   15  C10 UNL     1      25.337  -0.495  54.435  1.00  0.00     0.004 A 
HETATM   16  C11 UNL     1      26.514   0.204  54.451  1.00  0.00     0.019 A 
HETATM   17  C12 UNL     1      26.692   1.211  53.529  1.00  0.00     0.013 A 
HETATM   18 BR1  UNL     1      28.330   2.168  53.565  1.00  0.00    -0.051 Br
HETATM   19  C13 UNL     1      25.720   1.520  52.608  1.00  0.00     0.048 A 
ENDBRANCH  11  13
ENDBRANCH   5  11
BRANCH   1  20
HETATM   20  C3  UNL     1      22.160   7.261  49.616  1.00  0.00     0.276 C 
BRANCH  20  21
HETATM   21  C2  UNL     1      22.796   8.603  49.436  1.00  0.00     0.026 C 
HETATM   22  C1  UNL     1      21.824   9.515  48.674  1.00  0.00     0.007 C 
ENDBRANCH  20  21
ENDBRANCH   1  20
BRANCH  10  23
HETATM   23  O1  UNL     1      24.489   7.046  52.206  1.00  0.00    -0.366 OA
HETATM   24  H21 UNL     1      23.808   7.691  52.579  1.00  0.00     0.212 HD
ENDBRANCH  10  23
TORSDOF 5
ENDMDL
MODEL 4
REMARK VINA RESULT:      -6.8      4.806      5.919
REMARK  5 active torsions:
REMARK  status: ('A' for Active; 'I' for Inactive)
REMARK    1  A    between atoms: C2_2  and  C3_3 
REMARK    2  A    between atoms: C3_3  and  N1_4 
REMARK    3  A    between atoms: C7_8  and  N2_9 
REMARK    4  A    between atoms: N2_9  and  C8_10 
REMARK    5  A    between atoms: C16_21  and  O1_22 
ROOT
HETATM    1  N1  UNL     1      27.208   0.957  52.823  1.00  0.00     0.122 NA
HETATM    2  C4  UNL     1      26.659   1.090  51.519  1.00  0.00     0.303 C 
HETATM    3  C5  UNL     1      26.717   2.356  50.818  1.00  0.00     0.007 C 
HETATM    4  C6  UNL     1      25.708   3.161  50.500  1.00  0.00     0.048 C 
HETATM    5  C7  UNL     1      24.265   3.104  50.726  1.00  0.00     0.129 C 
HETATM    6  N3  UNL     1      23.395   2.465  51.411  1.00  0.00    -0.225 NA
HETATM    7  C14 UNL     1      23.576   1.432  52.336  1.00  0.00     0.229 C 
HETATM    8  N4  UNL     1      24.377   1.308  53.353  1.00  0.00    -0.278 NA
HETATM    9  C15 UNL     1      25.325   2.318  53.758  1.00  0.00     0.214 C 
HETATM   10  C16 UNL     1      26.758   1.919  53.777  1.00  0.00     0.376 C 
ENDROOT
BRANCH   5  11
HETATM   11  N2  UNL     1      23.460   4.147  50.127  1.00  0.00    -0.341 N 
HETATM   12  H12 UNL     1      22.542   3.776  49.707  1.00  0.00     0.167 HD
BRANCH  11  13
HETATM   13  C8  UNL     1      23.696   5.543  50.007  1.00  0.00     0.034 A 
HETATM   14  C9  UNL     1      23.659   6.482  51.004  1.00  0.00     0.029 A 
HETATM   15  C10 UNL     1      23.877   7.826  50.822  1.00  0.00     0.004 A 
HETATM   16  C11 UNL     1      24.154   8.280  49.560  1.00  0.00     0.019 A 
HETATM   17  C12 UNL     1      24.201   7.367  48.530  1.00  0.00     0.013 A 
HETATM   18 BR1  UNL     1      24.585   8.014  46.789  1.00  0.00    -0.051 Br
HETATM   19  C13 UNL     1      23.978   6.028  48.748  1.00  0.00     0.048 A 
ENDBRANCH  11  13
ENDBRANCH   5  11
BRANCH   1  20
HETATM   20  C3  UNL     1      26.878  -0.382  53.282  1.00  0.00     0.276 C 
BRANCH  20  21
HETATM   21  C2  UNL     1      28.005  -1.319  52.983  1.00  0.00     0.026 C 
HETATM   22  C1  UNL     1      29.293  -0.761  53.604  1.00  0.00     0.007 C 
ENDBRANCH  20  21
ENDBRANCH   1  20
BRANCH  10  23
HETATM   23  O1  UNL     1      27.666   2.919  54.091  1.00  0.00    -0.366 OA
HETATM   24  H21 UNL     1      28.570   2.523  53.879  1.00  0.00     0.212 HD
ENDBRANCH  10  23
TORSDOF 5
ENDMDL
MODEL 5
REMARK VINA RESULT:      -6.8      4.849      8.018
REMARK  5 active torsions:
REMARK  status: ('A' for Active; 'I' for Inactive)
REMARK    1  A    between atoms: C2_2  and  C3_3 
REMARK    2  A    between atoms: C3_3  and  N1_4 
REMARK    3  A    between atoms: C7_8  and  N2_9 
REMARK    4  A    between atoms: N2_9  and  C8_10 
REMARK    5  A    between atoms: C16_21  and  O1_22 
ROOT
HETATM    1  N1  UNL     1      22.916   6.287  51.189  1.00  0.00     0.122 NA
HETATM    2  C4  UNL     1      22.557   5.083  51.855  1.00  0.00     0.303 C 
HETATM    3  C5  UNL     1      23.361   4.573  52.946  1.00  0.00     0.007 C 
HETATM    4  C6  UNL     1      24.102   3.470  52.969  1.00  0.00     0.048 C 
HETATM    5  C7  UNL     1      24.391   2.431  51.982  1.00  0.00     0.129 C 
HETATM    6  N3  UNL     1      24.270   2.192  50.733  1.00  0.00    -0.225 NA
HETATM    7  C14 UNL     1      23.730   2.994  49.722  1.00  0.00     0.229 C 
HETATM    8  N4  UNL     1      23.931   4.239  49.402  1.00  0.00    -0.278 NA
HETATM    9  C15 UNL     1      24.842   5.112  50.101  1.00  0.00     0.214 C 
HETATM   10  C16 UNL     1      24.259   6.340  50.705  1.00  0.00     0.376 C 
ENDROOT
BRANCH   5  11
HETATM   11  N2  UNL     1      25.187   1.304  52.422  1.00  0.00    -0.341 N 
HETATM   12  H12 UNL     1      24.641   0.378  52.407  1.00  0.00     0.167 HD
BRANCH  11  13
HETATM   13  C8  UNL     1      26.535   1.242  52.866  1.00  0.00     0.034 A 
HETATM   14  C9  UNL     1      27.329   2.286  53.265  1.00  0.00     0.029 A 
HETATM   15  C10 UNL     1      28.637   2.164  53.666  1.00  0.00     0.004 A 
HETATM   16  C11 UNL     1      29.207   0.920  53.674  1.00  0.00     0.019 A 
HETATM   17  C12 UNL     1      28.442  -0.156  53.280  1.00  0.00     0.013 A 
HETATM   18 BR1  UNL     1      29.249  -1.872  53.299  1.00  0.00    -0.051 Br
HETATM   19  C13 UNL     1      27.135   0.001  52.886  1.00  0.00     0.048 A 
ENDBRANCH  11  13
ENDBRANCH   5  11
BRANCH   1  20
HETATM   20  C3  UNL     1      21.988   6.447  50.083  1.00  0.00     0.276 C 
BRANCH  20  21
HETATM   21  C2  UNL     1      21.202   7.709  50.252  1.00  0.00     0.026 C 
HETATM   22  C1  UNL     1      21.808   8.796  49.353  1.00  0.00     0.007 C 
ENDBRANCH  20  21
ENDBRANCH   1  20
BRANCH  10  23
HETATM   23  O1  UNL     1      25.129   7.130  51.441  1.00  0.00    -0.366 OA
HETATM   24  H21 UNL     1      25.546   7.753  50.765  1.00  0.00     0.212 HD
ENDBRANCH  10  23
TORSDOF 5
ENDMDL
MODEL 6
REMARK VINA RESULT:      -6.8      4.363      5.042
REMARK  5 active torsions:
REMARK  status: ('A' for Active; 'I' for Inactive)
REMARK    1  A    between atoms: C2_2  and  C3_3 
REMARK    2  A    between atoms: C3_3  and  N1_4 
REMARK    3  A    between atoms: C7_8  and  N2_9 
REMARK    4  A    between atoms: N2_9  and  C8_10 
REMARK    5  A    between atoms: C16_21  and  O1_22 
ROOT
HETATM    1  N1  UNL     1      27.335   0.926  52.844  1.00  0.00     0.122 NA
HETATM    2  C4  UNL     1      26.752   1.011  51.550  1.00  0.00     0.303 C 
HETATM    3  C5  UNL     1      26.692   2.276  50.847  1.00  0.00     0.007 C 
HETATM    4  C6  UNL     1      25.615   2.993  50.547  1.00  0.00     0.048 C 
HETATM    5  C7  UNL     1      24.186   2.819  50.801  1.00  0.00     0.129 C 
HETATM    6  N3  UNL     1      23.385   2.112  51.503  1.00  0.00    -0.225 NA
HETATM    7  C14 UNL     1      23.667   1.100  52.426  1.00  0.00     0.229 C 
HETATM    8  N4  UNL     1      24.495   1.045  53.428  1.00  0.00    -0.278 NA
HETATM    9  C15 UNL     1      25.365   2.130  53.813  1.00  0.00     0.214 C 
HETATM   10  C16 UNL     1      26.825   1.850  53.805  1.00  0.00     0.376 C 
ENDROOT
BRANCH   5  11
HETATM   11  N2  UNL     1      23.286   3.791  50.217  1.00  0.00    -0.341 N 
HETATM   12  H12 UNL     1      22.912   4.498  50.936  1.00  0.00     0.167 HD
BRANCH  11  13
HETATM   13  C8  UNL     1      22.830   3.942  48.880  1.00  0.00     0.034 A 
HETATM   14  C9  UNL     1      22.352   2.963  48.048  1.00  0.00     0.029 A 
HETATM   15  C10 UNL     1      21.943   3.169  46.753  1.00  0.00     0.004 A 
HETATM   16  C11 UNL     1      22.011   4.435  46.237  1.00  0.00     0.019 A 
HETATM   17  C12 UNL     1      22.486   5.447  47.042  1.00  0.00     0.013 A 
HETATM   18 BR1  UNL     1      22.572   7.195  46.310  1.00  0.00    -0.051 Br
HETATM   19  C13 UNL     1      22.886   5.207  48.334  1.00  0.00     0.048 A 
ENDBRANCH  11  13
ENDBRANCH   5  11
BRANCH   1  20
HETATM   20  C3  UNL     1      27.125  -0.435  53.310  1.00  0.00     0.276 C 
BRANCH  20  21
HETATM   21  C2  UNL     1      28.358  -1.251  53.082  1.00  0.00     0.026 C 
HETATM   22  C1  UNL     1      29.545  -0.557  53.764  1.00  0.00     0.007 C 
ENDBRANCH  20  21
ENDBRANCH   1  20
BRANCH  10  23
HETATM   23  O1  UNL     1      27.654   2.923  54.101  1.00  0.00    -0.366 OA
HETATM   24  H21 UNL     1      28.261   2.585  54.832  1.00  0.00     0.212 HD
ENDBRANCH  10  23
TORSDOF 5
ENDMDL
MODEL 7
REMARK VINA RESULT:      -6.8      4.539      6.516
REMARK  5 active torsions:
REMARK  status: ('A' for Active; 'I' for Inactive)
REMARK    1  A    between atoms: C2_2  and  C3_3 
REMARK    2  A    between atoms: C3_3  and  N1_4 
REMARK    3  A    between atoms: C7_8  and  N2_9 
REMARK    4  A    between atoms: N2_9  and  C8_10 
REMARK    5  A    between atoms: C16_21  and  O1_22 
ROOT
HETATM    1  N1  UNL     1      22.622   6.678  50.852  1.00  0.00     0.122 NA
HETATM    2  C4  UNL     1      21.834   5.508  51.022  1.00  0.00     0.303 C 
HETATM    3  C5  UNL     1      21.975   4.687  52.207  1.00  0.00     0.007 C 
HETATM    4  C6  UNL     1      22.460   3.452  52.292  1.00  0.00     0.048 C 
HETATM    5  C7  UNL     1      23.014   2.518  51.314  1.00  0.00     0.129 C 
HETATM    6  N3  UNL     1      23.439   2.484  50.109  1.00  0.00    -0.225 NA
HETATM    7  C14 UNL     1      23.536   3.516  49.171  1.00  0.00     0.229 C 
HETATM    8  N4  UNL     1      24.034   4.716  49.247  1.00  0.00    -0.278 NA
HETATM    9  C15 UNL     1      24.643   5.259  50.437  1.00  0.00     0.214 C 
HETATM   10  C16 UNL     1      24.031   6.492  50.997  1.00  0.00     0.376 C 
ENDROOT
BRANCH   5  11
HETATM   11  N2  UNL     1      23.355   1.193  51.784  1.00  0.00    -0.341 N 
HETATM   12  H12 UNL     1      24.251   0.807  51.331  1.00  0.00     0.167 HD
BRANCH  11  13
HETATM   13  C8  UNL     1      22.700   0.346  52.719  1.00  0.00     0.034 A 
HETATM   14  C9  UNL     1      23.267  -0.333  53.765  1.00  0.00     0.029 A 
HETATM   15  C10 UNL     1      22.581  -1.156  54.626  1.00  0.00     0.004 A 
HETATM   16  C11 UNL     1      21.235  -1.323  54.442  1.00  0.00     0.019 A 
HETATM   17  C12 UNL     1      20.628  -0.656  53.400  1.00  0.00     0.013 A 
HETATM   18 BR1  UNL     1      18.762  -0.899  53.160  1.00  0.00    -0.051 Br
HETATM   19  C13 UNL     1      21.344   0.160  52.558  1.00  0.00     0.048 A 
ENDBRANCH  11  13
ENDBRANCH   5  11
BRANCH   1  20
HETATM   20  C3  UNL     1      22.329   7.192  49.524  1.00  0.00     0.276 C 
BRANCH  20  21
HETATM   21  C2  UNL     1      22.618   8.659  49.467  1.00  0.00     0.026 C 
HETATM   22  C1  UNL     1      23.534   8.938  48.266  1.00  0.00     0.007 C 
ENDBRANCH  20  21
ENDBRANCH   1  20
BRANCH  10  23
HETATM   23  O1  UNL     1      24.575   6.960  52.184  1.00  0.00    -0.366 OA
HETATM   24  H21 UNL     1      23.837   7.499  52.612  1.00  0.00     0.212 HD
ENDBRANCH  10  23
TORSDOF 5
ENDMDL
MODEL 8
REMARK VINA RESULT:      -6.7     10.333     13.036
REMARK  5 active torsions:
REMARK  status: ('A' for Active; 'I' for Inactive)
REMARK    1  A    between atoms: C2_2  and  C3_3 
REMARK    2  A    between atoms: C3_3  and  N1_4 
REMARK    3  A    between atoms: C7_8  and  N2_9 
REMARK    4  A    between atoms: N2_9  and  C8_10 
REMARK    5  A    between atoms: C16_21  and  O1_22 
ROOT
HETATM    1  N1  UNL     1      29.384   9.557  48.246  1.00  0.00     0.122 NA
HETATM    2  C4  UNL     1      29.996   8.796  49.278  1.00  0.00     0.303 C 
HETATM    3  C5  UNL     1      31.416   8.511  49.244  1.00  0.00     0.007 C 
HETATM    4  C6  UNL     1      32.009   7.335  49.069  1.00  0.00     0.048 C 
HETATM    5  C7  UNL     1      31.510   5.980  48.840  1.00  0.00     0.129 C 
HETATM    6  N3  UNL     1      30.435   5.359  48.535  1.00  0.00    -0.225 NA
HETATM    7  C14 UNL     1      29.160   5.868  48.268  1.00  0.00     0.229 C 
HETATM    8  N4  UNL     1      28.754   6.828  47.489  1.00  0.00    -0.278 NA
HETATM    9  C15 UNL     1      29.634   7.626  46.671  1.00  0.00     0.214 C 
HETATM   10  C16 UNL     1      29.628   9.093  46.918  1.00  0.00     0.376 C 
ENDROOT
BRANCH   5  11
HETATM   11  N2  UNL     1      32.488   4.914  48.793  1.00  0.00    -0.341 N 
HETATM   12  H12 UNL     1      32.599   4.408  49.736  1.00  0.00     0.167 HD
BRANCH  11  13
HETATM   13  C8  UNL     1      33.306   4.455  47.726  1.00  0.00     0.034 A 
HETATM   14  C9  UNL     1      34.386   3.615  47.806  1.00  0.00     0.029 A 
HETATM   15  C10 UNL     1      35.152   3.222  46.735  1.00  0.00     0.004 A 
HETATM   16  C11 UNL     1      34.831   3.693  45.491  1.00  0.00     0.019 A 
HETATM   17  C12 UNL     1      33.751   4.540  45.368  1.00  0.00     0.013 A 
HETATM   18 BR1  UNL     1      33.320   5.182  43.636  1.00  0.00    -0.051 Br
HETATM   19  C13 UNL     1      33.005   4.913  46.460  1.00  0.00     0.048 A 
ENDBRANCH  11  13
ENDBRANCH   5  11
BRANCH   1  20
HETATM   20  C3  UNL     1      27.955   9.553  48.513  1.00  0.00     0.276 C 
BRANCH  20  21
HETATM   21  C2  UNL     1      27.704   9.237  49.954  1.00  0.00     0.026 C 
HETATM   22  C1  UNL     1      26.486   8.309  50.055  1.00  0.00     0.007 C 
ENDBRANCH  20  21
ENDBRANCH   1  20
BRANCH  10  23
HETATM   23  O1  UNL     1      30.534   9.840  46.181  1.00  0.00    -0.366 OA
HETATM   24  H21 UNL     1      31.264  10.080  46.836  1.00  0.00     0.212 HD
ENDBRANCH  10  23
TORSDOF 5
ENDMDL
MODEL 9
REMARK VINA RESULT:      -6.7      5.552      8.207
REMARK  5 active torsions:
REMARK  status: ('A' for Active; 'I' for Inactive)
REMARK    1  A    between atoms: C2_2  and  C3_3 
REMARK    2  A    between atoms: C3_3  and  N1_4 
REMARK    3  A    between atoms: C7_8  and  N2_9 
REMARK    4  A    between atoms: N2_9  and  C8_10 
REMARK    5  A    between atoms: C16_21  and  O1_22 
ROOT
HETATM    1  N1  UNL     1      21.772   1.489  52.786  1.00  0.00     0.122 NA
HETATM    2  C4  UNL     1      23.096   1.861  52.427  1.00  0.00     0.303 C 
HETATM    3  C5  UNL     1      23.532   3.238  52.533  1.00  0.00     0.007 C 
HETATM    4  C6  UNL     1      23.843   4.074  51.549  1.00  0.00     0.048 C 
HETATM    5  C7  UNL     1      23.852   3.956  50.092  1.00  0.00     0.129 C 
HETATM    6  N3  UNL     1      23.439   3.186  49.159  1.00  0.00    -0.225 NA
HETATM    7  C14 UNL     1      22.705   1.998  49.247  1.00  0.00     0.229 C 
HETATM    8  N4  UNL     1      21.620   1.693  49.896  1.00  0.00    -0.278 NA
HETATM    9  C15 UNL     1      20.895   2.621  50.731  1.00  0.00     0.214 C 
HETATM   10  C16 UNL     1      20.735   2.245  52.161  1.00  0.00     0.376 C 
ENDROOT
BRANCH   5  11
HETATM   11  N2  UNL     1      24.361   5.083  49.339  1.00  0.00    -0.341 N 
HETATM   12  H12 UNL     1      23.587   5.765  49.036  1.00  0.00     0.167 HD
BRANCH  11  13
HETATM   13  C8  UNL     1      25.686   5.409  48.945  1.00  0.00     0.034 A 
HETATM   14  C9  UNL     1      26.797   4.610  49.020  1.00  0.00     0.029 A 
HETATM   15  C10 UNL     1      28.061   4.991  48.641  1.00  0.00     0.004 A 
HETATM   16  C11 UNL     1      28.246   6.255  48.150  1.00  0.00     0.019 A 
HETATM   17  C12 UNL     1      27.153   7.090  48.058  1.00  0.00     0.013 A 
HETATM   18 BR1  UNL     1      27.427   8.838  47.375  1.00  0.00    -0.051 Br
HETATM   19  C13 UNL     1      25.901   6.676  48.446  1.00  0.00     0.048 A 
ENDBRANCH  11  13
ENDBRANCH   5  11
BRANCH   1  20
HETATM   20  C3  UNL     1      21.626   0.083  52.449  1.00  0.00     0.276 C 
BRANCH  20  21
HETATM   21  C2  UNL     1      22.568  -0.741  53.269  1.00  0.00     0.026 C 
HETATM   22  C1  UNL     1      21.839  -1.219  54.533  1.00  0.00     0.007 C 
ENDBRANCH  20  21
ENDBRANCH   1  20
BRANCH  10  23
HETATM   23  O1  UNL     1      20.106   3.180  52.970  1.00  0.00    -0.366 OA
HETATM   24  H21 UNL     1      19.580   2.633  53.636  1.00  0.00     0.212 HD
ENDBRANCH  10  23
TORSDOF 5
ENDMDL
