MODEL 1
REMARK VINA RESULT:      -7.9      0.000      0.000
REMARK  6 active torsions:
REMARK  status: ('A' for Active; 'I' for Inactive)
REMARK    1  A    between atoms: C3_3  and  C4_4 
REMARK    2  A    between atoms: C4_4  and  C5_5 
REMARK    3  A    between atoms: C6_6  and  C8_9 
REMARK    4  A    between atoms: C8_9  and  C9_11 
REMARK    5  A    between atoms: C13_17  and  O1_18 
REMARK    6  A    between atoms: C14_19  and  O2_20 
ROOT
HETATM    1  C5  UNL     1      24.861   0.470  52.665  1.00  0.00     0.002 C 
HETATM    2  C6  UNL     1      23.670   1.049  52.716  1.00  0.00     0.067 C 
HETATM    3  C7  UNL     1      23.677   2.484  52.750  1.00  0.00     0.101 C 
HETATM    4  N1  UNL     1      23.678   3.647  52.758  1.00  0.00    -0.191 NA
ENDROOT
BRANCH   2   5
HETATM    5  C8  UNL     1      22.416   0.306  52.739  1.00  0.00     0.077 C 
HETATM    6  N2  UNL     1      21.911  -0.224  51.677  1.00  0.00    -0.301 NA
HETATM    7  H7  UNL     1      22.446  -0.096  50.790  1.00  0.00     0.186 HD
BRANCH   5   8
HETATM    8  C9  UNL     1      21.698   0.156  54.031  1.00  0.00     0.251 C 
HETATM    9  C10 UNL     1      20.320  -0.248  53.713  1.00  0.00     0.085 C 
HETATM   10  N3  UNL     1      19.244  -0.576  53.448  1.00  0.00    -0.195 NA
HETATM   11  C11 UNL     1      22.351  -0.839  54.892  1.00  0.00     0.085 C 
HETATM   12  N4  UNL     1      22.860  -1.643  55.583  1.00  0.00    -0.195 NA
ENDBRANCH   5   8
ENDBRANCH   2   5
BRANCH   1  13
HETATM   13  C4  UNL     1      26.090   1.262  52.644  1.00  0.00     0.066 C 
BRANCH  13  14
HETATM   14  C3  UNL     1      27.298   0.473  52.986  1.00  0.00    -0.041 A 
HETATM   15  C2  UNL     1      28.416   0.973  53.446  1.00  0.00     0.055 A 
HETATM   16  C1  UNL     1      28.502   2.452  53.650  1.00  0.00     0.077 C 
HETATM   17  O3  UNL     1      29.480   0.133  53.730  1.00  0.00    -0.291 OA
HETATM   18  C14 UNL     1      29.322  -1.229  53.513  1.00  0.00     0.213 A 
HETATM   19  C13 UNL     1      28.226  -1.791  53.054  1.00  0.00     0.105 A 
HETATM   20  C12 UNL     1      27.069  -0.950  52.737  1.00  0.00     0.106 A 
BRANCH  18  21
HETATM   21  O2  UNL     1      30.420  -2.034  53.814  1.00  0.00    -0.339 OA
HETATM   22  H12 UNL     1      30.815  -1.931  54.762  1.00  0.00     0.220 HD
ENDBRANCH  18  21
BRANCH  19  23
HETATM   23  O1  UNL     1      28.083  -3.155  52.842  1.00  0.00    -0.360 OA
HETATM   24  H11 UNL     1      27.565  -3.575  52.087  1.00  0.00     0.217 HD
ENDBRANCH  19  23
ENDBRANCH  13  14
ENDBRANCH   1  13
TORSDOF 6
ENDMDL
MODEL 2
REMARK VINA RESULT:      -7.8      4.209      6.994
REMARK  6 active torsions:
REMARK  status: ('A' for Active; 'I' for Inactive)
REMARK    1  A    between atoms: C3_3  and  C4_4 
REMARK    2  A    between atoms: C4_4  and  C5_5 
REMARK    3  A    between atoms: C6_6  and  C8_9 
REMARK    4  A    between atoms: C8_9  and  C9_11 
REMARK    5  A    between atoms: C13_17  and  O1_18 
REMARK    6  A    between atoms: C14_19  and  O2_20 
ROOT
HETATM    1  C5  UNL     1      24.527   0.470  53.117  1.00  0.00     0.002 C 
HETATM    2  C6  UNL     1      25.797   0.828  52.999  1.00  0.00     0.067 C 
HETATM    3  C7  UNL     1      26.085   1.762  51.947  1.00  0.00     0.101 C 
HETATM    4  N1  UNL     1      26.320   2.532  51.108  1.00  0.00    -0.191 NA
ENDROOT
BRANCH   2   5
HETATM    5  C8  UNL     1      26.857   0.327  53.865  1.00  0.00     0.077 C 
HETATM    6  N2  UNL     1      26.619  -0.152  55.039  1.00  0.00    -0.301 NA
HETATM    7  H7  UNL     1      25.622  -0.165  55.345  1.00  0.00     0.186 HD
BRANCH   5   8
HETATM    8  C9  UNL     1      28.260   0.371  53.375  1.00  0.00     0.251 C 
HETATM    9  C10 UNL     1      28.969   1.369  54.190  1.00  0.00     0.085 C 
HETATM   10  N3  UNL     1      29.515   2.148  54.844  1.00  0.00    -0.195 NA
HETATM   11  C11 UNL     1      28.903  -0.946  53.481  1.00  0.00     0.085 C 
HETATM   12  N4  UNL     1      29.430  -1.993  53.574  1.00  0.00    -0.195 NA
ENDBRANCH   5   8
ENDBRANCH   2   5
BRANCH   1  13
HETATM   13  C4  UNL     1      23.501   1.003  52.221  1.00  0.00     0.066 C 
BRANCH  13  14
HETATM   14  C3  UNL     1      22.130   0.571  52.582  1.00  0.00    -0.041 A 
HETATM   15  C2  UNL     1      21.030   1.051  52.062  1.00  0.00     0.055 A 
HETATM   16  C1  UNL     1      21.143   2.120  51.022  1.00  0.00     0.077 C 
HETATM   17  O3  UNL     1      19.802   0.566  52.480  1.00  0.00    -0.291 OA
HETATM   18  C14 UNL     1      19.780  -0.427  53.450  1.00  0.00     0.213 A 
HETATM   19  C13 UNL     1      20.848  -0.950  54.009  1.00  0.00     0.105 A 
HETATM   20  C12 UNL     1      22.174  -0.474  53.605  1.00  0.00     0.106 A 
BRANCH  18  21
HETATM   21  O2  UNL     1      18.521  -0.883  53.838  1.00  0.00    -0.339 OA
HETATM   22  H12 UNL     1      17.772  -0.174  53.883  1.00  0.00     0.220 HD
ENDBRANCH  18  21
BRANCH  19  23
HETATM   23  O1  UNL     1      20.810  -1.942  54.979  1.00  0.00    -0.360 OA
HETATM   24  H11 UNL     1      20.038  -2.570  55.139  1.00  0.00     0.217 HD
ENDBRANCH  19  23
ENDBRANCH  13  14
ENDBRANCH   1  13
TORSDOF 6
ENDMDL
MODEL 3
REMARK VINA RESULT:      -7.7      4.181      6.722
REMARK  6 active torsions:
REMARK  status: ('A' for Active; 'I' for Inactive)
REMARK    1  A    between atoms: C3_3  and  C4_4 
REMARK    2  A    between atoms: C4_4  and  C5_5 
REMARK    3  A    between atoms: C6_6  and  C8_9 
REMARK    4  A    between atoms: C8_9  and  C9_11 
REMARK    5  A    between atoms: C13_17  and  O1_18 
REMARK    6  A    between atoms: C14_19  and  O2_20 
ROOT
HETATM    1  C5  UNL     1      24.634   0.903  52.240  1.00  0.00     0.002 C 
HETATM    2  C6  UNL     1      24.557   0.003  53.210  1.00  0.00     0.067 C 
HETATM    3  C7  UNL     1      23.241  -0.501  53.486  1.00  0.00     0.101 C 
HETATM    4  N1  UNL     1      22.181  -0.928  53.701  1.00  0.00    -0.191 NA
ENDROOT
BRANCH   2   5
HETATM    5  C8  UNL     1      25.712  -0.465  53.966  1.00  0.00     0.077 C 
HETATM    6  N2  UNL     1      25.607  -0.929  55.165  1.00  0.00    -0.301 NA
HETATM    7  H7  UNL     1      24.648  -0.955  55.575  1.00  0.00     0.186 HD
BRANCH   5   8
HETATM    8  C9  UNL     1      27.054  -0.405  53.331  1.00  0.00     0.251 C 
HETATM    9  C10 UNL     1      27.955   0.254  54.289  1.00  0.00     0.085 C 
HETATM   10  N3  UNL     1      28.652   0.763  55.056  1.00  0.00    -0.195 NA
HETATM   11  C11 UNL     1      27.543  -1.747  52.988  1.00  0.00     0.085 C 
HETATM   12  N4  UNL     1      27.948  -2.819  52.723  1.00  0.00    -0.195 NA
ENDBRANCH   5   8
ENDBRANCH   2   5
BRANCH   1  13
HETATM   13  C4  UNL     1      23.443   1.338  51.512  1.00  0.00     0.066 C 
BRANCH  13  14
HETATM   14  C3  UNL     1      23.348   2.812  51.377  1.00  0.00    -0.041 A 
HETATM   15  C2  UNL     1      23.005   3.445  50.285  1.00  0.00     0.055 A 
HETATM   16  C1  UNL     1      22.681   2.639  49.068  1.00  0.00     0.077 C 
HETATM   17  O3  UNL     1      22.951   4.829  50.280  1.00  0.00    -0.291 OA
HETATM   18  C14 UNL     1      23.268   5.506  51.450  1.00  0.00     0.213 A 
HETATM   19  C13 UNL     1      23.618   4.928  52.577  1.00  0.00     0.105 A 
HETATM   20  C12 UNL     1      23.692   3.466  52.639  1.00  0.00     0.106 A 
BRANCH  18  21
HETATM   21  O2  UNL     1      23.199   6.898  51.397  1.00  0.00    -0.339 OA
HETATM   22  H12 UNL     1      24.045   7.408  51.694  1.00  0.00     0.220 HD
ENDBRANCH  18  21
BRANCH  19  23
HETATM   23  O1  UNL     1      23.932   5.618  53.740  1.00  0.00    -0.360 OA
HETATM   24  H11 UNL     1      24.047   6.617  53.810  1.00  0.00     0.217 HD
ENDBRANCH  19  23
ENDBRANCH  13  14
ENDBRANCH   1  13
TORSDOF 6
ENDMDL
MODEL 4
REMARK VINA RESULT:      -7.7      2.661      4.408
REMARK  6 active torsions:
REMARK  status: ('A' for Active; 'I' for Inactive)
REMARK    1  A    between atoms: C3_3  and  C4_4 
REMARK    2  A    between atoms: C4_4  and  C5_5 
REMARK    3  A    between atoms: C6_6  and  C8_9 
REMARK    4  A    between atoms: C8_9  and  C9_11 
REMARK    5  A    between atoms: C13_17  and  O1_18 
REMARK    6  A    between atoms: C14_19  and  O2_20 
ROOT
HETATM    1  C5  UNL     1      22.936   0.101  52.732  1.00  0.00     0.002 C 
HETATM    2  C6  UNL     1      22.008  -0.398  53.534  1.00  0.00     0.067 C 
HETATM    3  C7  UNL     1      22.496  -1.077  54.702  1.00  0.00     0.101 C 
HETATM    4  N1  UNL     1      22.885  -1.612  55.658  1.00  0.00    -0.191 NA
ENDROOT
BRANCH   2   5
HETATM    5  C8  UNL     1      20.577  -0.284  53.279  1.00  0.00     0.077 C 
HETATM    6  N2  UNL     1      19.696  -0.841  54.038  1.00  0.00    -0.301 NA
HETATM    7  H7  UNL     1      20.056  -1.385  54.852  1.00  0.00     0.186 HD
BRANCH   5   8
HETATM    8  C9  UNL     1      20.123   0.504  52.104  1.00  0.00     0.251 C 
HETATM    9  C10 UNL     1      18.806  -0.024  51.714  1.00  0.00     0.085 C 
HETATM   10  N3  UNL     1      17.769  -0.443  51.427  1.00  0.00    -0.195 NA
HETATM   11  C11 UNL     1      20.040   1.936  52.421  1.00  0.00     0.085 C 
HETATM   12  N4  UNL     1      19.958   3.083  52.670  1.00  0.00    -0.195 NA
ENDBRANCH   5   8
ENDBRANCH   2   5
BRANCH   1  13
HETATM   13  C4  UNL     1      24.359  -0.042  53.035  1.00  0.00     0.066 C 
BRANCH  13  14
HETATM   14  C3  UNL     1      25.211   0.933  52.311  1.00  0.00    -0.041 A 
HETATM   15  C2  UNL     1      26.508   0.839  52.173  1.00  0.00     0.055 A 
HETATM   16  C1  UNL     1      27.205  -0.335  52.784  1.00  0.00     0.077 C 
HETATM   17  O3  UNL     1      27.198   1.815  51.473  1.00  0.00    -0.291 OA
HETATM   18  C14 UNL     1      26.479   2.875  50.936  1.00  0.00     0.213 A 
HETATM   19  C13 UNL     1      25.178   3.025  51.040  1.00  0.00     0.105 A 
HETATM   20  C12 UNL     1      24.398   2.022  51.770  1.00  0.00     0.106 A 
BRANCH  18  21
HETATM   21  O2  UNL     1      27.217   3.832  50.240  1.00  0.00    -0.339 OA
HETATM   22  H12 UNL     1      27.204   3.757  49.210  1.00  0.00     0.220 HD
ENDBRANCH  18  21
BRANCH  19  23
HETATM   23  O1  UNL     1      24.473   4.090  50.497  1.00  0.00    -0.360 OA
HETATM   24  H11 UNL     1      23.521   4.333  50.723  1.00  0.00     0.217 HD
ENDBRANCH  19  23
ENDBRANCH  13  14
ENDBRANCH   1  13
TORSDOF 6
ENDMDL
MODEL 5
REMARK VINA RESULT:      -7.7      3.948      6.603
REMARK  6 active torsions:
REMARK  status: ('A' for Active; 'I' for Inactive)
REMARK    1  A    between atoms: C3_3  and  C4_4 
REMARK    2  A    between atoms: C4_4  and  C5_5 
REMARK    3  A    between atoms: C6_6  and  C8_9 
REMARK    4  A    between atoms: C8_9  and  C9_11 
REMARK    5  A    between atoms: C13_17  and  O1_18 
REMARK    6  A    between atoms: C14_19  and  O2_20 
ROOT
HETATM    1  C5  UNL     1      24.058   0.950  52.218  1.00  0.00     0.002 C 
HETATM    2  C6  UNL     1      24.750   1.868  52.876  1.00  0.00     0.067 C 
HETATM    3  C7  UNL     1      24.181   3.186  52.885  1.00  0.00     0.101 C 
HETATM    4  N1  UNL     1      23.715   4.251  52.912  1.00  0.00    -0.191 NA
ENDROOT
BRANCH   2   5
HETATM    5  C8  UNL     1      26.009   1.592  53.557  1.00  0.00     0.077 C 
HETATM    6  N2  UNL     1      26.743   2.529  54.052  1.00  0.00    -0.301 NA
HETATM    7  H7  UNL     1      26.393   3.506  53.943  1.00  0.00     0.186 HD
BRANCH   5   8
HETATM    8  C9  UNL     1      26.457   0.181  53.684  1.00  0.00     0.251 C 
HETATM    9  C10 UNL     1      27.901   0.211  53.964  1.00  0.00     0.085 C 
HETATM   10  N3  UNL     1      29.032   0.252  54.194  1.00  0.00    -0.195 NA
HETATM   11  C11 UNL     1      25.730  -0.516  54.754  1.00  0.00     0.085 C 
HETATM   12  N4  UNL     1      25.163  -1.078  55.618  1.00  0.00    -0.195 NA
ENDBRANCH   5   8
ENDBRANCH   2   5
BRANCH   1  13
HETATM   13  C4  UNL     1      22.799   1.279  51.552  1.00  0.00     0.066 C 
BRANCH  13  14
HETATM   14  C3  UNL     1      21.633   0.561  52.119  1.00  0.00    -0.041 A 
HETATM   15  C2  UNL     1      20.431   0.556  51.603  1.00  0.00     0.055 A 
HETATM   16  C1  UNL     1      20.194   1.329  50.345  1.00  0.00     0.077 C 
HETATM   17  O3  UNL     1      19.417  -0.155  52.225  1.00  0.00    -0.291 OA
HETATM   18  C14 UNL     1      19.717  -0.847  53.391  1.00  0.00     0.213 A 
HETATM   19  C13 UNL     1      20.902  -0.881  53.957  1.00  0.00     0.105 A 
HETATM   20  C12 UNL     1      22.011  -0.147  53.342  1.00  0.00     0.106 A 
BRANCH  18  21
HETATM   21  O2  UNL     1      18.665  -1.547  53.981  1.00  0.00    -0.339 OA
HETATM   22  H12 UNL     1      18.888  -2.489  54.338  1.00  0.00     0.220 HD
ENDBRANCH  18  21
BRANCH  19  23
HETATM   23  O1  UNL     1      21.186  -1.578  55.124  1.00  0.00    -0.360 OA
HETATM   24  H11 UNL     1      20.758  -2.446  55.401  1.00  0.00     0.217 HD
ENDBRANCH  19  23
ENDBRANCH  13  14
ENDBRANCH   1  13
TORSDOF 6
ENDMDL
MODEL 6
REMARK VINA RESULT:      -7.5      1.853      3.644
REMARK  6 active torsions:
REMARK  status: ('A' for Active; 'I' for Inactive)
REMARK    1  A    between atoms: C3_3  and  C4_4 
REMARK    2  A    between atoms: C4_4  and  C5_5 
REMARK    3  A    between atoms: C6_6  and  C8_9 
REMARK    4  A    between atoms: C8_9  and  C9_11 
REMARK    5  A    between atoms: C13_17  and  O1_18 
REMARK    6  A    between atoms: C14_19  and  O2_20 
ROOT
HETATM    1  C5  UNL     1      23.629  -0.052  52.714  1.00  0.00     0.002 C 
HETATM    2  C6  UNL     1      22.322  -0.169  52.899  1.00  0.00     0.067 C 
HETATM    3  C7  UNL     1      21.922  -1.017  53.987  1.00  0.00     0.101 C 
HETATM    4  N1  UNL     1      21.593  -1.687  54.879  1.00  0.00    -0.191 NA
ENDROOT
BRANCH   2   5
HETATM    5  C8  UNL     1      21.329   0.505  52.072  1.00  0.00     0.077 C 
HETATM    6  N2  UNL     1      21.558   0.820  50.842  1.00  0.00    -0.301 NA
HETATM    7  H7  UNL     1      22.496   0.568  50.461  1.00  0.00     0.186 HD
BRANCH   5   8
HETATM    8  C9  UNL     1      20.010   0.839  52.669  1.00  0.00     0.251 C 
HETATM    9  C10 UNL     1      19.779   2.271  52.429  1.00  0.00     0.085 C 
HETATM   10  N3  UNL     1      19.607   3.395  52.223  1.00  0.00    -0.195 NA
HETATM   11  C11 UNL     1      18.937   0.027  52.078  1.00  0.00     0.085 C 
HETATM   12  N4  UNL     1      18.070  -0.608  51.602  1.00  0.00    -0.195 NA
ENDBRANCH   5   8
ENDBRANCH   2   5
BRANCH   1  13
HETATM   13  C4  UNL     1      24.584  -0.751  53.574  1.00  0.00     0.066 C 
BRANCH  13  14
HETATM   14  C3  UNL     1      25.971  -0.247  53.435  1.00  0.00    -0.041 A 
HETATM   15  C2  UNL     1      26.979  -0.941  52.974  1.00  0.00     0.055 A 
HETATM   16  C1  UNL     1      26.735  -2.354  52.550  1.00  0.00     0.077 C 
HETATM   17  O3  UNL     1      28.234  -0.360  52.892  1.00  0.00    -0.291 OA
HETATM   18  C14 UNL     1      28.381   0.957  53.306  1.00  0.00     0.213 A 
HETATM   19  C13 UNL     1      27.408   1.705  53.777  1.00  0.00     0.105 A 
HETATM   20  C12 UNL     1      26.060   1.142  53.886  1.00  0.00     0.106 A 
BRANCH  18  21
HETATM   21  O2  UNL     1      29.661   1.498  53.203  1.00  0.00    -0.339 OA
HETATM   22  H12 UNL     1      29.837   2.103  52.386  1.00  0.00     0.220 HD
ENDBRANCH  18  21
BRANCH  19  23
HETATM   23  O1  UNL     1      27.570   3.021  54.187  1.00  0.00    -0.360 OA
HETATM   24  H11 UNL     1      27.026   3.478  54.903  1.00  0.00     0.217 HD
ENDBRANCH  19  23
ENDBRANCH  13  14
ENDBRANCH   1  13
TORSDOF 6
ENDMDL
MODEL 7
REMARK VINA RESULT:      -7.3      4.261      6.813
REMARK  6 active torsions:
REMARK  status: ('A' for Active; 'I' for Inactive)
REMARK    1  A    between atoms: C3_3  and  C4_4 
REMARK    2  A    between atoms: C4_4  and  C5_5 
REMARK    3  A    between atoms: C6_6  and  C8_9 
REMARK    4  A    between atoms: C8_9  and  C9_11 
REMARK    5  A    between atoms: C13_17  and  O1_18 
REMARK    6  A    between atoms: C14_19  and  O2_20 
ROOT
HETATM    1  C5  UNL     1      23.627   0.388  52.937  1.00  0.00     0.002 C 
HETATM    2  C6  UNL     1      23.919  -0.403  53.959  1.00  0.00     0.067 C 
HETATM    3  C7  UNL     1      22.800  -1.056  54.579  1.00  0.00     0.101 C 
HETATM    4  N1  UNL     1      21.900  -1.602  55.072  1.00  0.00    -0.191 NA
ENDROOT
BRANCH   2   5
HETATM    5  C8  UNL     1      25.276  -0.620  54.447  1.00  0.00     0.077 C 
HETATM    6  N2  UNL     1      25.518  -1.033  55.644  1.00  0.00    -0.301 NA
HETATM    7  H7  UNL     1      24.691  -1.208  56.256  1.00  0.00     0.186 HD
BRANCH   5   8
HETATM    8  C9  UNL     1      26.415  -0.354  53.530  1.00  0.00     0.251 C 
HETATM    9  C10 UNL     1      27.517   0.166  54.353  1.00  0.00     0.085 C 
HETATM   10  N3  UNL     1      28.377   0.564  55.014  1.00  0.00    -0.195 NA
HETATM   11  C11 UNL     1      26.822  -1.574  52.819  1.00  0.00     0.085 C 
HETATM   12  N4  UNL     1      27.163  -2.547  52.254  1.00  0.00    -0.195 NA
ENDBRANCH   5   8
ENDBRANCH   2   5
BRANCH   1  13
HETATM   13  C4  UNL     1      22.248   0.570  52.487  1.00  0.00     0.066 C 
BRANCH  13  14
HETATM   14  C3  UNL     1      22.146   1.292  51.196  1.00  0.00    -0.041 A 
HETATM   15  C2  UNL     1      21.086   1.312  50.429  1.00  0.00     0.055 A 
HETATM   16  C1  UNL     1      19.874   0.556  50.871  1.00  0.00     0.077 C 
HETATM   17  O3  UNL     1      21.110   2.024  49.241  1.00  0.00    -0.291 OA
HETATM   18  C14 UNL     1      22.274   2.701  48.900  1.00  0.00     0.213 A 
HETATM   19  C13 UNL     1      23.369   2.719  49.627  1.00  0.00     0.105 A 
HETATM   20  C12 UNL     1      23.399   1.982  50.894  1.00  0.00     0.106 A 
BRANCH  18  21
HETATM   21  O2  UNL     1      22.250   3.403  47.696  1.00  0.00    -0.339 OA
HETATM   22  H12 UNL     1      22.297   2.836  46.836  1.00  0.00     0.220 HD
ENDBRANCH  18  21
BRANCH  19  23
HETATM   23  O1  UNL     1      24.525   3.400  49.273  1.00  0.00    -0.360 OA
HETATM   24  H11 UNL     1      25.302   3.004  48.768  1.00  0.00     0.217 HD
ENDBRANCH  19  23
ENDBRANCH  13  14
ENDBRANCH   1  13
TORSDOF 6
ENDMDL
MODEL 8
REMARK VINA RESULT:      -7.3      1.942      2.897
REMARK  6 active torsions:
REMARK  status: ('A' for Active; 'I' for Inactive)
REMARK    1  A    between atoms: C3_3  and  C4_4 
REMARK    2  A    between atoms: C4_4  and  C5_5 
REMARK    3  A    between atoms: C6_6  and  C8_9 
REMARK    4  A    between atoms: C8_9  and  C9_11 
REMARK    5  A    between atoms: C13_17  and  O1_18 
REMARK    6  A    between atoms: C14_19  and  O2_20 
ROOT
HETATM    1  C5  UNL     1      25.630   1.964  52.930  1.00  0.00     0.002 C 
HETATM    2  C6  UNL     1      24.926   2.484  51.936  1.00  0.00     0.067 C 
HETATM    3  C7  UNL     1      25.684   2.919  50.797  1.00  0.00     0.101 C 
HETATM    4  N1  UNL     1      26.293   3.255  49.865  1.00  0.00    -0.191 NA
ENDROOT
BRANCH   2   5
HETATM    5  C8  UNL     1      23.474   2.620  51.964  1.00  0.00     0.077 C 
HETATM    6  N2  UNL     1      22.893   3.727  52.280  1.00  0.00    -0.301 NA
HETATM    7  H7  UNL     1      23.514   4.530  52.519  1.00  0.00     0.186 HD
BRANCH   5   8
HETATM    8  C9  UNL     1      22.640   1.441  51.615  1.00  0.00     0.251 C 
HETATM    9  C10 UNL     1      21.454   1.480  52.484  1.00  0.00     0.085 C 
HETATM   10  N3  UNL     1      20.524   1.530  53.166  1.00  0.00    -0.195 NA
HETATM   11  C11 UNL     1      22.253   1.463  50.198  1.00  0.00     0.085 C 
HETATM   12  N4  UNL     1      21.927   1.479  49.068  1.00  0.00    -0.195 NA
ENDBRANCH   5   8
ENDBRANCH   2   5
BRANCH   1  13
HETATM   13  C4  UNL     1      27.086   1.850  52.851  1.00  0.00     0.066 C 
BRANCH  13  14
HETATM   14  C3  UNL     1      27.575   0.466  53.055  1.00  0.00    -0.041 A 
HETATM   15  C2  UNL     1      28.573   0.129  53.831  1.00  0.00     0.055 A 
HETATM   16  C1  UNL     1      29.288   1.208  54.579  1.00  0.00     0.077 C 
HETATM   17  O3  UNL     1      28.939  -1.203  53.942  1.00  0.00    -0.291 OA
HETATM   18  C14 UNL     1      28.226  -2.146  53.214  1.00  0.00     0.213 A 
HETATM   19  C13 UNL     1      27.217  -1.871  52.419  1.00  0.00     0.105 A 
HETATM   20  C12 UNL     1      26.786  -0.479  52.265  1.00  0.00     0.106 A 
BRANCH  18  21
HETATM   21  O2  UNL     1      28.632  -3.473  53.358  1.00  0.00    -0.339 OA
HETATM   22  H12 UNL     1      29.645  -3.651  53.276  1.00  0.00     0.220 HD
ENDBRANCH  18  21
BRANCH  19  23
HETATM   23  O1  UNL     1      26.513  -2.825  51.698  1.00  0.00    -0.360 OA
HETATM   24  H11 UNL     1      26.481  -3.810  51.912  1.00  0.00     0.217 HD
ENDBRANCH  19  23
ENDBRANCH  13  14
ENDBRANCH   1  13
TORSDOF 6
ENDMDL
MODEL 9
REMARK VINA RESULT:      -7.3      4.272      6.632
REMARK  6 active torsions:
REMARK  status: ('A' for Active; 'I' for Inactive)
REMARK    1  A    between atoms: C3_3  and  C4_4 
REMARK    2  A    between atoms: C4_4  and  C5_5 
REMARK    3  A    between atoms: C6_6  and  C8_9 
REMARK    4  A    between atoms: C8_9  and  C9_11 
REMARK    5  A    between atoms: C13_17  and  O1_18 
REMARK    6  A    between atoms: C14_19  and  O2_20 
ROOT
HETATM    1  C5  UNL     1      24.580   0.927  52.315  1.00  0.00     0.002 C 
HETATM    2  C6  UNL     1      25.543   1.831  52.411  1.00  0.00     0.067 C 
HETATM    3  C7  UNL     1      26.374   1.732  53.578  1.00  0.00     0.101 C 
HETATM    4  N1  UNL     1      27.061   1.645  54.512  1.00  0.00    -0.191 NA
ENDROOT
BRANCH   2   5
HETATM    5  C8  UNL     1      25.773   2.871  51.415  1.00  0.00     0.077 C 
HETATM    6  N2  UNL     1      26.958   3.218  51.044  1.00  0.00    -0.301 NA
HETATM    7  H7  UNL     1      27.755   2.716  51.493  1.00  0.00     0.186 HD
BRANCH   5   8
HETATM    8  C9  UNL     1      24.599   3.551  50.809  1.00  0.00     0.251 C 
HETATM    9  C10 UNL     1      23.890   4.239  51.899  1.00  0.00     0.085 C 
HETATM   10  N3  UNL     1      23.351   4.782  52.763  1.00  0.00    -0.195 NA
HETATM   11  C11 UNL     1      25.012   4.503  49.769  1.00  0.00     0.085 C 
HETATM   12  N4  UNL     1      25.334   5.276  48.944  1.00  0.00    -0.195 NA
ENDBRANCH   5   8
ENDBRANCH   2   5
BRANCH   1  13
HETATM   13  C4  UNL     1      24.392  -0.096  53.343  1.00  0.00     0.066 C 
BRANCH  13  14
HETATM   14  C3  UNL     1      22.966  -0.405  53.605  1.00  0.00    -0.041 A 
HETATM   15  C2  UNL     1      22.516  -1.030  54.662  1.00  0.00     0.055 A 
HETATM   16  C1  UNL     1      23.498  -1.475  55.697  1.00  0.00     0.077 C 
HETATM   17  O3  UNL     1      21.157  -1.263  54.797  1.00  0.00    -0.291 OA
HETATM   18  C14 UNL     1      20.308  -0.820  53.791  1.00  0.00     0.213 A 
HETATM   19  C13 UNL     1      20.699  -0.187  52.708  1.00  0.00     0.105 A 
HETATM   20  C12 UNL     1      22.125   0.086  52.514  1.00  0.00     0.106 A 
BRANCH  18  21
HETATM   21  O2  UNL     1      18.949  -1.077  53.972  1.00  0.00    -0.339 OA
HETATM   22  H12 UNL     1      18.421  -0.377  54.516  1.00  0.00     0.220 HD
ENDBRANCH  18  21
BRANCH  19  23
HETATM   23  O1  UNL     1      19.838   0.251  51.711  1.00  0.00    -0.360 OA
HETATM   24  H11 UNL     1      19.483   1.189  51.620  1.00  0.00     0.217 HD
ENDBRANCH  19  23
ENDBRANCH  13  14
ENDBRANCH   1  13
TORSDOF 6
ENDMDL
