MODEL 1
REMARK VINA RESULT:      -7.7      0.000      0.000
REMARK  8 active torsions:
REMARK  status: ('A' for Active; 'I' for Inactive)
REMARK    1  A    between atoms: C2_2  and  C3_3 
REMARK    2  A    between atoms: C9_11  and  C10_12 
REMARK    3  A    between atoms: C10_12  and  C11_13 
REMARK    4  A    between atoms: C11_13  and  N3_14 
REMARK    5  A    between atoms: C12_15  and  C13_16 
REMARK    6  A    between atoms: C14_18  and  C15_19 
REMARK    7  A    between atoms: C15_19  and  C16_20 
REMARK    8  A    between atoms: C16_20  and  N4_21 
ROOT
HETATM    1  C3  UNL     1      21.285   0.277  52.641  1.00  0.00    -0.005 A 
HETATM    2  C4  UNL     1      20.552  -0.581  53.427  1.00  0.00     0.072 A 
HETATM    3  C5  UNL     1      19.130  -0.722  53.380  1.00  0.00     0.102 C 
HETATM    4  N1  UNL     1      17.987  -0.823  53.359  1.00  0.00    -0.191 NA
HETATM    5  C6  UNL     1      21.227  -1.387  54.346  1.00  0.00     0.140 A 
HETATM    6  N2  UNL     1      22.577  -1.319  54.457  1.00  0.00    -0.259 NA
HETATM    7  C7  UNL     1      23.293  -0.479  53.689  1.00  0.00     0.068 A 
HETATM    8  C8  UNL     1      24.638  -0.501  53.888  1.00  0.00     0.040 A 
HETATM    9  C9  UNL     1      25.453   0.344  53.122  1.00  0.00    -0.041 A 
HETATM   10  C12 UNL     1      24.773   1.133  52.216  1.00  0.00     0.003 A 
HETATM   11  C19 UNL     1      23.408   1.144  52.028  1.00  0.00     0.029 A 
HETATM   12  C20 UNL     1      22.653   0.313  52.788  1.00  0.00     0.005 A 
ENDROOT
BRANCH   1  13
HETATM   13  C2  UNL     1      20.569   1.110  51.687  1.00  0.00    -0.013 C 
HETATM   14  C1  UNL     1      20.456   0.651  50.455  1.00  0.00     0.032 C 
ENDBRANCH   1  13
BRANCH  10  15
HETATM   15  C13 UNL     1      25.545   2.014  51.377  1.00  0.00     0.088 A 
HETATM   16  O1  UNL     1      25.032   2.720  50.477  1.00  0.00    -0.340 OA
HETATM   17  C14 UNL     1      26.613   2.724  50.788  1.00  0.00     0.192 A 
BRANCH  17  18
HETATM   18  C15 UNL     1      26.510   3.571  49.815  1.00  0.00     0.058 C 
BRANCH  18  19
HETATM   19  C16 UNL     1      26.906   4.701  48.963  1.00  0.00     0.279 C 
BRANCH  19  20
HETATM   20  N4  UNL     1      26.242   5.952  49.279  1.00  0.00     0.080 N 
HETATM   21  C17 UNL     1      27.016   7.034  48.757  1.00  0.00     0.309 C 
HETATM   22  C18 UNL     1      24.875   5.997  48.818  1.00  0.00     0.309 C 
ENDBRANCH  19  20
ENDBRANCH  18  19
ENDBRANCH  17  18
ENDBRANCH  10  15
BRANCH   9  23
HETATM   23  C10 UNL     1      26.899   0.328  53.344  1.00  0.00     0.069 C 
BRANCH  23  24
HETATM   24  C11 UNL     1      27.307   0.237  54.790  1.00  0.00     0.271 C 
BRANCH  24  25
HETATM   25  N3  UNL     1      28.598   0.859  55.013  1.00  0.00     0.078 N 
HETATM   26  H10 UNL     1      28.517   1.778  55.509  1.00  0.00     0.312 HD
HETATM   27  H11 UNL     1      29.299   0.230  55.439  1.00  0.00     0.312 HD
ENDBRANCH  24  25
ENDBRANCH  23  24
ENDBRANCH   9  23
TORSDOF 8
ENDMDL
MODEL 2
REMARK VINA RESULT:      -7.4      3.700      8.803
REMARK  8 active torsions:
REMARK  status: ('A' for Active; 'I' for Inactive)
REMARK    1  A    between atoms: C2_2  and  C3_3 
REMARK    2  A    between atoms: C9_11  and  C10_12 
REMARK    3  A    between atoms: C10_12  and  C11_13 
REMARK    4  A    between atoms: C11_13  and  N3_14 
REMARK    5  A    between atoms: C12_15  and  C13_16 
REMARK    6  A    between atoms: C14_18  and  C15_19 
REMARK    7  A    between atoms: C15_19  and  C16_20 
REMARK    8  A    between atoms: C16_20  and  N4_21 
ROOT
HETATM    1  C3  UNL     1      28.145   6.096  48.037  1.00  0.00    -0.005 A 
HETATM    2  C4  UNL     1      27.950   7.264  47.338  1.00  0.00     0.072 A 
HETATM    3  C5  UNL     1      28.953   7.941  46.576  1.00  0.00     0.102 C 
HETATM    4  N1  UNL     1      29.760   8.498  45.981  1.00  0.00    -0.191 NA
HETATM    5  C6  UNL     1      26.681   7.850  47.357  1.00  0.00     0.140 A 
HETATM    6  N2  UNL     1      25.670   7.274  48.053  1.00  0.00    -0.259 NA
HETATM    7  C7  UNL     1      25.863   6.133  48.738  1.00  0.00     0.068 A 
HETATM    8  C8  UNL     1      24.775   5.650  49.395  1.00  0.00     0.040 A 
HETATM    9  C9  UNL     1      24.895   4.461  50.127  1.00  0.00    -0.041 A 
HETATM   10  C12 UNL     1      26.153   3.892  50.098  1.00  0.00     0.003 A 
HETATM   11  C19 UNL     1      27.246   4.396  49.427  1.00  0.00     0.029 A 
HETATM   12  C20 UNL     1      27.090   5.549  48.730  1.00  0.00     0.005 A 
ENDROOT
BRANCH   1  13
HETATM   13  C2  UNL     1      29.471   5.497  48.008  1.00  0.00    -0.013 C 
HETATM   14  C1  UNL     1      30.394   6.042  48.778  1.00  0.00     0.032 C 
ENDBRANCH   1  13
BRANCH  10  15
HETATM   15  C13 UNL     1      26.349   2.655  50.812  1.00  0.00     0.088 A 
HETATM   16  O1  UNL     1      27.303   2.471  51.604  1.00  0.00    -0.340 OA
HETATM   17  C14 UNL     1      26.196   1.341  51.301  1.00  0.00     0.192 A 
BRANCH  17  18
HETATM   18  C15 UNL     1      26.977   0.756  52.152  1.00  0.00     0.058 C 
BRANCH  18  19
HETATM   19  C16 UNL     1      27.573  -0.371  52.882  1.00  0.00     0.279 C 
BRANCH  19  20
HETATM   20  N4  UNL     1      27.794  -0.120  54.294  1.00  0.00     0.080 N 
HETATM   21  C17 UNL     1      28.833   0.849  54.437  1.00  0.00     0.309 C 
HETATM   22  C18 UNL     1      26.593   0.272  54.992  1.00  0.00     0.309 C 
ENDBRANCH  19  20
ENDBRANCH  18  19
ENDBRANCH  17  18
ENDBRANCH  10  15
BRANCH   9  23
HETATM   23  C10 UNL     1      23.728   3.947  50.843  1.00  0.00     0.069 C 
BRANCH  23  24
HETATM   24  C11 UNL     1      23.373   4.714  52.089  1.00  0.00     0.271 C 
BRANCH  24  25
HETATM   25  N3  UNL     1      24.185   4.293  53.216  1.00  0.00     0.078 N 
HETATM   26  H10 UNL     1      24.460   5.096  53.830  1.00  0.00     0.312 HD
HETATM   27  H11 UNL     1      23.790   3.497  53.743  1.00  0.00     0.312 HD
ENDBRANCH  24  25
ENDBRANCH  23  24
ENDBRANCH   9  23
TORSDOF 8
ENDMDL
MODEL 3
REMARK VINA RESULT:      -7.3      2.437      5.839
REMARK  8 active torsions:
REMARK  status: ('A' for Active; 'I' for Inactive)
REMARK    1  A    between atoms: C2_2  and  C3_3 
REMARK    2  A    between atoms: C9_11  and  C10_12 
REMARK    3  A    between atoms: C10_12  and  C11_13 
REMARK    4  A    between atoms: C11_13  and  N3_14 
REMARK    5  A    between atoms: C12_15  and  C13_16 
REMARK    6  A    between atoms: C14_18  and  C15_19 
REMARK    7  A    between atoms: C15_19  and  C16_20 
REMARK    8  A    between atoms: C16_20  and  N4_21 
ROOT
HETATM    1  C3  UNL     1      23.032   2.766  49.395  1.00  0.00    -0.005 A 
HETATM    2  C4  UNL     1      21.988   2.940  48.517  1.00  0.00     0.072 A 
HETATM    3  C5  UNL     1      21.990   3.846  47.410  1.00  0.00     0.102 C 
HETATM    4  N1  UNL     1      21.981   4.585  46.533  1.00  0.00    -0.191 NA
HETATM    5  C6  UNL     1      20.828   2.184  48.700  1.00  0.00     0.140 A 
HETATM    6  N2  UNL     1      20.740   1.300  49.724  1.00  0.00    -0.259 NA
HETATM    7  C7  UNL     1      21.760   1.132  50.583  1.00  0.00     0.068 A 
HETATM    8  C8  UNL     1      21.557   0.216  51.567  1.00  0.00     0.040 A 
HETATM    9  C9  UNL     1      22.576  -0.020  52.499  1.00  0.00    -0.041 A 
HETATM   10  C12 UNL     1      23.718   0.732  52.305  1.00  0.00     0.003 A 
HETATM   11  C19 UNL     1      23.908   1.658  51.302  1.00  0.00     0.029 A 
HETATM   12  C20 UNL     1      22.897   1.858  50.420  1.00  0.00     0.005 A 
ENDROOT
BRANCH   1  13
HETATM   13  C2  UNL     1      24.235   3.560  49.192  1.00  0.00    -0.013 C 
HETATM   14  C1  UNL     1      24.288   4.734  49.792  1.00  0.00     0.032 C 
ENDBRANCH   1  13
BRANCH  10  15
HETATM   15  C13 UNL     1      24.820   0.531  53.212  1.00  0.00     0.088 A 
HETATM   16  O1  UNL     1      26.019   0.592  52.851  1.00  0.00    -0.340 OA
HETATM   17  C14 UNL     1      25.585   0.281  54.371  1.00  0.00     0.192 A 
BRANCH  17  18
HETATM   18  C15 UNL     1      26.878   0.255  54.430  1.00  0.00     0.058 C 
BRANCH  18  19
HETATM   19  C16 UNL     1      28.196   0.105  55.062  1.00  0.00     0.279 C 
BRANCH  19  20
HETATM   20  N4  UNL     1      29.267   0.818  54.391  1.00  0.00     0.080 N 
HETATM   21  C17 UNL     1      29.818  -0.020  53.374  1.00  0.00     0.309 C 
HETATM   22  C18 UNL     1      28.850   2.097  53.867  1.00  0.00     0.309 C 
ENDBRANCH  19  20
ENDBRANCH  18  19
ENDBRANCH  17  18
ENDBRANCH  10  15
BRANCH   9  23
HETATM   23  C10 UNL     1      22.353  -0.997  53.565  1.00  0.00     0.069 C 
BRANCH  23  24
HETATM   24  C11 UNL     1      20.959  -0.991  54.133  1.00  0.00     0.271 C 
BRANCH  24  25
HETATM   25  N3  UNL     1      20.741   0.164  54.983  1.00  0.00     0.078 N 
HETATM   26  H10 UNL     1      21.577   0.794  55.021  1.00  0.00     0.312 HD
HETATM   27  H11 UNL     1      19.862   0.670  54.784  1.00  0.00     0.312 HD
ENDBRANCH  24  25
ENDBRANCH  23  24
ENDBRANCH   9  23
TORSDOF 8
ENDMDL
MODEL 4
REMARK VINA RESULT:      -7.3      2.625      5.610
REMARK  8 active torsions:
REMARK  status: ('A' for Active; 'I' for Inactive)
REMARK    1  A    between atoms: C2_2  and  C3_3 
REMARK    2  A    between atoms: C9_11  and  C10_12 
REMARK    3  A    between atoms: C10_12  and  C11_13 
REMARK    4  A    between atoms: C11_13  and  N3_14 
REMARK    5  A    between atoms: C12_15  and  C13_16 
REMARK    6  A    between atoms: C14_18  and  C15_19 
REMARK    7  A    between atoms: C15_19  and  C16_20 
REMARK    8  A    between atoms: C16_20  and  N4_21 
ROOT
HETATM    1  C3  UNL     1      25.856   1.328  52.401  1.00  0.00    -0.005 A 
HETATM    2  C4  UNL     1      24.965   0.513  53.061  1.00  0.00     0.072 A 
HETATM    3  C5  UNL     1      25.316  -0.444  54.064  1.00  0.00     0.102 C 
HETATM    4  N1  UNL     1      25.597  -1.226  54.854  1.00  0.00    -0.191 NA
HETATM    5  C6  UNL     1      23.608   0.614  52.745  1.00  0.00     0.140 A 
HETATM    6  N2  UNL     1      23.186   1.496  51.805  1.00  0.00    -0.259 NA
HETATM    7  C7  UNL     1      24.058   2.291  51.161  1.00  0.00     0.068 A 
HETATM    8  C8  UNL     1      23.517   3.136  50.243  1.00  0.00     0.040 A 
HETATM    9  C9  UNL     1      24.361   4.000  49.532  1.00  0.00    -0.041 A 
HETATM   10  C12 UNL     1      25.699   3.892  49.856  1.00  0.00     0.003 A 
HETATM   11  C19 UNL     1      26.232   3.028  50.789  1.00  0.00     0.029 A 
HETATM   12  C20 UNL     1      25.382   2.208  51.456  1.00  0.00     0.005 A 
ENDROOT
BRANCH   1  13
HETATM   13  C2  UNL     1      27.266   1.213  52.742  1.00  0.00    -0.013 C 
HETATM   14  C1  UNL     1      27.759   2.114  53.570  1.00  0.00     0.032 C 
ENDBRANCH   1  13
BRANCH  10  15
HETATM   15  C13 UNL     1      26.629   4.763  49.182  1.00  0.00     0.088 A 
HETATM   16  O1  UNL     1      27.809   4.429  48.923  1.00  0.00    -0.340 OA
HETATM   17  C14 UNL     1      27.207   5.871  48.527  1.00  0.00     0.192 A 
BRANCH  17  18
HETATM   18  C15 UNL     1      28.423   5.936  48.088  1.00  0.00     0.058 C 
BRANCH  18  19
HETATM   19  C16 UNL     1      29.712   6.569  47.776  1.00  0.00     0.279 C 
BRANCH  19  20
HETATM   20  N4  UNL     1      30.826   6.085  48.571  1.00  0.00     0.080 N 
HETATM   21  C17 UNL     1      31.659   5.264  47.751  1.00  0.00     0.309 C 
HETATM   22  C18 UNL     1      31.571   7.147  49.203  1.00  0.00     0.309 C 
ENDBRANCH  19  20
ENDBRANCH  18  19
ENDBRANCH  17  18
ENDBRANCH  10  15
BRANCH   9  23
HETATM   23  C10 UNL     1      23.781   4.901  48.537  1.00  0.00     0.069 C 
BRANCH  23  24
HETATM   24  C11 UNL     1      23.030   6.069  49.118  1.00  0.00     0.271 C 
BRANCH  24  25
HETATM   25  N3  UNL     1      23.861   7.257  49.172  1.00  0.00     0.078 N 
HETATM   26  H10 UNL     1      24.444   7.373  48.310  1.00  0.00     0.312 HD
HETATM   27  H11 UNL     1      23.350   8.115  49.433  1.00  0.00     0.312 HD
ENDBRANCH  24  25
ENDBRANCH  23  24
ENDBRANCH   9  23
TORSDOF 8
ENDMDL
MODEL 5
REMARK VINA RESULT:      -7.2      3.233      6.640
REMARK  8 active torsions:
REMARK  status: ('A' for Active; 'I' for Inactive)
REMARK    1  A    between atoms: C2_2  and  C3_3 
REMARK    2  A    between atoms: C9_11  and  C10_12 
REMARK    3  A    between atoms: C10_12  and  C11_13 
REMARK    4  A    between atoms: C11_13  and  N3_14 
REMARK    5  A    between atoms: C12_15  and  C13_16 
REMARK    6  A    between atoms: C14_18  and  C15_19 
REMARK    7  A    between atoms: C15_19  and  C16_20 
REMARK    8  A    between atoms: C16_20  and  N4_21 
ROOT
HETATM    1  C3  UNL     1      23.804   0.017  53.496  1.00  0.00    -0.005 A 
HETATM    2  C4  UNL     1      24.536  -0.551  54.513  1.00  0.00     0.072 A 
HETATM    3  C5  UNL     1      25.936  -0.351  54.726  1.00  0.00     0.102 C 
HETATM    4  N1  UNL     1      27.063  -0.208  54.888  1.00  0.00    -0.191 NA
HETATM    5  C6  UNL     1      23.882  -1.389  55.419  1.00  0.00     0.140 A 
HETATM    6  N2  UNL     1      22.555  -1.634  55.293  1.00  0.00    -0.259 NA
HETATM    7  C7  UNL     1      21.841  -1.079  54.298  1.00  0.00     0.068 A 
HETATM    8  C8  UNL     1      20.518  -1.396  54.275  1.00  0.00     0.040 A 
HETATM    9  C9  UNL     1      19.706  -0.854  53.270  1.00  0.00    -0.041 A 
HETATM   10  C12 UNL     1      20.364  -0.026  52.382  1.00  0.00     0.003 A 
HETATM   11  C19 UNL     1      21.707   0.285  52.420  1.00  0.00     0.029 A 
HETATM   12  C20 UNL     1      22.460  -0.261  53.407  1.00  0.00     0.005 A 
ENDROOT
BRANCH   1  13
HETATM   13  C2  UNL     1      24.498   0.888  52.559  1.00  0.00    -0.013 C 
HETATM   14  C1  UNL     1      24.550   2.172  52.860  1.00  0.00     0.032 C 
ENDBRANCH   1  13
BRANCH  10  15
HETATM   15  C13 UNL     1      19.591   0.588  51.332  1.00  0.00     0.088 A 
HETATM   16  O1  UNL     1      19.211   1.782  51.374  1.00  0.00    -0.340 OA
HETATM   17  C14 UNL     1      18.872   0.806  50.138  1.00  0.00     0.192 A 
BRANCH  17  18
HETATM   18  C15 UNL     1      18.311   1.919  49.788  1.00  0.00     0.058 C 
BRANCH  18  19
HETATM   19  C16 UNL     1      17.580   2.843  48.910  1.00  0.00     0.279 C 
BRANCH  19  20
HETATM   20  N4  UNL     1      18.249   4.111  48.684  1.00  0.00     0.080 N 
HETATM   21  C17 UNL     1      18.266   4.851  49.906  1.00  0.00     0.309 C 
HETATM   22  C18 UNL     1      19.573   3.959  48.130  1.00  0.00     0.309 C 
ENDBRANCH  19  20
ENDBRANCH  18  19
ENDBRANCH  17  18
ENDBRANCH  10  15
BRANCH   9  23
HETATM   23  C10 UNL     1      18.286  -1.203  53.239  1.00  0.00     0.069 C 
BRANCH  23  24
HETATM   24  C11 UNL     1      17.976  -2.596  53.718  1.00  0.00     0.271 C 
BRANCH  24  25
HETATM   25  N3  UNL     1      16.625  -2.987  53.361  1.00  0.00     0.078 N 
HETATM   26  H10 UNL     1      15.968  -2.932  54.174  1.00  0.00     0.312 HD
HETATM   27  H11 UNL     1      16.262  -2.519  52.515  1.00  0.00     0.312 HD
ENDBRANCH  24  25
ENDBRANCH  23  24
ENDBRANCH   9  23
TORSDOF 8
ENDMDL
MODEL 6
REMARK VINA RESULT:      -7.1      4.359      8.070
REMARK  8 active torsions:
REMARK  status: ('A' for Active; 'I' for Inactive)
REMARK    1  A    between atoms: C2_2  and  C3_3 
REMARK    2  A    between atoms: C9_11  and  C10_12 
REMARK    3  A    between atoms: C10_12  and  C11_13 
REMARK    4  A    between atoms: C11_13  and  N3_14 
REMARK    5  A    between atoms: C12_15  and  C13_16 
REMARK    6  A    between atoms: C14_18  and  C15_19 
REMARK    7  A    between atoms: C15_19  and  C16_20 
REMARK    8  A    between atoms: C16_20  and  N4_21 
ROOT
HETATM    1  C3  UNL     1      25.711   3.999  49.408  1.00  0.00    -0.005 A 
HETATM    2  C4  UNL     1      24.358   4.203  49.546  1.00  0.00     0.072 A 
HETATM    3  C5  UNL     1      23.430   3.234  50.041  1.00  0.00     0.102 C 
HETATM    4  N1  UNL     1      22.680   2.453  50.420  1.00  0.00    -0.191 NA
HETATM    5  C6  UNL     1      23.828   5.443  49.183  1.00  0.00     0.140 A 
HETATM    6  N2  UNL     1      24.637   6.421  48.704  1.00  0.00    -0.259 NA
HETATM    7  C7  UNL     1      25.959   6.220  48.568  1.00  0.00     0.068 A 
HETATM    8  C8  UNL     1      26.667   7.274  48.081  1.00  0.00     0.040 A 
HETATM    9  C9  UNL     1      28.053   7.145  47.915  1.00  0.00    -0.041 A 
HETATM   10  C12 UNL     1      28.563   5.915  48.280  1.00  0.00     0.003 A 
HETATM   11  C19 UNL     1      27.831   4.856  48.772  1.00  0.00     0.029 A 
HETATM   12  C20 UNL     1      26.492   5.020  48.918  1.00  0.00     0.005 A 
ENDROOT
BRANCH   1  13
HETATM   13  C2  UNL     1      26.249   2.703  49.791  1.00  0.00    -0.013 C 
HETATM   14  C1  UNL     1      26.590   2.545  51.057  1.00  0.00     0.032 C 
ENDBRANCH   1  13
BRANCH  10  15
HETATM   15  C13 UNL     1      29.985   5.712  48.157  1.00  0.00     0.088 A 
HETATM   16  O1  UNL     1      30.486   4.648  47.723  1.00  0.00    -0.340 OA
HETATM   17  C14 UNL     1      31.383   5.902  48.191  1.00  0.00     0.192 A 
BRANCH  17  18
HETATM   18  C15 UNL     1      32.271   5.036  47.821  1.00  0.00     0.058 C 
BRANCH  18  19
HETATM   19  C16 UNL     1      33.618   4.524  47.535  1.00  0.00     0.279 C 
BRANCH  19  20
HETATM   20  N4  UNL     1      33.705   3.692  46.349  1.00  0.00     0.080 N 
HETATM   21  C17 UNL     1      33.008   4.334  45.279  1.00  0.00     0.309 C 
HETATM   22  C18 UNL     1      35.064   3.367  45.987  1.00  0.00     0.309 C 
ENDBRANCH  19  20
ENDBRANCH  18  19
ENDBRANCH  17  18
ENDBRANCH  10  15
BRANCH   9  23
HETATM   23  C10 UNL     1      28.813   8.274  47.380  1.00  0.00     0.069 C 
BRANCH  23  24
HETATM   24  C11 UNL     1      28.939   9.442  48.321  1.00  0.00     0.271 C 
BRANCH  24  25
HETATM   25  N3  UNL     1      29.497   9.033  49.596  1.00  0.00     0.078 N 
HETATM   26  H10 UNL     1      30.544   9.050  49.596  1.00  0.00     0.312 HD
HETATM   27  H11 UNL     1      29.085   9.519  50.409  1.00  0.00     0.312 HD
ENDBRANCH  24  25
ENDBRANCH  23  24
ENDBRANCH   9  23
TORSDOF 8
ENDMDL
MODEL 7
REMARK VINA RESULT:      -7.0      2.219      4.319
REMARK  8 active torsions:
REMARK  status: ('A' for Active; 'I' for Inactive)
REMARK    1  A    between atoms: C2_2  and  C3_3 
REMARK    2  A    between atoms: C9_11  and  C10_12 
REMARK    3  A    between atoms: C10_12  and  C11_13 
REMARK    4  A    between atoms: C11_13  and  N3_14 
REMARK    5  A    between atoms: C12_15  and  C13_16 
REMARK    6  A    between atoms: C14_18  and  C15_19 
REMARK    7  A    between atoms: C15_19  and  C16_20 
REMARK    8  A    between atoms: C16_20  and  N4_21 
ROOT
HETATM    1  C3  UNL     1      23.140   0.594  53.112  1.00  0.00    -0.005 A 
HETATM    2  C4  UNL     1      22.115   0.060  53.858  1.00  0.00     0.072 A 
HETATM    3  C5  UNL     1      22.223  -1.104  54.682  1.00  0.00     0.102 C 
HETATM    4  N1  UNL     1      22.300  -2.049  55.328  1.00  0.00    -0.191 NA
HETATM    5  C6  UNL     1      20.867   0.686  53.826  1.00  0.00     0.140 A 
HETATM    6  N2  UNL     1      20.676   1.797  53.071  1.00  0.00    -0.259 NA
HETATM    7  C7  UNL     1      21.678   2.318  52.341  1.00  0.00     0.068 A 
HETATM    8  C8  UNL     1      21.368   3.433  51.628  1.00  0.00     0.040 A 
HETATM    9  C9  UNL     1      22.360   4.039  50.845  1.00  0.00    -0.041 A 
HETATM   10  C12 UNL     1      23.589   3.411  50.888  1.00  0.00     0.003 A 
HETATM   11  C19 UNL     1      23.887   2.279  51.617  1.00  0.00     0.029 A 
HETATM   12  C20 UNL     1      22.899   1.722  52.361  1.00  0.00     0.005 A 
ENDROOT
BRANCH   1  13
HETATM   13  C2  UNL     1      24.434  -0.068  53.156  1.00  0.00    -0.013 C 
HETATM   14  C1  UNL     1      25.318   0.398  54.018  1.00  0.00     0.032 C 
ENDBRANCH   1  13
BRANCH  10  15
HETATM   15  C13 UNL     1      24.668   3.986  50.125  1.00  0.00     0.088 A 
HETATM   16  O1  UNL     1      25.215   5.072  50.431  1.00  0.00    -0.340 OA
HETATM   17  C14 UNL     1      25.662   4.206  49.148  1.00  0.00     0.192 A 
BRANCH  17  18
HETATM   18  C15 UNL     1      26.461   5.223  49.101  1.00  0.00     0.058 C 
BRANCH  18  19
HETATM   19  C16 UNL     1      27.406   6.168  48.491  1.00  0.00     0.279 C 
BRANCH  19  20
HETATM   20  N4  UNL     1      26.928   7.537  48.427  1.00  0.00     0.080 N 
HETATM   21  C17 UNL     1      25.722   7.573  47.662  1.00  0.00     0.309 C 
HETATM   22  C18 UNL     1      26.756   8.135  49.730  1.00  0.00     0.309 C 
ENDBRANCH  19  20
ENDBRANCH  18  19
ENDBRANCH  17  18
ENDBRANCH  10  15
BRANCH   9  23
HETATM   23  C10 UNL     1      22.024   5.232  50.069  1.00  0.00     0.069 C 
BRANCH  23  24
HETATM   24  C11 UNL     1      21.813   6.473  50.895  1.00  0.00     0.271 C 
BRANCH  24  25
HETATM   25  N3  UNL     1      23.078   7.073  51.276  1.00  0.00     0.078 N 
HETATM   26  H10 UNL     1      22.992   7.672  52.131  1.00  0.00     0.312 HD
HETATM   27  H11 UNL     1      23.861   6.401  51.330  1.00  0.00     0.312 HD
ENDBRANCH  24  25
ENDBRANCH  23  24
ENDBRANCH   9  23
TORSDOF 8
ENDMDL
MODEL 8
REMARK VINA RESULT:      -7.0      2.822      6.794
REMARK  8 active torsions:
REMARK  status: ('A' for Active; 'I' for Inactive)
REMARK    1  A    between atoms: C2_2  and  C3_3 
REMARK    2  A    between atoms: C9_11  and  C10_12 
REMARK    3  A    between atoms: C10_12  and  C11_13 
REMARK    4  A    between atoms: C11_13  and  N3_14 
REMARK    5  A    between atoms: C12_15  and  C13_16 
REMARK    6  A    between atoms: C14_18  and  C15_19 
REMARK    7  A    between atoms: C15_19  and  C16_20 
REMARK    8  A    between atoms: C16_20  and  N4_21 
ROOT
HETATM    1  C3  UNL     1      27.088  -0.295  53.336  1.00  0.00    -0.005 A 
HETATM    2  C4  UNL     1      28.380   0.076  53.629  1.00  0.00     0.072 A 
HETATM    3  C5  UNL     1      29.478  -0.827  53.778  1.00  0.00     0.102 C 
HETATM    4  N1  UNL     1      30.358  -1.550  53.917  1.00  0.00    -0.191 NA
HETATM    5  C6  UNL     1      28.662   1.434  53.796  1.00  0.00     0.140 A 
HETATM    6  N2  UNL     1      27.680   2.360  53.672  1.00  0.00    -0.259 NA
HETATM    7  C7  UNL     1      26.417   1.995  53.386  1.00  0.00     0.068 A 
HETATM    8  C8  UNL     1      25.520   3.012  53.283  1.00  0.00     0.040 A 
HETATM    9  C9  UNL     1      24.184   2.713  52.983  1.00  0.00    -0.041 A 
HETATM   10  C12 UNL     1      23.919   1.368  52.818  1.00  0.00     0.003 A 
HETATM   11  C19 UNL     1      24.841   0.349  52.927  1.00  0.00     0.029 A 
HETATM   12  C20 UNL     1      26.124   0.679  53.219  1.00  0.00     0.005 A 
ENDROOT
BRANCH   1  13
HETATM   13  C2  UNL     1      26.808  -1.713  53.163  1.00  0.00    -0.013 C 
HETATM   14  C1  UNL     1      26.819  -2.181  51.929  1.00  0.00     0.032 C 
ENDBRANCH   1  13
BRANCH  10  15
HETATM   15  C13 UNL     1      22.570   0.982  52.487  1.00  0.00     0.088 A 
HETATM   16  O1  UNL     1      22.135   0.968  51.311  1.00  0.00    -0.340 OA
HETATM   17  C14 UNL     1      21.228   0.556  52.578  1.00  0.00     0.192 A 
BRANCH  17  18
HETATM   18  C15 UNL     1      20.416   0.404  51.581  1.00  0.00     0.058 C 
BRANCH  18  19
HETATM   19  C16 UNL     1      19.118   0.355  50.894  1.00  0.00     0.279 C 
BRANCH  19  20
HETATM   20  N4  UNL     1      18.685   1.624  50.340  1.00  0.00     0.080 N 
HETATM   21  C17 UNL     1      18.554   2.573  51.399  1.00  0.00     0.309 C 
HETATM   22  C18 UNL     1      19.550   2.106  49.290  1.00  0.00     0.309 C 
ENDBRANCH  19  20
ENDBRANCH  18  19
ENDBRANCH  17  18
ENDBRANCH  10  15
BRANCH   9  23
HETATM   23  C10 UNL     1      23.216   3.805  52.884  1.00  0.00     0.069 C 
BRANCH  23  24
HETATM   24  C11 UNL     1      23.472   4.763  51.751  1.00  0.00     0.271 C 
BRANCH  24  25
HETATM   25  N3  UNL     1      23.960   6.039  52.241  1.00  0.00     0.078 N 
HETATM   26  H10 UNL     1      24.718   5.928  52.955  1.00  0.00     0.312 HD
HETATM   27  H11 UNL     1      24.203   6.710  51.494  1.00  0.00     0.312 HD
ENDBRANCH  24  25
ENDBRANCH  23  24
ENDBRANCH   9  23
TORSDOF 8
ENDMDL
MODEL 9
REMARK VINA RESULT:      -6.7      2.874      5.563
REMARK  8 active torsions:
REMARK  status: ('A' for Active; 'I' for Inactive)
REMARK    1  A    between atoms: C2_2  and  C3_3 
REMARK    2  A    between atoms: C9_11  and  C10_12 
REMARK    3  A    between atoms: C10_12  and  C11_13 
REMARK    4  A    between atoms: C11_13  and  N3_14 
REMARK    5  A    between atoms: C12_15  and  C13_16 
REMARK    6  A    between atoms: C14_18  and  C15_19 
REMARK    7  A    between atoms: C15_19  and  C16_20 
REMARK    8  A    between atoms: C16_20  and  N4_21 
ROOT
HETATM    1  C3  UNL     1      24.508   0.819  52.621  1.00  0.00    -0.005 A 
HETATM    2  C4  UNL     1      25.424   0.366  53.541  1.00  0.00     0.072 A 
HETATM    3  C5  UNL     1      25.164  -0.624  54.538  1.00  0.00     0.102 C 
HETATM    4  N1  UNL     1      24.952  -1.405  55.352  1.00  0.00    -0.191 NA
HETATM    5  C6  UNL     1      26.715   0.901  53.516  1.00  0.00     0.140 A 
HETATM    6  N2  UNL     1      27.049   1.845  52.603  1.00  0.00    -0.259 NA
HETATM    7  C7  UNL     1      26.152   2.287  51.705  1.00  0.00     0.068 A 
HETATM    8  C8  UNL     1      26.604   3.233  50.838  1.00  0.00     0.040 A 
HETATM    9  C9  UNL     1      25.729   3.741  49.868  1.00  0.00    -0.041 A 
HETATM   10  C12 UNL     1      24.458   3.203  49.902  1.00  0.00     0.003 A 
HETATM   11  C19 UNL     1      24.016   2.245  50.789  1.00  0.00     0.029 A 
HETATM   12  C20 UNL     1      24.892   1.779  51.713  1.00  0.00     0.005 A 
ENDROOT
BRANCH   1  13
HETATM   13  C2  UNL     1      23.167   0.253  52.657  1.00  0.00    -0.013 C 
HETATM   14  C1  UNL     1      22.262   0.901  53.366  1.00  0.00     0.032 C 
ENDBRANCH   1  13
BRANCH  10  15
HETATM   15  C13 UNL     1      23.506   3.661  48.921  1.00  0.00     0.088 A 
HETATM   16  O1  UNL     1      22.873   2.881  48.172  1.00  0.00    -0.340 OA
HETATM   17  C14 UNL     1      22.688   4.481  48.116  1.00  0.00     0.192 A 
BRANCH  17  18
HETATM   18  C15 UNL     1      21.869   4.065  47.203  1.00  0.00     0.058 C 
BRANCH  18  19
HETATM   19  C16 UNL     1      20.617   4.015  46.436  1.00  0.00     0.279 C 
BRANCH  19  20
HETATM   20  N4  UNL     1      19.472   3.536  47.189  1.00  0.00     0.080 N 
HETATM   21  C17 UNL     1      19.106   4.522  48.156  1.00  0.00     0.309 C 
HETATM   22  C18 UNL     1      18.357   3.170  46.347  1.00  0.00     0.309 C 
ENDBRANCH  19  20
ENDBRANCH  18  19
ENDBRANCH  17  18
ENDBRANCH  10  15
BRANCH   9  23
HETATM   23  C10 UNL     1      26.212   4.766  48.943  1.00  0.00     0.069 C 
BRANCH  23  24
HETATM   24  C11 UNL     1      27.700   4.752  48.719  1.00  0.00     0.271 C 
BRANCH  24  25
HETATM   25  N3  UNL     1      28.263   6.085  48.836  1.00  0.00     0.078 N 
HETATM   26  H10 UNL     1      27.975   6.708  48.045  1.00  0.00     0.312 HD
HETATM   27  H11 UNL     1      28.126   6.518  49.763  1.00  0.00     0.312 HD
ENDBRANCH  24  25
ENDBRANCH  23  24
ENDBRANCH   9  23
TORSDOF 8
ENDMDL
