MODEL 1
REMARK VINA RESULT:      -8.3      0.000      0.000
REMARK  7 active torsions:
REMARK  status: ('A' for Active; 'I' for Inactive)
REMARK    1  A    between atoms: O1_2  and  C2_3 
REMARK    2  A    between atoms: C6_9  and  N3_10 
REMARK    3  A    between atoms: N3_10  and  C7_11 
REMARK    4  A    between atoms: C10_14  and  C11_15 
REMARK    5  A    between atoms: C11_15  and  S1_16 
REMARK    6  A    between atoms: S1_16  and  C12_17 
REMARK    7  A    between atoms: C12_17  and  C13_18 
REMARK       I    between atoms: C13_18  and  N4_19 
ROOT
HETATM    1  N3  UNL     1      25.125   3.462  50.220  1.00  0.00    -0.340 N 
HETATM    2  H6  UNL     1      24.149   3.462  49.864  1.00  0.00     0.167 HD
ENDROOT
BRANCH   1   3
HETATM    3  C6  UNL     1      25.639   2.597  51.220  1.00  0.00     0.142 A 
HETATM    4  N2  UNL     1      26.921   2.636  51.600  1.00  0.00    -0.224 NA
HETATM    5  C5  UNL     1      27.437   1.849  52.540  1.00  0.00     0.236 A 
HETATM    6  N1  UNL     1      26.633   0.966  53.142  1.00  0.00    -0.241 NA
HETATM    7  C4  UNL     1      25.324   0.841  52.835  1.00  0.00     0.074 A 
HETATM    8  C3  UNL     1      24.552  -0.084  53.485  1.00  0.00     0.070 A 
HETATM    9  C16 UNL     1      24.834   1.680  51.853  1.00  0.00     0.039 A 
HETATM   10  C2  UNL     1      23.213  -0.233  53.187  1.00  0.00     0.076 A 
HETATM   11  C18 UNL     1      22.721   0.604  52.206  1.00  0.00    -0.028 A 
HETATM   12  C17 UNL     1      23.504   1.532  51.557  1.00  0.00     0.027 A 
HETATM   13  C19 UNL     1      21.282   0.485  51.838  1.00  0.00     0.051 C 
BRANCH  10  14
HETATM   14  O1  UNL     1      22.357  -1.140  53.791  1.00  0.00    -0.355 OA
HETATM   15  C1  UNL     1      22.523  -1.411  55.156  1.00  0.00     0.210 C 
ENDBRANCH  10  14
ENDBRANCH   1   3
BRANCH   1  16
HETATM   16  C7  UNL     1      25.884   4.460  49.556  1.00  0.00     0.033 A 
HETATM   17  C8  UNL     1      25.395   5.736  49.286  1.00  0.00     0.030 A 
HETATM   18  C9  UNL     1      26.066   6.749  48.641  1.00  0.00     0.010 A 
HETATM   19  C10 UNL     1      27.349   6.475  48.223  1.00  0.00    -0.049 A 
HETATM   20  C14 UNL     1      27.917   5.240  48.446  1.00  0.00     0.010 A 
HETATM   21  C15 UNL     1      27.171   4.280  49.100  1.00  0.00     0.030 A 
BRANCH  19  22
HETATM   22  C11 UNL     1      28.110   7.535  47.550  1.00  0.00     0.112 C 
BRANCH  22  23
HETATM   23  S1  UNL     1      29.595   8.003  48.445  1.00  0.00    -0.155 SA
BRANCH  23  24
HETATM   24  C12 UNL     1      29.419   9.624  49.239  1.00  0.00     0.176 C 
BRANCH  24  25
HETATM   25  C13 UNL     1      28.071   9.812  49.843  1.00  0.00     0.224 C 
HETATM   26  N4  UNL     1      27.493   9.153  50.969  1.00  0.00    -0.369 N 
HETATM   27  H13 UNL     1      26.775   9.687  51.483  1.00  0.00     0.159 HD
HETATM   28  H14 UNL     1      27.746   8.195  51.291  1.00  0.00     0.159 HD
HETATM   29  O2  UNL     1      27.420  10.686  49.216  1.00  0.00    -0.273 OA
ENDBRANCH  24  25
ENDBRANCH  23  24
ENDBRANCH  22  23
ENDBRANCH  19  22
ENDBRANCH   1  16
TORSDOF 7
ENDMDL
MODEL 2
REMARK VINA RESULT:      -8.2      2.091      2.211
REMARK  7 active torsions:
REMARK  status: ('A' for Active; 'I' for Inactive)
REMARK    1  A    between atoms: O1_2  and  C2_3 
REMARK    2  A    between atoms: C6_9  and  N3_10 
REMARK    3  A    between atoms: N3_10  and  C7_11 
REMARK    4  A    between atoms: C10_14  and  C11_15 
REMARK    5  A    between atoms: C11_15  and  S1_16 
REMARK    6  A    between atoms: S1_16  and  C12_17 
REMARK    7  A    between atoms: C12_17  and  C13_18 
REMARK       I    between atoms: C13_18  and  N4_19 
ROOT
HETATM    1  N3  UNL     1      25.333   3.432  50.014  1.00  0.00    -0.340 N 
HETATM    2  H6  UNL     1      24.436   3.404  49.492  1.00  0.00     0.167 HD
ENDROOT
BRANCH   1   3
HETATM    3  C6  UNL     1      25.698   2.565  51.077  1.00  0.00     0.142 A 
HETATM    4  N2  UNL     1      26.944   2.526  51.564  1.00  0.00    -0.224 NA
HETATM    5  C5  UNL     1      27.320   1.735  52.564  1.00  0.00     0.236 A 
HETATM    6  N1  UNL     1      26.407   0.930  53.119  1.00  0.00    -0.241 NA
HETATM    7  C4  UNL     1      25.122   0.888  52.704  1.00  0.00     0.074 A 
HETATM    8  C3  UNL     1      24.233   0.041  53.310  1.00  0.00     0.070 A 
HETATM    9  C16 UNL     1      24.778   1.728  51.662  1.00  0.00     0.039 A 
HETATM   10  C2  UNL     1      22.917  -0.022  52.902  1.00  0.00     0.076 A 
HETATM   11  C18 UNL     1      22.571   0.815  51.861  1.00  0.00    -0.028 A 
HETATM   12  C17 UNL     1      23.470   1.665  51.258  1.00  0.00     0.027 A 
HETATM   13  C19 UNL     1      21.163   0.786  51.374  1.00  0.00     0.051 C 
BRANCH  10  14
HETATM   14  O1  UNL     1      21.950  -0.848  53.454  1.00  0.00    -0.355 OA
HETATM   15  C1  UNL     1      21.927  -1.015  54.846  1.00  0.00     0.210 C 
ENDBRANCH  10  14
ENDBRANCH   1   3
BRANCH   1  16
HETATM   16  C7  UNL     1      26.157   4.470  49.509  1.00  0.00     0.033 A 
HETATM   17  C8  UNL     1      25.816   5.819  49.582  1.00  0.00     0.030 A 
HETATM   18  C9  UNL     1      26.557   6.877  49.108  1.00  0.00     0.010 A 
HETATM   19  C10 UNL     1      27.755   6.572  48.501  1.00  0.00    -0.049 A 
HETATM   20  C14 UNL     1      28.175   5.266  48.381  1.00  0.00     0.010 A 
HETATM   21  C15 UNL     1      27.368   4.265  48.885  1.00  0.00     0.030 A 
BRANCH  19  22
HETATM   22  C11 UNL     1      28.588   7.672  48.000  1.00  0.00     0.112 C 
BRANCH  22  23
HETATM   23  S1  UNL     1      30.126   7.105  47.267  1.00  0.00    -0.155 SA
BRANCH  23  24
HETATM   24  C12 UNL     1      31.499   7.168  48.450  1.00  0.00     0.176 C 
BRANCH  24  25
HETATM   25  C13 UNL     1      31.627   5.908  49.232  1.00  0.00     0.224 C 
HETATM   26  N4  UNL     1      31.628   5.726  50.648  1.00  0.00    -0.369 N 
HETATM   27  H13 UNL     1      31.298   4.808  50.983  1.00  0.00     0.159 HD
HETATM   28  H14 UNL     1      31.934   6.444  51.338  1.00  0.00     0.159 HD
HETATM   29  O2  UNL     1      31.743   4.918  48.465  1.00  0.00    -0.273 OA
ENDBRANCH  24  25
ENDBRANCH  23  24
ENDBRANCH  22  23
ENDBRANCH  19  22
ENDBRANCH   1  16
TORSDOF 7
ENDMDL
MODEL 3
REMARK VINA RESULT:      -8.2      1.396      1.727
REMARK  7 active torsions:
REMARK  status: ('A' for Active; 'I' for Inactive)
REMARK    1  A    between atoms: O1_2  and  C2_3 
REMARK    2  A    between atoms: C6_9  and  N3_10 
REMARK    3  A    between atoms: N3_10  and  C7_11 
REMARK    4  A    between atoms: C10_14  and  C11_15 
REMARK    5  A    between atoms: C11_15  and  S1_16 
REMARK    6  A    between atoms: S1_16  and  C12_17 
REMARK    7  A    between atoms: C12_17  and  C13_18 
REMARK       I    between atoms: C13_18  and  N4_19 
ROOT
HETATM    1  N3  UNL     1      25.454   3.181  50.036  1.00  0.00    -0.340 N 
HETATM    2  H6  UNL     1      24.635   2.949  49.439  1.00  0.00     0.167 HD
ENDROOT
BRANCH   1   3
HETATM    3  C6  UNL     1      25.890   2.439  51.164  1.00  0.00     0.142 A 
HETATM    4  N2  UNL     1      27.146   2.513  51.619  1.00  0.00    -0.224 NA
HETATM    5  C5  UNL     1      27.588   1.841  52.677  1.00  0.00     0.236 A 
HETATM    6  N1  UNL     1      26.735   1.043  53.327  1.00  0.00    -0.241 NA
HETATM    7  C4  UNL     1      25.446   0.893  52.953  1.00  0.00     0.074 A 
HETATM    8  C3  UNL     1      24.620   0.058  53.658  1.00  0.00     0.070 A 
HETATM    9  C16 UNL     1      25.032   1.611  51.848  1.00  0.00     0.039 A 
HETATM   10  C2  UNL     1      23.301  -0.115  53.293  1.00  0.00     0.076 A 
HETATM   11  C18 UNL     1      22.885   0.601  52.189  1.00  0.00    -0.028 A 
HETATM   12  C17 UNL     1      23.721   1.439  51.486  1.00  0.00     0.027 A 
HETATM   13  C19 UNL     1      21.471   0.450  51.745  1.00  0.00     0.051 C 
BRANCH  10  14
HETATM   14  O1  UNL     1      22.394  -0.937  53.944  1.00  0.00    -0.355 OA
HETATM   15  C1  UNL     1      22.695  -1.368  55.244  1.00  0.00     0.210 C 
ENDBRANCH  10  14
ENDBRANCH   1   3
BRANCH   1  16
HETATM   16  C7  UNL     1      26.085   4.358  49.558  1.00  0.00     0.033 A 
HETATM   17  C8  UNL     1      27.309   4.352  48.895  1.00  0.00     0.030 A 
HETATM   18  C9  UNL     1      27.984   5.449  48.413  1.00  0.00     0.010 A 
HETATM   19  C10 UNL     1      27.389   6.677  48.605  1.00  0.00    -0.049 A 
HETATM   20  C14 UNL     1      26.178   6.782  49.252  1.00  0.00     0.010 A 
HETATM   21  C15 UNL     1      25.570   5.628  49.704  1.00  0.00     0.030 A 
BRANCH  19  22
HETATM   22  C11 UNL     1      28.064   7.873  48.087  1.00  0.00     0.112 C 
BRANCH  22  23
HETATM   23  S1  UNL     1      29.597   7.494  47.231  1.00  0.00    -0.155 SA
BRANCH  23  24
HETATM   24  C12 UNL     1      30.953   8.572  47.770  1.00  0.00     0.176 C 
BRANCH  24  25
HETATM   25  C13 UNL     1      31.002   8.716  49.251  1.00  0.00     0.224 C 
HETATM   26  N4  UNL     1      30.476   9.761  50.069  1.00  0.00    -0.369 N 
HETATM   27  H13 UNL     1      30.226   9.494  51.034  1.00  0.00     0.159 HD
HETATM   28  H14 UNL     1      30.336  10.746  49.757  1.00  0.00     0.159 HD
HETATM   29  O2  UNL     1      31.605   7.744  49.774  1.00  0.00    -0.273 OA
ENDBRANCH  24  25
ENDBRANCH  23  24
ENDBRANCH  22  23
ENDBRANCH  19  22
ENDBRANCH   1  16
TORSDOF 7
ENDMDL
MODEL 4
REMARK VINA RESULT:      -8.1      3.148      8.348
REMARK  7 active torsions:
REMARK  status: ('A' for Active; 'I' for Inactive)
REMARK    1  A    between atoms: O1_2  and  C2_3 
REMARK    2  A    between atoms: C6_9  and  N3_10 
REMARK    3  A    between atoms: N3_10  and  C7_11 
REMARK    4  A    between atoms: C10_14  and  C11_15 
REMARK    5  A    between atoms: C11_15  and  S1_16 
REMARK    6  A    between atoms: S1_16  and  C12_17 
REMARK    7  A    between atoms: C12_17  and  C13_18 
REMARK       I    between atoms: C13_18  and  N4_19 
ROOT
HETATM    1  N3  UNL     1      24.858   4.218  49.337  1.00  0.00    -0.340 N 
HETATM    2  H6  UNL     1      24.626   3.827  48.403  1.00  0.00     0.167 HD
ENDROOT
BRANCH   1   3
HETATM    3  C6  UNL     1      24.922   5.598  49.660  1.00  0.00     0.142 A 
HETATM    4  N2  UNL     1      23.918   6.229  50.279  1.00  0.00    -0.224 NA
HETATM    5  C5  UNL     1      23.946   7.517  50.607  1.00  0.00     0.236 A 
HETATM    6  N1  UNL     1      25.037   8.229  50.302  1.00  0.00    -0.241 NA
HETATM    7  C4  UNL     1      26.108   7.692  49.676  1.00  0.00     0.074 A 
HETATM    8  C3  UNL     1      27.195   8.473  49.388  1.00  0.00     0.070 A 
HETATM    9  C16 UNL     1      26.032   6.351  49.356  1.00  0.00     0.039 A 
HETATM   10  C2  UNL     1      28.298   7.949  48.746  1.00  0.00     0.076 A 
HETATM   11  C18 UNL     1      28.225   6.609  48.425  1.00  0.00    -0.028 A 
HETATM   12  C17 UNL     1      27.129   5.831  48.719  1.00  0.00     0.027 A 
HETATM   13  C19 UNL     1      29.386   5.990  47.726  1.00  0.00     0.051 C 
BRANCH  10  14
HETATM   14  O1  UNL     1      29.441   8.661  48.415  1.00  0.00    -0.355 OA
HETATM   15  C1  UNL     1      29.989   9.530  49.368  1.00  0.00     0.210 C 
ENDBRANCH  10  14
ENDBRANCH   1   3
BRANCH   1  16
HETATM   16  C7  UNL     1      25.101   3.167  50.258  1.00  0.00     0.033 A 
HETATM   17  C8  UNL     1      24.084   2.457  50.891  1.00  0.00     0.030 A 
HETATM   18  C9  UNL     1      24.242   1.435  51.798  1.00  0.00     0.010 A 
HETATM   19  C10 UNL     1      25.535   1.079  52.111  1.00  0.00    -0.049 A 
HETATM   20  C14 UNL     1      26.606   1.726  51.536  1.00  0.00     0.010 A 
HETATM   21  C15 UNL     1      26.355   2.741  50.635  1.00  0.00     0.030 A 
BRANCH  19  22
HETATM   22  C11 UNL     1      25.750  -0.022  53.059  1.00  0.00     0.112 C 
BRANCH  22  23
HETATM   23  S1  UNL     1      26.516   0.517  54.592  1.00  0.00    -0.155 SA
BRANCH  23  24
HETATM   24  C12 UNL     1      28.232  -0.056  54.724  1.00  0.00     0.176 C 
BRANCH  24  25
HETATM   25  C13 UNL     1      29.194   0.900  54.108  1.00  0.00     0.224 C 
HETATM   26  N4  UNL     1      29.188   2.327  54.147  1.00  0.00    -0.369 N 
HETATM   27  H13 UNL     1      30.110   2.782  54.054  1.00  0.00     0.159 HD
HETATM   28  H14 UNL     1      28.336   2.915  54.259  1.00  0.00     0.159 HD
HETATM   29  O2  UNL     1      30.100   0.285  53.492  1.00  0.00    -0.273 OA
ENDBRANCH  24  25
ENDBRANCH  23  24
ENDBRANCH  22  23
ENDBRANCH  19  22
ENDBRANCH   1  16
TORSDOF 7
ENDMDL
MODEL 5
REMARK VINA RESULT:      -7.9      2.632      4.028
REMARK  7 active torsions:
REMARK  status: ('A' for Active; 'I' for Inactive)
REMARK    1  A    between atoms: O1_2  and  C2_3 
REMARK    2  A    between atoms: C6_9  and  N3_10 
REMARK    3  A    between atoms: N3_10  and  C7_11 
REMARK    4  A    between atoms: C10_14  and  C11_15 
REMARK    5  A    between atoms: C11_15  and  S1_16 
REMARK    6  A    between atoms: S1_16  and  C12_17 
REMARK    7  A    between atoms: C12_17  and  C13_18 
REMARK       I    between atoms: C13_18  and  N4_19 
ROOT
HETATM    1  N3  UNL     1      24.280   3.652  52.884  1.00  0.00    -0.340 N 
HETATM    2  H6  UNL     1      24.426   4.341  53.648  1.00  0.00     0.167 HD
ENDROOT
BRANCH   1   3
HETATM    3  C6  UNL     1      24.206   2.244  53.044  1.00  0.00     0.142 A 
HETATM    4  N2  UNL     1      23.056   1.574  52.907  1.00  0.00    -0.224 NA
HETATM    5  C5  UNL     1      22.949   0.256  53.040  1.00  0.00     0.236 A 
HETATM    6  N1  UNL     1      24.050  -0.446  53.328  1.00  0.00    -0.241 NA
HETATM    7  C4  UNL     1      25.262   0.129  53.490  1.00  0.00     0.074 A 
HETATM    8  C3  UNL     1      26.354  -0.643  53.787  1.00  0.00     0.070 A 
HETATM    9  C16 UNL     1      25.323   1.501  53.342  1.00  0.00     0.039 A 
HETATM   10  C2  UNL     1      27.600  -0.079  53.960  1.00  0.00     0.076 A 
HETATM   11  C18 UNL     1      27.664   1.292  53.814  1.00  0.00    -0.028 A 
HETATM   12  C17 UNL     1      26.562   2.060  53.514  1.00  0.00     0.027 A 
HETATM   13  C19 UNL     1      28.985   1.957  53.995  1.00  0.00     0.051 C 
BRANCH  10  14
HETATM   14  O1  UNL     1      28.758  -0.779  54.262  1.00  0.00    -0.355 OA
HETATM   15  C1  UNL     1      29.240  -1.710  53.331  1.00  0.00     0.210 C 
ENDBRANCH  10  14
ENDBRANCH   1   3
BRANCH   1  16
HETATM   16  C7  UNL     1      24.160   4.324  51.641  1.00  0.00     0.033 A 
HETATM   17  C8  UNL     1      23.223   5.327  51.403  1.00  0.00     0.030 A 
HETATM   18  C9  UNL     1      23.042   6.015  50.225  1.00  0.00     0.010 A 
HETATM   19  C10 UNL     1      23.871   5.680  49.178  1.00  0.00    -0.049 A 
HETATM   20  C14 UNL     1      24.828   4.699  49.320  1.00  0.00     0.010 A 
HETATM   21  C15 UNL     1      24.940   4.059  50.537  1.00  0.00     0.030 A 
BRANCH  19  22
HETATM   22  C11 UNL     1      23.728   6.404  47.909  1.00  0.00     0.112 C 
BRANCH  22  23
HETATM   23  S1  UNL     1      24.609   7.969  47.896  1.00  0.00    -0.155 SA
BRANCH  23  24
HETATM   24  C12 UNL     1      26.406   7.730  47.853  1.00  0.00     0.176 C 
BRANCH  24  25
HETATM   25  C13 UNL     1      27.035   7.952  49.184  1.00  0.00     0.224 C 
HETATM   26  N4  UNL     1      26.441   7.885  50.480  1.00  0.00    -0.369 N 
HETATM   27  H13 UNL     1      27.078   7.642  51.255  1.00  0.00     0.159 HD
HETATM   28  H14 UNL     1      25.434   8.062  50.681  1.00  0.00     0.159 HD
HETATM   29  O2  UNL     1      28.255   8.230  49.059  1.00  0.00    -0.273 OA
ENDBRANCH  24  25
ENDBRANCH  23  24
ENDBRANCH  22  23
ENDBRANCH  19  22
ENDBRANCH   1  16
TORSDOF 7
ENDMDL
MODEL 6
REMARK VINA RESULT:      -7.9      3.819      9.051
REMARK  7 active torsions:
REMARK  status: ('A' for Active; 'I' for Inactive)
REMARK    1  A    between atoms: O1_2  and  C2_3 
REMARK    2  A    between atoms: C6_9  and  N3_10 
REMARK    3  A    between atoms: N3_10  and  C7_11 
REMARK    4  A    between atoms: C10_14  and  C11_15 
REMARK    5  A    between atoms: C11_15  and  S1_16 
REMARK    6  A    between atoms: S1_16  and  C12_17 
REMARK    7  A    between atoms: C12_17  and  C13_18 
REMARK       I    between atoms: C13_18  and  N4_19 
ROOT
HETATM    1  N3  UNL     1      27.934   6.658  47.882  1.00  0.00    -0.340 N 
HETATM    2  H6  UNL     1      27.599   6.662  46.899  1.00  0.00     0.167 HD
ENDROOT
BRANCH   1   3
HETATM    3  C6  UNL     1      29.045   7.387  48.380  1.00  0.00     0.142 A 
HETATM    4  N2  UNL     1      28.910   8.606  48.915  1.00  0.00    -0.224 NA
HETATM    5  C5  UNL     1      29.924   9.316  49.400  1.00  0.00     0.236 A 
HETATM    6  N1  UNL     1      31.152   8.787  49.352  1.00  0.00    -0.241 NA
HETATM    7  C4  UNL     1      31.401   7.565  48.831  1.00  0.00     0.074 A 
HETATM    8  C3  UNL     1      32.681   7.079  48.808  1.00  0.00     0.070 A 
HETATM    9  C16 UNL     1      30.316   6.866  48.341  1.00  0.00     0.039 A 
HETATM   10  C2  UNL     1      32.961   5.836  48.278  1.00  0.00     0.076 A 
HETATM   11  C18 UNL     1      31.879   5.135  47.787  1.00  0.00    -0.028 A 
HETATM   12  C17 UNL     1      30.595   5.631  47.815  1.00  0.00     0.027 A 
HETATM   13  C19 UNL     1      32.123   3.788  47.198  1.00  0.00     0.051 C 
BRANCH  10  14
HETATM   14  O1  UNL     1      34.222   5.263  48.212  1.00  0.00    -0.355 OA
HETATM   15  C1  UNL     1      35.280   5.893  48.882  1.00  0.00     0.210 C 
ENDBRANCH  10  14
ENDBRANCH   1   3
BRANCH   1  16
HETATM   16  C7  UNL     1      27.114   5.810  48.671  1.00  0.00     0.033 A 
HETATM   17  C8  UNL     1      27.365   4.451  48.843  1.00  0.00     0.030 A 
HETATM   18  C9  UNL     1      26.612   3.568  49.582  1.00  0.00     0.010 A 
HETATM   19  C10 UNL     1      25.502   4.079  50.216  1.00  0.00    -0.049 A 
HETATM   20  C14 UNL     1      25.174   5.412  50.103  1.00  0.00     0.010 A 
HETATM   21  C15 UNL     1      25.985   6.227  49.340  1.00  0.00     0.030 A 
BRANCH  19  22
HETATM   22  C11 UNL     1      24.683   3.176  51.035  1.00  0.00     0.112 C 
BRANCH  22  23
HETATM   23  S1  UNL     1      25.606   1.766  51.655  1.00  0.00    -0.155 SA
BRANCH  23  24
HETATM   24  C12 UNL     1      25.138   1.352  53.358  1.00  0.00     0.176 C 
BRANCH  24  25
HETATM   25  C13 UNL     1      26.323   1.062  54.212  1.00  0.00     0.224 C 
HETATM   26  N4  UNL     1      26.676  -0.152  54.875  1.00  0.00    -0.369 N 
HETATM   27  H13 UNL     1      27.684  -0.297  55.041  1.00  0.00     0.159 HD
HETATM   28  H14 UNL     1      25.996  -0.876  55.190  1.00  0.00     0.159 HD
HETATM   29  O2  UNL     1      27.060   2.075  54.310  1.00  0.00    -0.273 OA
ENDBRANCH  24  25
ENDBRANCH  23  24
ENDBRANCH  22  23
ENDBRANCH  19  22
ENDBRANCH   1  16
TORSDOF 7
ENDMDL
MODEL 7
REMARK VINA RESULT:      -7.6      3.240      8.948
REMARK  7 active torsions:
REMARK  status: ('A' for Active; 'I' for Inactive)
REMARK    1  A    between atoms: O1_2  and  C2_3 
REMARK    2  A    between atoms: C6_9  and  N3_10 
REMARK    3  A    between atoms: N3_10  and  C7_11 
REMARK    4  A    between atoms: C10_14  and  C11_15 
REMARK    5  A    between atoms: C11_15  and  S1_16 
REMARK    6  A    between atoms: S1_16  and  C12_17 
REMARK    7  A    between atoms: C12_17  and  C13_18 
REMARK       I    between atoms: C13_18  and  N4_19 
ROOT
HETATM    1  N3  UNL     1      26.308   4.071  48.896  1.00  0.00    -0.340 N 
HETATM    2  H6  UNL     1      26.572   3.466  48.094  1.00  0.00     0.167 HD
ENDROOT
BRANCH   1   3
HETATM    3  C6  UNL     1      26.436   5.483  48.943  1.00  0.00     0.142 A 
HETATM    4  N2  UNL     1      25.412   6.277  49.274  1.00  0.00    -0.224 NA
HETATM    5  C5  UNL     1      25.496   7.602  49.338  1.00  0.00     0.236 A 
HETATM    6  N1  UNL     1      26.668   8.181  49.055  1.00  0.00    -0.241 NA
HETATM    7  C4  UNL     1      27.766   7.475  48.707  1.00  0.00     0.074 A 
HETATM    8  C3  UNL     1      28.939   8.124  48.426  1.00  0.00     0.070 A 
HETATM    9  C16 UNL     1      27.630   6.101  48.655  1.00  0.00     0.039 A 
HETATM   10  C2  UNL     1      30.072   7.425  48.065  1.00  0.00     0.076 A 
HETATM   11  C18 UNL     1      29.938   6.052  48.012  1.00  0.00    -0.028 A 
HETATM   12  C17 UNL     1      28.757   5.408  48.297  1.00  0.00     0.027 A 
HETATM   13  C19 UNL     1      31.129   5.246  47.622  1.00  0.00     0.051 C 
BRANCH  10  14
HETATM   14  O1  UNL     1      31.298   7.996  47.763  1.00  0.00    -0.355 OA
HETATM   15  C1  UNL     1      31.364   8.930  46.720  1.00  0.00     0.210 C 
ENDBRANCH  10  14
ENDBRANCH   1   3
BRANCH   1  16
HETATM   16  C7  UNL     1      25.794   3.278  49.954  1.00  0.00     0.033 A 
HETATM   17  C8  UNL     1      26.599   2.677  50.918  1.00  0.00     0.030 A 
HETATM   18  C9  UNL     1      26.174   1.890  51.964  1.00  0.00     0.010 A 
HETATM   19  C10 UNL     1      24.818   1.676  52.067  1.00  0.00    -0.049 A 
HETATM   20  C14 UNL     1      23.943   2.229  51.159  1.00  0.00     0.010 A 
HETATM   21  C15 UNL     1      24.456   3.006  50.139  1.00  0.00     0.030 A 
BRANCH  19  22
HETATM   22  C11 UNL     1      24.319   0.860  53.181  1.00  0.00     0.112 C 
BRANCH  22  23
HETATM   23  S1  UNL     1      25.481  -0.410  53.692  1.00  0.00    -0.155 SA
BRANCH  23  24
HETATM   24  C12 UNL     1      26.559   0.164  55.034  1.00  0.00     0.176 C 
BRANCH  24  25
HETATM   25  C13 UNL     1      28.001   0.068  54.677  1.00  0.00     0.224 C 
HETATM   26  N4  UNL     1      28.688  -0.978  53.990  1.00  0.00    -0.369 N 
HETATM   27  H13 UNL     1      29.534  -0.694  53.471  1.00  0.00     0.159 HD
HETATM   28  H14 UNL     1      28.394  -1.977  53.984  1.00  0.00     0.159 HD
HETATM   29  O2  UNL     1      28.625   1.087  55.069  1.00  0.00    -0.273 OA
ENDBRANCH  24  25
ENDBRANCH  23  24
ENDBRANCH  22  23
ENDBRANCH  19  22
ENDBRANCH   1  16
TORSDOF 7
ENDMDL
MODEL 8
REMARK VINA RESULT:      -7.5      6.029      9.278
REMARK  7 active torsions:
REMARK  status: ('A' for Active; 'I' for Inactive)
REMARK    1  A    between atoms: O1_2  and  C2_3 
REMARK    2  A    between atoms: C6_9  and  N3_10 
REMARK    3  A    between atoms: N3_10  and  C7_11 
REMARK    4  A    between atoms: C10_14  and  C11_15 
REMARK    5  A    between atoms: C11_15  and  S1_16 
REMARK    6  A    between atoms: S1_16  and  C12_17 
REMARK    7  A    between atoms: C12_17  and  C13_18 
REMARK       I    between atoms: C13_18  and  N4_19 
ROOT
HETATM    1  N3  UNL     1      21.439   1.469  52.019  1.00  0.00    -0.340 N 
HETATM    2  H6  UNL     1      22.009   2.062  51.385  1.00  0.00     0.167 HD
ENDROOT
BRANCH   1   3
HETATM    3  C6  UNL     1      21.950   0.598  53.016  1.00  0.00     0.142 A 
HETATM    4  N2  UNL     1      21.148  -0.057  53.864  1.00  0.00    -0.224 NA
HETATM    5  C5  UNL     1      21.588  -0.888  54.804  1.00  0.00     0.236 A 
HETATM    6  N1  UNL     1      22.907  -1.085  54.913  1.00  0.00    -0.241 NA
HETATM    7  C4  UNL     1      23.805  -0.475  54.110  1.00  0.00     0.074 A 
HETATM    8  C3  UNL     1      25.144  -0.714  54.272  1.00  0.00     0.070 A 
HETATM    9  C16 UNL     1      23.300   0.380  53.149  1.00  0.00     0.039 A 
HETATM   10  C2  UNL     1      26.081  -0.101  53.466  1.00  0.00     0.076 A 
HETATM   11  C18 UNL     1      25.579   0.754  52.506  1.00  0.00    -0.028 A 
HETATM   12  C17 UNL     1      24.232   0.989  52.349  1.00  0.00     0.027 A 
HETATM   13  C19 UNL     1      26.545   1.449  51.611  1.00  0.00     0.051 C 
BRANCH  10  14
HETATM   14  O1  UNL     1      27.452  -0.282  53.558  1.00  0.00    -0.355 OA
HETATM   15  C1  UNL     1      28.101   0.100  54.740  1.00  0.00     0.210 C 
ENDBRANCH  10  14
ENDBRANCH   1   3
BRANCH   1  16
HETATM   16  C7  UNL     1      20.059   1.655  51.749  1.00  0.00     0.033 A 
HETATM   17  C8  UNL     1      19.246   0.660  51.211  1.00  0.00     0.030 A 
HETATM   18  C9  UNL     1      17.907   0.770  50.914  1.00  0.00     0.010 A 
HETATM   19  C10 UNL     1      17.311   1.983  51.176  1.00  0.00    -0.049 A 
HETATM   20  C14 UNL     1      18.036   3.027  51.708  1.00  0.00     0.010 A 
HETATM   21  C15 UNL     1      19.376   2.830  51.975  1.00  0.00     0.030 A 
BRANCH  19  22
HETATM   22  C11 UNL     1      15.878   2.137  50.895  1.00  0.00     0.112 C 
BRANCH  22  23
HETATM   23  S1  UNL     1      15.289   3.811  51.171  1.00  0.00    -0.155 SA
BRANCH  23  24
HETATM   24  C12 UNL     1      13.659   3.829  51.966  1.00  0.00     0.176 C 
BRANCH  24  25
HETATM   25  C13 UNL     1      13.722   4.324  53.369  1.00  0.00     0.224 C 
HETATM   26  N4  UNL     1      14.869   4.566  54.184  1.00  0.00    -0.369 N 
HETATM   27  H13 UNL     1      14.755   5.281  54.919  1.00  0.00     0.159 HD
HETATM   28  H14 UNL     1      15.784   4.076  54.083  1.00  0.00     0.159 HD
HETATM   29  O2  UNL     1      12.568   4.534  53.819  1.00  0.00    -0.273 OA
ENDBRANCH  24  25
ENDBRANCH  23  24
ENDBRANCH  22  23
ENDBRANCH  19  22
ENDBRANCH   1  16
TORSDOF 7
ENDMDL
MODEL 9
REMARK VINA RESULT:      -7.4      2.379      3.255
REMARK  7 active torsions:
REMARK  status: ('A' for Active; 'I' for Inactive)
REMARK    1  A    between atoms: O1_2  and  C2_3 
REMARK    2  A    between atoms: C6_9  and  N3_10 
REMARK    3  A    between atoms: N3_10  and  C7_11 
REMARK    4  A    between atoms: C10_14  and  C11_15 
REMARK    5  A    between atoms: C11_15  and  S1_16 
REMARK    6  A    between atoms: S1_16  and  C12_17 
REMARK    7  A    between atoms: C12_17  and  C13_18 
REMARK       I    between atoms: C13_18  and  N4_19 
ROOT
HETATM    1  N3  UNL     1      24.628   5.467  50.720  1.00  0.00    -0.340 N 
HETATM    2  H6  UNL     1      24.559   6.176  51.475  1.00  0.00     0.167 HD
ENDROOT
BRANCH   1   3
HETATM    3  C6  UNL     1      23.727   4.391  50.512  1.00  0.00     0.142 A 
HETATM    4  N2  UNL     1      22.755   4.447  49.595  1.00  0.00    -0.224 NA
HETATM    5  C5  UNL     1      21.898   3.457  49.365  1.00  0.00     0.236 A 
HETATM    6  N1  UNL     1      22.009   2.338  50.089  1.00  0.00    -0.241 NA
HETATM    7  C4  UNL     1      22.953   2.175  51.042  1.00  0.00     0.074 A 
HETATM    8  C3  UNL     1      23.015   1.006  51.753  1.00  0.00     0.070 A 
HETATM    9  C16 UNL     1      23.820   3.232  51.244  1.00  0.00     0.039 A 
HETATM   10  C2  UNL     1      23.968   0.818  52.733  1.00  0.00     0.076 A 
HETATM   11  C18 UNL     1      24.834   1.872  52.938  1.00  0.00    -0.028 A 
HETATM   12  C17 UNL     1      24.766   3.043  52.218  1.00  0.00     0.027 A 
HETATM   13  C19 UNL     1      25.881   1.727  53.988  1.00  0.00     0.051 C 
BRANCH  10  14
HETATM   14  O1  UNL     1      24.105  -0.328  53.501  1.00  0.00    -0.355 OA
HETATM   15  C1  UNL     1      22.974  -0.836  54.155  1.00  0.00     0.210 C 
ENDBRANCH  10  14
ENDBRANCH   1   3
BRANCH   1  16
HETATM   16  C7  UNL     1      25.764   5.729  49.910  1.00  0.00     0.033 A 
HETATM   17  C8  UNL     1      26.177   7.014  49.569  1.00  0.00     0.030 A 
HETATM   18  C9  UNL     1      27.258   7.344  48.785  1.00  0.00     0.010 A 
HETATM   19  C10 UNL     1      28.007   6.300  48.289  1.00  0.00    -0.049 A 
HETATM   20  C14 UNL     1      27.674   4.994  48.573  1.00  0.00     0.010 A 
HETATM   21  C15 UNL     1      26.571   4.753  49.369  1.00  0.00     0.030 A 
BRANCH  19  22
HETATM   22  C11 UNL     1      29.183   6.608  47.465  1.00  0.00     0.112 C 
BRANCH  22  23
HETATM   23  S1  UNL     1      29.768   8.291  47.686  1.00  0.00    -0.155 SA
BRANCH  23  24
HETATM   24  C12 UNL     1      30.709   8.480  49.225  1.00  0.00     0.176 C 
BRANCH  24  25
HETATM   25  C13 UNL     1      31.710   7.393  49.410  1.00  0.00     0.224 C 
HETATM   26  N4  UNL     1      31.565   6.148  50.093  1.00  0.00    -0.369 N 
HETATM   27  H13 UNL     1      32.171   5.381  49.761  1.00  0.00     0.159 HD
HETATM   28  H14 UNL     1      30.906   5.975  50.881  1.00  0.00     0.159 HD
HETATM   29  O2  UNL     1      32.799   7.693  48.860  1.00  0.00    -0.273 OA
ENDBRANCH  24  25
ENDBRANCH  23  24
ENDBRANCH  22  23
ENDBRANCH  19  22
ENDBRANCH   1  16
TORSDOF 7
ENDMDL
