MODEL 1
REMARK VINA RESULT:      -8.3      0.000      0.000
REMARK  7 active torsions:
REMARK  status: ('A' for Active; 'I' for Inactive)
REMARK    1  A    between atoms: O1_2  and  C2_3 
REMARK    2  A    between atoms: N3_10  and  C7_11 
REMARK    3  A    between atoms: C14_20  and  O2_21 
REMARK    4  A    between atoms: O2_21  and  C15_22 
REMARK    5  A    between atoms: C15_22  and  C16_23 
REMARK    6  A    between atoms: C16_23  and  C17_24 
REMARK    7  A    between atoms: C17_24  and  N4_25 
ROOT
HETATM    1  C2  UNL     1      28.043   1.228  53.381  1.00  0.00     0.077 C 
HETATM    2  C3  UNL     1      28.948   0.547  53.952  1.00  0.00     0.054 C 
HETATM    3  C4  UNL     1      29.356  -0.836  54.036  1.00  0.00     0.287 C 
HETATM    4  N1  UNL     1      28.775  -1.844  53.425  1.00  0.00    -0.383 NA
HETATM    5  C5  UNL     1      27.622  -1.647  52.576  1.00  0.00     0.192 C 
HETATM    6  N2  UNL     1      26.891  -1.431  53.578  1.00  0.00    -0.266 NA
HETATM    7  C6  UNL     1      25.503  -1.131  53.640  1.00  0.00     0.274 C 
HETATM    8  N3  UNL     1      25.213   0.016  52.814  1.00  0.00    -0.360 N 
HETATM    9  C13 UNL     1      25.985   0.883  51.960  1.00  0.00     0.163 C 
HETATM   10  C14 UNL     1      26.944   1.806  52.648  1.00  0.00     0.196 C 
ENDROOT
BRANCH  10  11
HETATM   11  O2  UNL     1      27.488   2.611  51.573  1.00  0.00    -0.378 OA
BRANCH  11  12
HETATM   12  C15 UNL     1      26.506   2.643  50.600  1.00  0.00     0.170 C 
BRANCH  12  13
HETATM   13  C16 UNL     1      26.694   3.848  49.705  1.00  0.00     0.056 C 
BRANCH  13  14
HETATM   14  C17 UNL     1      25.391   4.366  49.192  1.00  0.00     0.274 C 
BRANCH  14  15
HETATM   15  N4  UNL     1      24.399   4.502  50.210  1.00  0.00     0.092 N 
HETATM   16  C18 UNL     1      23.080   4.295  49.628  1.00  0.00     0.298 C 
HETATM   17  C19 UNL     1      22.003   5.087  50.331  1.00  0.00     0.198 C 
HETATM   18  O3  UNL     1      22.196   5.070  51.710  1.00  0.00    -0.388 OA
HETATM   19  C20 UNL     1      23.409   5.586  52.087  1.00  0.00     0.198 C 
HETATM   20  C21 UNL     1      24.384   5.746  50.911  1.00  0.00     0.298 C 
ENDBRANCH  14  15
ENDBRANCH  13  14
ENDBRANCH  12  13
ENDBRANCH  11  12
ENDBRANCH  10  11
BRANCH   1  21
HETATM   21  O1  UNL     1      28.585   2.405  53.975  1.00  0.00    -0.357 OA
HETATM   22  C1  UNL     1      29.828   2.357  54.648  1.00  0.00     0.209 C 
ENDBRANCH   1  21
BRANCH   8  23
HETATM   23  C7  UNL     1      23.805   0.326  52.913  1.00  0.00     0.033 A 
HETATM   24  C8  UNL     1      23.290   1.547  52.529  1.00  0.00     0.032 A 
HETATM   25  C9  UNL     1      21.957   1.891  52.592  1.00  0.00     0.046 A 
HETATM   26  C10 UNL     1      21.047   0.973  53.068  1.00  0.00     0.138 A 
HETATM   27  F1  UNL     1      19.723   1.235  53.160  1.00  0.00    -0.204 F 
HETATM   28  C11 UNL     1      21.468  -0.270  53.474  1.00  0.00     0.074 A 
HETATM   29 CL1  UNL     1      20.372  -1.486  54.089  1.00  0.00    -0.081 Cl
HETATM   30  C12 UNL     1      22.812  -0.531  53.378  1.00  0.00     0.056 A 
ENDBRANCH   8  23
TORSDOF 7
ENDMDL
MODEL 2
REMARK VINA RESULT:      -8.3      3.183      6.060
REMARK  7 active torsions:
REMARK  status: ('A' for Active; 'I' for Inactive)
REMARK    1  A    between atoms: O1_2  and  C2_3 
REMARK    2  A    between atoms: N3_10  and  C7_11 
REMARK    3  A    between atoms: C14_20  and  O2_21 
REMARK    4  A    between atoms: O2_21  and  C15_22 
REMARK    5  A    between atoms: C15_22  and  C16_23 
REMARK    6  A    between atoms: C16_23  and  C17_24 
REMARK    7  A    between atoms: C17_24  and  N4_25 
ROOT
HETATM    1  C2  UNL     1      21.485   1.464  51.410  1.00  0.00     0.077 C 
HETATM    2  C3  UNL     1      20.406   0.801  51.347  1.00  0.00     0.054 C 
HETATM    3  C4  UNL     1      19.609  -0.033  52.218  1.00  0.00     0.287 C 
HETATM    4  N1  UNL     1      19.888  -0.319  53.469  1.00  0.00    -0.383 NA
HETATM    5  C5  UNL     1      21.070   0.202  54.116  1.00  0.00     0.192 C 
HETATM    6  N2  UNL     1      21.805  -0.576  53.452  1.00  0.00    -0.266 NA
HETATM    7  C6  UNL     1      23.217  -0.730  53.475  1.00  0.00     0.274 C 
HETATM    8  N3  UNL     1      23.853   0.544  53.239  1.00  0.00    -0.360 N 
HETATM    9  C13 UNL     1      23.391   1.890  53.009  1.00  0.00     0.163 C 
HETATM   10  C14 UNL     1      22.725   2.144  51.691  1.00  0.00     0.196 C 
ENDROOT
BRANCH  10  11
HETATM   11  O2  UNL     1      22.470   3.570  51.697  1.00  0.00    -0.378 OA
BRANCH  11  12
HETATM   12  C15 UNL     1      23.433   4.116  52.526  1.00  0.00     0.170 C 
BRANCH  12  13
HETATM   13  C16 UNL     1      23.713   5.549  52.130  1.00  0.00     0.056 C 
BRANCH  13  14
HETATM   14  C17 UNL     1      24.008   5.674  50.671  1.00  0.00     0.274 C 
BRANCH  14  15
HETATM   15  N4  UNL     1      25.276   5.127  50.305  1.00  0.00     0.092 N 
HETATM   16  C18 UNL     1      26.062   6.148  49.626  1.00  0.00     0.298 C 
HETATM   17  C19 UNL     1      27.008   5.568  48.602  1.00  0.00     0.198 C 
HETATM   18  O3  UNL     1      27.596   4.399  49.076  1.00  0.00    -0.388 OA
HETATM   19  C20 UNL     1      26.679   3.430  49.395  1.00  0.00     0.198 C 
HETATM   20  C21 UNL     1      25.242   3.967  49.473  1.00  0.00     0.298 C 
ENDBRANCH  14  15
ENDBRANCH  13  14
ENDBRANCH  12  13
ENDBRANCH  11  12
ENDBRANCH  10  11
BRANCH   1  21
HETATM   21  O1  UNL     1      21.295   1.859  50.053  1.00  0.00    -0.357 OA
HETATM   22  C1  UNL     1      21.451   0.919  49.008  1.00  0.00     0.209 C 
ENDBRANCH   1  21
BRANCH   8  23
HETATM   23  C7  UNL     1      25.287   0.364  53.235  1.00  0.00     0.033 A 
HETATM   24  C8  UNL     1      25.875  -0.863  53.010  1.00  0.00     0.032 A 
HETATM   25  C9  UNL     1      27.234  -1.088  52.985  1.00  0.00     0.046 A 
HETATM   26  C10 UNL     1      28.096  -0.035  53.198  1.00  0.00     0.138 A 
HETATM   27  F1  UNL     1      29.441  -0.175  53.190  1.00  0.00    -0.204 F 
HETATM   28  C11 UNL     1      27.600   1.225  53.432  1.00  0.00     0.074 A 
HETATM   29 CL1  UNL     1      28.630   2.611  53.712  1.00  0.00    -0.081 Cl
HETATM   30  C12 UNL     1      26.234   1.363  53.439  1.00  0.00     0.056 A 
ENDBRANCH   8  23
TORSDOF 7
ENDMDL
MODEL 3
REMARK VINA RESULT:      -8.1      3.462      6.175
REMARK  7 active torsions:
REMARK  status: ('A' for Active; 'I' for Inactive)
REMARK    1  A    between atoms: O1_2  and  C2_3 
REMARK    2  A    between atoms: N3_10  and  C7_11 
REMARK    3  A    between atoms: C14_20  and  O2_21 
REMARK    4  A    between atoms: O2_21  and  C15_22 
REMARK    5  A    between atoms: C15_22  and  C16_23 
REMARK    6  A    between atoms: C16_23  and  C17_24 
REMARK    7  A    between atoms: C17_24  and  N4_25 
ROOT
HETATM    1  C2  UNL     1      21.734   1.680  51.013  1.00  0.00     0.077 C 
HETATM    2  C3  UNL     1      20.630   1.066  50.895  1.00  0.00     0.054 C 
HETATM    3  C4  UNL     1      19.746   0.283  51.727  1.00  0.00     0.287 C 
HETATM    4  N1  UNL     1      19.936   0.005  52.997  1.00  0.00    -0.383 NA
HETATM    5  C5  UNL     1      21.101   0.482  53.707  1.00  0.00     0.192 C 
HETATM    6  N2  UNL     1      21.837  -0.340  53.098  1.00  0.00    -0.266 NA
HETATM    7  C6  UNL     1      23.237  -0.558  53.208  1.00  0.00     0.274 C 
HETATM    8  N3  UNL     1      23.944   0.682  52.993  1.00  0.00    -0.360 N 
HETATM    9  C13 UNL     1      23.560   2.043  52.718  1.00  0.00     0.163 C 
HETATM   10  C14 UNL     1      22.985   2.307  51.359  1.00  0.00     0.196 C 
ENDROOT
BRANCH  10  11
HETATM   11  O2  UNL     1      22.797   3.743  51.331  1.00  0.00    -0.378 OA
BRANCH  11  12
HETATM   12  C15 UNL     1      24.065   4.282  51.214  1.00  0.00     0.170 C 
BRANCH  12  13
HETATM   13  C16 UNL     1      24.607   4.049  49.821  1.00  0.00     0.056 C 
BRANCH  13  14
HETATM   14  C17 UNL     1      26.091   4.217  49.768  1.00  0.00     0.274 C 
BRANCH  14  15
HETATM   15  N4  UNL     1      26.512   5.208  48.831  1.00  0.00     0.092 N 
HETATM   16  C18 UNL     1      27.933   5.038  48.557  1.00  0.00     0.298 C 
HETATM   17  C19 UNL     1      28.621   6.341  48.226  1.00  0.00     0.198 C 
HETATM   18  O3  UNL     1      27.817   7.134  47.412  1.00  0.00    -0.388 OA
HETATM   19  C20 UNL     1      26.606   7.433  47.983  1.00  0.00     0.198 C 
HETATM   20  C21 UNL     1      26.293   6.567  49.212  1.00  0.00     0.298 C 
ENDBRANCH  14  15
ENDBRANCH  13  14
ENDBRANCH  12  13
ENDBRANCH  11  12
ENDBRANCH  10  11
BRANCH   1  21
HETATM   21  O1  UNL     1      21.643   2.061  49.643  1.00  0.00    -0.357 OA
HETATM   22  C1  UNL     1      21.584   1.074  48.630  1.00  0.00     0.209 C 
ENDBRANCH   1  21
BRANCH   8  23
HETATM   23  C7  UNL     1      25.366   0.437  53.078  1.00  0.00     0.033 A 
HETATM   24  C8  UNL     1      25.906  -0.824  52.931  1.00  0.00     0.032 A 
HETATM   25  C9  UNL     1      27.252  -1.112  52.992  1.00  0.00     0.046 A 
HETATM   26  C10 UNL     1      28.150  -0.091  53.216  1.00  0.00     0.138 A 
HETATM   27  F1  UNL     1      29.485  -0.293  53.290  1.00  0.00    -0.204 F 
HETATM   28  C11 UNL     1      27.703   1.198  53.376  1.00  0.00     0.074 A 
HETATM   29 CL1  UNL     1      28.781   2.545  53.665  1.00  0.00    -0.081 Cl
HETATM   30  C12 UNL     1      26.346   1.398  53.300  1.00  0.00     0.056 A 
ENDBRANCH   8  23
TORSDOF 7
ENDMDL
MODEL 4
REMARK VINA RESULT:      -8.1      2.137      2.595
REMARK  7 active torsions:
REMARK  status: ('A' for Active; 'I' for Inactive)
REMARK    1  A    between atoms: O1_2  and  C2_3 
REMARK    2  A    between atoms: N3_10  and  C7_11 
REMARK    3  A    between atoms: C14_20  and  O2_21 
REMARK    4  A    between atoms: O2_21  and  C15_22 
REMARK    5  A    between atoms: C15_22  and  C16_23 
REMARK    6  A    between atoms: C16_23  and  C17_24 
REMARK    7  A    between atoms: C17_24  and  N4_25 
ROOT
HETATM    1  C2  UNL     1      27.745   1.334  53.307  1.00  0.00     0.077 C 
HETATM    2  C3  UNL     1      28.565   0.584  53.919  1.00  0.00     0.054 C 
HETATM    3  C4  UNL     1      28.841  -0.828  54.038  1.00  0.00     0.287 C 
HETATM    4  N1  UNL     1      28.190  -1.790  53.424  1.00  0.00    -0.383 NA
HETATM    5  C5  UNL     1      27.088  -1.506  52.534  1.00  0.00     0.192 C 
HETATM    6  N2  UNL     1      26.348  -1.205  53.508  1.00  0.00    -0.266 NA
HETATM    7  C6  UNL     1      24.993  -0.778  53.519  1.00  0.00     0.274 C 
HETATM    8  N3  UNL     1      24.834   0.375  52.666  1.00  0.00    -0.360 N 
HETATM    9  C13 UNL     1      25.710   1.151  51.824  1.00  0.00     0.163 C 
HETATM   10  C14 UNL     1      26.727   1.996  52.529  1.00  0.00     0.196 C 
ENDROOT
BRANCH  10  11
HETATM   11  O2  UNL     1      27.376   2.727  51.460  1.00  0.00    -0.378 OA
BRANCH  11  12
HETATM   12  C15 UNL     1      26.386   2.979  50.528  1.00  0.00     0.170 C 
BRANCH  12  13
HETATM   13  C16 UNL     1      26.913   3.884  49.435  1.00  0.00     0.056 C 
BRANCH  13  14
HETATM   14  C17 UNL     1      25.968   5.002  49.139  1.00  0.00     0.274 C 
BRANCH  14  15
HETATM   15  N4  UNL     1      26.482   6.285  49.501  1.00  0.00     0.092 N 
HETATM   16  C18 UNL     1      25.457   7.029  50.221  1.00  0.00     0.298 C 
HETATM   17  C19 UNL     1      25.566   8.520  50.010  1.00  0.00     0.198 C 
HETATM   18  O3  UNL     1      26.896   8.927  50.021  1.00  0.00    -0.388 OA
HETATM   19  C20 UNL     1      27.653   8.312  49.057  1.00  0.00     0.198 C 
HETATM   20  C21 UNL     1      26.951   7.100  48.426  1.00  0.00     0.298 C 
ENDBRANCH  14  15
ENDBRANCH  13  14
ENDBRANCH  12  13
ENDBRANCH  11  12
ENDBRANCH  10  11
BRANCH   1  21
HETATM   21  O1  UNL     1      28.373   2.468  53.900  1.00  0.00    -0.357 OA
HETATM   22  C1  UNL     1      29.735   2.412  54.278  1.00  0.00     0.209 C 
ENDBRANCH   1  21
BRANCH   8  23
HETATM   23  C7  UNL     1      23.458   0.814  52.712  1.00  0.00     0.033 A 
HETATM   24  C8  UNL     1      22.447   0.016  53.206  1.00  0.00     0.032 A 
HETATM   25  C9  UNL     1      21.122   0.388  53.283  1.00  0.00     0.046 A 
HETATM   26  C10 UNL     1      20.747   1.638  52.843  1.00  0.00     0.138 A 
HETATM   27  F1  UNL     1      19.467   2.076  52.886  1.00  0.00    -0.204 F 
HETATM   28  C11 UNL     1      21.687   2.501  52.334  1.00  0.00     0.074 A 
HETATM   29 CL1  UNL     1      21.286   4.103  51.757  1.00  0.00    -0.081 Cl
HETATM   30  C12 UNL     1      22.983   2.053  52.294  1.00  0.00     0.056 A 
ENDBRANCH   8  23
TORSDOF 7
ENDMDL
MODEL 5
REMARK VINA RESULT:      -8.1      2.932      5.086
REMARK  7 active torsions:
REMARK  status: ('A' for Active; 'I' for Inactive)
REMARK    1  A    between atoms: O1_2  and  C2_3 
REMARK    2  A    between atoms: N3_10  and  C7_11 
REMARK    3  A    between atoms: C14_20  and  O2_21 
REMARK    4  A    between atoms: O2_21  and  C15_22 
REMARK    5  A    between atoms: C15_22  and  C16_23 
REMARK    6  A    between atoms: C16_23  and  C17_24 
REMARK    7  A    between atoms: C17_24  and  N4_25 
ROOT
HETATM    1  C2  UNL     1      26.714  -0.319  53.487  1.00  0.00     0.077 C 
HETATM    2  C3  UNL     1      27.944  -0.417  53.779  1.00  0.00     0.054 C 
HETATM    3  C4  UNL     1      29.037   0.465  54.118  1.00  0.00     0.287 C 
HETATM    4  N1  UNL     1      28.964   1.773  54.214  1.00  0.00    -0.383 NA
HETATM    5  C5  UNL     1      27.725   2.478  53.979  1.00  0.00     0.192 C 
HETATM    6  N2  UNL     1      27.810   2.265  52.741  1.00  0.00    -0.266 NA
HETATM    7  C6  UNL     1      26.932   2.648  51.692  1.00  0.00     0.274 C 
HETATM    8  N3  UNL     1      25.596   2.184  51.977  1.00  0.00    -0.360 N 
HETATM    9  C13 UNL     1      24.974   1.458  53.055  1.00  0.00     0.163 C 
HETATM   10  C14 UNL     1      25.345   0.011  53.179  1.00  0.00     0.196 C 
ENDROOT
BRANCH  10  11
HETATM   11  O2  UNL     1      24.506  -0.475  54.255  1.00  0.00    -0.378 OA
BRANCH  11  12
HETATM   12  C15 UNL     1      23.261  -0.684  53.691  1.00  0.00     0.170 C 
BRANCH  12  13
HETATM   13  C16 UNL     1      22.226  -0.906  54.771  1.00  0.00     0.056 C 
BRANCH  13  14
HETATM   14  C17 UNL     1      21.116   0.091  54.689  1.00  0.00     0.274 C 
BRANCH  14  15
HETATM   15  N4  UNL     1      20.497   0.138  53.403  1.00  0.00     0.092 N 
HETATM   16  C18 UNL     1      20.485   1.513  52.924  1.00  0.00     0.298 C 
HETATM   17  C19 UNL     1      19.302   1.809  52.034  1.00  0.00     0.198 C 
HETATM   18  O3  UNL     1      19.046   0.743  51.177  1.00  0.00    -0.388 OA
HETATM   19  C20 UNL     1      18.788  -0.429  51.841  1.00  0.00     0.198 C 
HETATM   20  C21 UNL     1      19.163  -0.369  53.329  1.00  0.00     0.298 C 
ENDBRANCH  14  15
ENDBRANCH  13  14
ENDBRANCH  12  13
ENDBRANCH  11  12
ENDBRANCH  10  11
BRANCH   1  21
HETATM   21  O1  UNL     1      26.655  -1.738  53.361  1.00  0.00    -0.357 OA
HETATM   22  C1  UNL     1      26.797  -2.348  52.093  1.00  0.00     0.209 C 
ENDBRANCH   1  21
BRANCH   8  23
HETATM   23  C7  UNL     1      24.723   2.556  50.887  1.00  0.00     0.033 A 
HETATM   24  C8  UNL     1      24.943   3.679  50.117  1.00  0.00     0.032 A 
HETATM   25  C9  UNL     1      24.150   4.074  49.061  1.00  0.00     0.046 A 
HETATM   26  C10 UNL     1      23.050   3.317  48.725  1.00  0.00     0.138 A 
HETATM   27  F1  UNL     1      22.223   3.638  47.704  1.00  0.00    -0.204 F 
HETATM   28  C11 UNL     1      22.750   2.181  49.438  1.00  0.00     0.074 A 
HETATM   29 CL1  UNL     1      21.371   1.170  49.071  1.00  0.00    -0.081 Cl
HETATM   30  C12 UNL     1      23.592   1.859  50.473  1.00  0.00     0.056 A 
ENDBRANCH   8  23
TORSDOF 7
ENDMDL
MODEL 6
REMARK VINA RESULT:      -8.1      3.072      5.935
REMARK  7 active torsions:
REMARK  status: ('A' for Active; 'I' for Inactive)
REMARK    1  A    between atoms: O1_2  and  C2_3 
REMARK    2  A    between atoms: N3_10  and  C7_11 
REMARK    3  A    between atoms: C14_20  and  O2_21 
REMARK    4  A    between atoms: O2_21  and  C15_22 
REMARK    5  A    between atoms: C15_22  and  C16_23 
REMARK    6  A    between atoms: C16_23  and  C17_24 
REMARK    7  A    between atoms: C17_24  and  N4_25 
ROOT
HETATM    1  C2  UNL     1      21.541   1.549  51.445  1.00  0.00     0.077 C 
HETATM    2  C3  UNL     1      20.541   0.773  51.372  1.00  0.00     0.054 C 
HETATM    3  C4  UNL     1      19.841  -0.155  52.230  1.00  0.00     0.287 C 
HETATM    4  N1  UNL     1      20.150  -0.426  53.479  1.00  0.00    -0.383 NA
HETATM    5  C5  UNL     1      21.269   0.213  54.133  1.00  0.00     0.192 C 
HETATM    6  N2  UNL     1      22.084  -0.471  53.460  1.00  0.00    -0.266 NA
HETATM    7  C6  UNL     1      23.505  -0.469  53.482  1.00  0.00     0.274 C 
HETATM    8  N3  UNL     1      23.997   0.870  53.264  1.00  0.00    -0.360 N 
HETATM    9  C13 UNL     1      23.390   2.160  53.052  1.00  0.00     0.163 C 
HETATM   10  C14 UNL     1      22.699   2.358  51.737  1.00  0.00     0.196 C 
ENDROOT
BRANCH  10  11
HETATM   11  O2  UNL     1      22.289   3.747  51.762  1.00  0.00    -0.378 OA
BRANCH  11  12
HETATM   12  C15 UNL     1      23.345   4.436  52.329  1.00  0.00     0.170 C 
BRANCH  12  13
HETATM   13  C16 UNL     1      23.446   5.823  51.734  1.00  0.00     0.056 C 
BRANCH  13  14
HETATM   14  C17 UNL     1      23.902   5.784  50.312  1.00  0.00     0.274 C 
BRANCH  14  15
HETATM   15  N4  UNL     1      25.166   5.142  50.143  1.00  0.00     0.092 N 
HETATM   16  C18 UNL     1      26.088   6.059  49.487  1.00  0.00     0.298 C 
HETATM   17  C19 UNL     1      27.108   5.346  48.632  1.00  0.00     0.198 C 
HETATM   18  O3  UNL     1      27.562   4.191  49.261  1.00  0.00    -0.388 OA
HETATM   19  C20 UNL     1      26.557   3.302  49.543  1.00  0.00     0.198 C 
HETATM   20  C21 UNL     1      25.157   3.919  49.406  1.00  0.00     0.298 C 
ENDBRANCH  14  15
ENDBRANCH  13  14
ENDBRANCH  12  13
ENDBRANCH  11  12
ENDBRANCH  10  11
BRANCH   1  21
HETATM   21  O1  UNL     1      21.308   1.939  50.094  1.00  0.00    -0.357 OA
HETATM   22  C1  UNL     1      21.482   1.009  49.043  1.00  0.00     0.209 C 
ENDBRANCH   1  21
BRANCH   8  23
HETATM   23  C7  UNL     1      25.442   0.849  53.259  1.00  0.00     0.033 A 
HETATM   24  C8  UNL     1      26.195   1.999  53.367  1.00  0.00     0.032 A 
HETATM   25  C9  UNL     1      27.573   2.035  53.379  1.00  0.00     0.046 A 
HETATM   26  C10 UNL     1      28.279   0.856  53.276  1.00  0.00     0.138 A 
HETATM   27  F1  UNL     1      29.631   0.809  53.280  1.00  0.00    -0.204 F 
HETATM   28  C11 UNL     1      27.611  -0.340  53.163  1.00  0.00     0.074 A 
HETATM   29 CL1  UNL     1      28.438  -1.876  53.027  1.00  0.00    -0.081 Cl
HETATM   30  C12 UNL     1      26.240  -0.286  53.160  1.00  0.00     0.056 A 
ENDBRANCH   8  23
TORSDOF 7
ENDMDL
MODEL 7
REMARK VINA RESULT:      -7.9      3.476      5.962
REMARK  7 active torsions:
REMARK  status: ('A' for Active; 'I' for Inactive)
REMARK    1  A    between atoms: O1_2  and  C2_3 
REMARK    2  A    between atoms: N3_10  and  C7_11 
REMARK    3  A    between atoms: C14_20  and  O2_21 
REMARK    4  A    between atoms: O2_21  and  C15_22 
REMARK    5  A    between atoms: C15_22  and  C16_23 
REMARK    6  A    between atoms: C16_23  and  C17_24 
REMARK    7  A    between atoms: C17_24  and  N4_25 
ROOT
HETATM    1  C2  UNL     1      22.758   1.502  50.956  1.00  0.00     0.077 C 
HETATM    2  C3  UNL     1      21.678   0.844  50.856  1.00  0.00     0.054 C 
HETATM    3  C4  UNL     1      20.798   0.091  51.719  1.00  0.00     0.287 C 
HETATM    4  N1  UNL     1      20.966  -0.094  53.009  1.00  0.00    -0.383 NA
HETATM    5  C5  UNL     1      22.097   0.468  53.710  1.00  0.00     0.192 C 
HETATM    6  N2  UNL     1      22.874  -0.368  53.176  1.00  0.00    -0.266 NA
HETATM    7  C6  UNL     1      24.277  -0.530  53.331  1.00  0.00     0.274 C 
HETATM    8  N3  UNL     1      24.949   0.715  53.048  1.00  0.00    -0.360 N 
HETATM    9  C13 UNL     1      24.528   2.041  52.673  1.00  0.00     0.163 C 
HETATM   10  C14 UNL     1      23.979   2.193  51.286  1.00  0.00     0.196 C 
ENDROOT
BRANCH  10  11
HETATM   11  O2  UNL     1      23.746   3.616  51.156  1.00  0.00    -0.378 OA
BRANCH  11  12
HETATM   12  C15 UNL     1      23.387   4.052  52.418  1.00  0.00     0.170 C 
BRANCH  12  13
HETATM   13  C16 UNL     1      22.027   4.714  52.377  1.00  0.00     0.056 C 
BRANCH  13  14
HETATM   14  C17 UNL     1      21.654   5.127  50.991  1.00  0.00     0.274 C 
BRANCH  14  15
HETATM   15  N4  UNL     1      20.528   4.416  50.476  1.00  0.00     0.092 N 
HETATM   16  C18 UNL     1      19.775   5.287  49.584  1.00  0.00     0.298 C 
HETATM   17  C19 UNL     1      18.298   4.974  49.574  1.00  0.00     0.198 C 
HETATM   18  O3  UNL     1      18.083   3.599  49.594  1.00  0.00    -0.388 OA
HETATM   19  C20 UNL     1      18.634   2.985  50.689  1.00  0.00     0.198 C 
HETATM   20  C21 UNL     1      19.623   3.885  51.445  1.00  0.00     0.298 C 
ENDBRANCH  14  15
ENDBRANCH  13  14
ENDBRANCH  12  13
ENDBRANCH  11  12
ENDBRANCH  10  11
BRANCH   1  21
HETATM   21  O1  UNL     1      22.688   1.786  49.561  1.00  0.00    -0.357 OA
HETATM   22  C1  UNL     1      21.605   1.305  48.788  1.00  0.00     0.209 C 
ENDBRANCH   1  21
BRANCH   8  23
HETATM   23  C7  UNL     1      26.375   0.524  53.182  1.00  0.00     0.033 A 
HETATM   24  C8  UNL     1      27.243   1.575  53.394  1.00  0.00     0.032 A 
HETATM   25  C9  UNL     1      28.607   1.448  53.538  1.00  0.00     0.046 A 
HETATM   26  C10 UNL     1      29.179   0.197  53.470  1.00  0.00     0.138 A 
HETATM   27  F1  UNL     1      30.509  -0.009  53.602  1.00  0.00    -0.204 F 
HETATM   28  C11 UNL     1      28.392  -0.910  53.260  1.00  0.00     0.074 A 
HETATM   29 CL1  UNL     1      29.045  -2.530  53.161  1.00  0.00    -0.081 Cl
HETATM   30  C12 UNL     1      27.043  -0.695  53.128  1.00  0.00     0.056 A 
ENDBRANCH   8  23
TORSDOF 7
ENDMDL
MODEL 8
REMARK VINA RESULT:      -7.7      3.330      5.712
REMARK  7 active torsions:
REMARK  status: ('A' for Active; 'I' for Inactive)
REMARK    1  A    between atoms: O1_2  and  C2_3 
REMARK    2  A    between atoms: N3_10  and  C7_11 
REMARK    3  A    between atoms: C14_20  and  O2_21 
REMARK    4  A    between atoms: O2_21  and  C15_22 
REMARK    5  A    between atoms: C15_22  and  C16_23 
REMARK    6  A    between atoms: C16_23  and  C17_24 
REMARK    7  A    between atoms: C17_24  and  N4_25 
ROOT
HETATM    1  C2  UNL     1      22.362   1.237  50.889  1.00  0.00     0.077 C 
HETATM    2  C3  UNL     1      21.262   0.606  50.880  1.00  0.00     0.054 C 
HETATM    3  C4  UNL     1      20.381  -0.024  51.836  1.00  0.00     0.287 C 
HETATM    4  N1  UNL     1      20.571  -0.074  53.135  1.00  0.00    -0.383 NA
HETATM    5  C5  UNL     1      21.733   0.525  53.750  1.00  0.00     0.192 C 
HETATM    6  N2  UNL     1      22.473  -0.386  53.296  1.00  0.00    -0.266 NA
HETATM    7  C6  UNL     1      23.874  -0.573  53.441  1.00  0.00     0.274 C 
HETATM    8  N3  UNL     1      24.575   0.613  53.013  1.00  0.00    -0.360 N 
HETATM    9  C13 UNL     1      24.184   1.903  52.504  1.00  0.00     0.163 C 
HETATM   10  C14 UNL     1      23.610   1.922  51.120  1.00  0.00     0.196 C 
ENDROOT
BRANCH  10  11
HETATM   11  O2  UNL     1      23.414   3.330  50.841  1.00  0.00    -0.378 OA
BRANCH  11  12
HETATM   12  C15 UNL     1      24.668   3.905  50.935  1.00  0.00     0.170 C 
BRANCH  12  13
HETATM   13  C16 UNL     1      25.379   3.833  49.602  1.00  0.00     0.056 C 
BRANCH  13  14
HETATM   14  C17 UNL     1      26.018   5.135  49.244  1.00  0.00     0.274 C 
BRANCH  14  15
HETATM   15  N4  UNL     1      25.149   6.255  49.413  1.00  0.00     0.092 N 
HETATM   16  C18 UNL     1      24.766   6.769  48.106  1.00  0.00     0.298 C 
HETATM   17  C19 UNL     1      24.510   8.258  48.119  1.00  0.00     0.198 C 
HETATM   18  O3  UNL     1      23.827   8.633  49.272  1.00  0.00    -0.388 OA
HETATM   19  C20 UNL     1      24.503   8.314  50.422  1.00  0.00     0.198 C 
HETATM   20  C21 UNL     1      25.666   7.340  50.184  1.00  0.00     0.298 C 
ENDBRANCH  14  15
ENDBRANCH  13  14
ENDBRANCH  12  13
ENDBRANCH  11  12
ENDBRANCH  10  11
BRANCH   1  21
HETATM   21  O1  UNL     1      22.271   1.371  49.473  1.00  0.00    -0.357 OA
HETATM   22  C1  UNL     1      21.032   1.682  48.865  1.00  0.00     0.209 C 
ENDBRANCH   1  21
BRANCH   8  23
HETATM   23  C7  UNL     1      25.998   0.394  53.140  1.00  0.00     0.033 A 
HETATM   24  C8  UNL     1      26.881   1.422  53.398  1.00  0.00     0.032 A 
HETATM   25  C9  UNL     1      28.244   1.268  53.538  1.00  0.00     0.046 A 
HETATM   26  C10 UNL     1      28.796   0.012  53.418  1.00  0.00     0.138 A 
HETATM   27  F1  UNL     1      30.122  -0.221  53.542  1.00  0.00    -0.204 F 
HETATM   28  C11 UNL     1      27.992  -1.073  53.160  1.00  0.00     0.074 A 
HETATM   29 CL1  UNL     1      28.620  -2.697  52.992  1.00  0.00    -0.081 Cl
HETATM   30  C12 UNL     1      26.646  -0.832  53.034  1.00  0.00     0.056 A 
ENDBRANCH   8  23
TORSDOF 7
ENDMDL
MODEL 9
REMARK VINA RESULT:      -7.7      2.186      6.358
REMARK  7 active torsions:
REMARK  status: ('A' for Active; 'I' for Inactive)
REMARK    1  A    between atoms: O1_2  and  C2_3 
REMARK    2  A    between atoms: N3_10  and  C7_11 
REMARK    3  A    between atoms: C14_20  and  O2_21 
REMARK    4  A    between atoms: O2_21  and  C15_22 
REMARK    5  A    between atoms: C15_22  and  C16_23 
REMARK    6  A    between atoms: C16_23  and  C17_24 
REMARK    7  A    between atoms: C17_24  and  N4_25 
ROOT
HETATM    1  C2  UNL     1      22.758   3.763  49.396  1.00  0.00     0.077 C 
HETATM    2  C3  UNL     1      22.263   4.831  48.925  1.00  0.00     0.054 C 
HETATM    3  C4  UNL     1      21.697   6.062  49.427  1.00  0.00     0.287 C 
HETATM    4  N1  UNL     1      21.561   6.381  50.695  1.00  0.00    -0.383 NA
HETATM    5  C5  UNL     1      21.987   5.487  51.747  1.00  0.00     0.192 C 
HETATM    6  N2  UNL     1      21.018   4.716  51.518  1.00  0.00    -0.266 NA
HETATM    7  C6  UNL     1      20.658   3.497  52.153  1.00  0.00     0.274 C 
HETATM    8  N3  UNL     1      21.773   2.581  52.123  1.00  0.00    -0.360 N 
HETATM    9  C13 UNL     1      23.124   2.631  51.623  1.00  0.00     0.163 C 
HETATM   10  C14 UNL     1      23.278   2.637  50.132  1.00  0.00     0.196 C 
ENDROOT
BRANCH  10  11
HETATM   11  O2  UNL     1      24.711   2.583  49.928  1.00  0.00    -0.378 OA
BRANCH  11  12
HETATM   12  C15 UNL     1      25.254   3.426  50.880  1.00  0.00     0.170 C 
BRANCH  12  13
HETATM   13  C16 UNL     1      26.634   2.949  51.277  1.00  0.00     0.056 C 
BRANCH  13  14
HETATM   14  C17 UNL     1      26.695   1.460  51.384  1.00  0.00     0.274 C 
BRANCH  14  15
HETATM   15  N4  UNL     1      26.481   0.982  52.713  1.00  0.00     0.092 N 
HETATM   16  C18 UNL     1      27.704   1.148  53.487  1.00  0.00     0.298 C 
HETATM   17  C19 UNL     1      27.863   0.095  54.557  1.00  0.00     0.198 C 
HETATM   18  O3  UNL     1      26.645  -0.171  55.176  1.00  0.00    -0.388 OA
HETATM   19  C20 UNL     1      25.682  -0.604  54.301  1.00  0.00     0.198 C 
HETATM   20  C21 UNL     1      26.063  -0.379  52.831  1.00  0.00     0.298 C 
ENDBRANCH  14  15
ENDBRANCH  13  14
ENDBRANCH  12  13
ENDBRANCH  11  12
ENDBRANCH  10  11
BRANCH   1  21
HETATM   21  O1  UNL     1      22.971   3.301  48.065  1.00  0.00    -0.357 OA
HETATM   22  C1  UNL     1      22.215   2.219  47.555  1.00  0.00     0.209 C 
ENDBRANCH   1  21
BRANCH   8  23
HETATM   23  C7  UNL     1      21.381   1.337  52.746  1.00  0.00     0.033 A 
HETATM   24  C8  UNL     1      22.251   0.590  53.511  1.00  0.00     0.032 A 
HETATM   25  C9  UNL     1      21.927  -0.595  54.135  1.00  0.00     0.046 A 
HETATM   26  C10 UNL     1      20.652  -1.098  54.005  1.00  0.00     0.138 A 
HETATM   27  F1  UNL     1      20.257  -2.254  54.587  1.00  0.00    -0.204 F 
HETATM   28  C11 UNL     1      19.716  -0.422  53.260  1.00  0.00     0.074 A 
HETATM   29 CL1  UNL     1      18.078  -0.999  53.048  1.00  0.00    -0.081 Cl
HETATM   30  C12 UNL     1      20.121   0.751  52.672  1.00  0.00     0.056 A 
ENDBRANCH   8  23
TORSDOF 7
ENDMDL
