MODEL 1
REMARK VINA RESULT:      -8.0      0.000      0.000
REMARK  5 active torsions:
REMARK  status: ('A' for Active; 'I' for Inactive)
REMARK    1  A    between atoms: C6_8  and  N2_9 
REMARK    2  A    between atoms: N2_9  and  C7_10 
REMARK    3  A    between atoms: C10_13  and  O1_14 
REMARK    4  A    between atoms: O1_14  and  C11_15 
REMARK    5  A    between atoms: C11_15  and  C12_16 
ROOT
HETATM    1  N1  UNL     1      27.363  -2.645  52.609  1.00  0.00    -0.191 NA
HETATM    2  C1  UNL     1      27.594  -1.548  52.931  1.00  0.00     0.102 C 
HETATM    3  C2  UNL     1      27.879  -0.178  53.312  1.00  0.00     0.084 C 
HETATM    4  C3  UNL     1      28.821   0.219  54.120  1.00  0.00     0.022 C 
HETATM    5  C4  UNL     1      28.990   1.530  54.143  1.00  0.00     0.049 C 
HETATM    6 CL1  UNL     1      30.267   2.403  54.906  1.00  0.00    -0.083 Cl
HETATM    7  C5  UNL     1      27.857   2.044  53.384  1.00  0.00     0.056 C 
HETATM    8  C6  UNL     1      27.167   1.040  52.869  1.00  0.00     0.056 C 
ENDROOT
BRANCH   8   9
HETATM    9  N2  UNL     1      25.999   0.992  52.060  1.00  0.00    -0.355 N 
HETATM   10  H2  UNL     1      26.072   1.129  51.031  1.00  0.00     0.166 HD
BRANCH   9  11
HETATM   11  C7  UNL     1      24.688   0.763  52.549  1.00  0.00     0.034 A 
HETATM   12  C8  UNL     1      24.272  -0.288  53.346  1.00  0.00     0.032 A 
HETATM   13  C9  UNL     1      22.945  -0.319  53.714  1.00  0.00     0.041 A 
HETATM   14  C10 UNL     1      22.036   0.642  53.322  1.00  0.00     0.091 A 
HETATM   15  C18 UNL     1      22.472   1.682  52.527  1.00  0.00     0.069 A 
HETATM   16 CL2  UNL     1      21.311   2.909  52.026  1.00  0.00    -0.081 Cl
HETATM   17  C19 UNL     1      23.797   1.756  52.131  1.00  0.00     0.056 A 
BRANCH  14  18
HETATM   18  O1  UNL     1      20.709   0.601  53.696  1.00  0.00    -0.345 OA
BRANCH  18  19
HETATM   19  C11 UNL     1      20.039  -0.652  53.661  1.00  0.00     0.214 C 
BRANCH  19  20
HETATM   20  C12 UNL     1      18.859  -0.602  52.753  1.00  0.00    -0.034 A 
HETATM   21  C13 UNL     1      17.711  -1.278  53.124  1.00  0.00     0.009 A 
HETATM   22  C14 UNL     1      16.553  -1.324  52.402  1.00  0.00     0.001 A 
HETATM   23  C15 UNL     1      16.572  -0.621  51.204  1.00  0.00     0.000 A 
HETATM   24  C16 UNL     1      17.712   0.076  50.791  1.00  0.00     0.001 A 
HETATM   25  C17 UNL     1      18.865   0.082  51.578  1.00  0.00     0.009 A 
ENDBRANCH  19  20
ENDBRANCH  18  19
ENDBRANCH  14  18
ENDBRANCH   9  11
ENDBRANCH   8   9
TORSDOF 5
ENDMDL
MODEL 2
REMARK VINA RESULT:      -7.8      5.625      8.291
REMARK  5 active torsions:
REMARK  status: ('A' for Active; 'I' for Inactive)
REMARK    1  A    between atoms: C6_8  and  N2_9 
REMARK    2  A    between atoms: N2_9  and  C7_10 
REMARK    3  A    between atoms: C10_13  and  O1_14 
REMARK    4  A    between atoms: O1_14  and  C11_15 
REMARK    5  A    between atoms: C11_15  and  C12_16 
ROOT
HETATM    1  N1  UNL     1      27.019   9.889  50.372  1.00  0.00    -0.191 NA
HETATM    2  C1  UNL     1      27.826   9.280  49.792  1.00  0.00     0.102 C 
HETATM    3  C2  UNL     1      28.822   8.505  49.078  1.00  0.00     0.084 C 
HETATM    4  C3  UNL     1      30.093   8.777  48.987  1.00  0.00     0.022 C 
HETATM    5  C4  UNL     1      30.812   7.808  48.447  1.00  0.00     0.049 C 
HETATM    6 CL1  UNL     1      32.532   7.707  48.364  1.00  0.00    -0.083 Cl
HETATM    7  C5  UNL     1      29.816   6.868  47.949  1.00  0.00     0.056 C 
HETATM    8  C6  UNL     1      28.606   7.258  48.313  1.00  0.00     0.056 C 
ENDROOT
BRANCH   8   9
HETATM    9  N2  UNL     1      27.313   6.710  48.094  1.00  0.00    -0.355 N 
HETATM   10  H2  UNL     1      26.686   7.125  47.374  1.00  0.00     0.166 HD
BRANCH   9  11
HETATM   11  C7  UNL     1      26.777   5.601  48.797  1.00  0.00     0.034 A 
HETATM   12  C8  UNL     1      27.337   4.342  48.911  1.00  0.00     0.032 A 
HETATM   13  C9  UNL     1      26.648   3.404  49.648  1.00  0.00     0.041 A 
HETATM   14  C10 UNL     1      25.443   3.673  50.263  1.00  0.00     0.091 A 
HETATM   15  C18 UNL     1      24.900   4.936  50.136  1.00  0.00     0.069 A 
HETATM   16 CL2  UNL     1      23.361   5.280  50.920  1.00  0.00    -0.081 Cl
HETATM   17  C19 UNL     1      25.556   5.912  49.405  1.00  0.00     0.056 A 
BRANCH  14  18
HETATM   18  O1  UNL     1      24.760   2.727  50.999  1.00  0.00    -0.345 OA
BRANCH  18  19
HETATM   19  C11 UNL     1      25.046   2.620  52.386  1.00  0.00     0.214 C 
BRANCH  19  20
HETATM   20  C12 UNL     1      26.084   1.581  52.640  1.00  0.00    -0.034 A 
HETATM   21  C13 UNL     1      25.765   0.257  52.396  1.00  0.00     0.009 A 
HETATM   22  C14 UNL     1      26.606  -0.804  52.578  1.00  0.00     0.001 A 
HETATM   23  C15 UNL     1      27.874  -0.483  53.046  1.00  0.00     0.000 A 
HETATM   24  C16 UNL     1      28.237   0.842  53.305  1.00  0.00     0.001 A 
HETATM   25  C17 UNL     1      27.328   1.881  53.098  1.00  0.00     0.009 A 
ENDBRANCH  19  20
ENDBRANCH  18  19
ENDBRANCH  14  18
ENDBRANCH   9  11
ENDBRANCH   8   9
TORSDOF 5
ENDMDL
MODEL 3
REMARK VINA RESULT:      -7.7      3.305      9.022
REMARK  5 active torsions:
REMARK  status: ('A' for Active; 'I' for Inactive)
REMARK    1  A    between atoms: C6_8  and  N2_9 
REMARK    2  A    between atoms: N2_9  and  C7_10 
REMARK    3  A    between atoms: C10_13  and  O1_14 
REMARK    4  A    between atoms: O1_14  and  C11_15 
REMARK    5  A    between atoms: C11_15  and  C12_16 
ROOT
HETATM    1  N1  UNL     1      19.569   3.605  52.183  1.00  0.00    -0.191 NA
HETATM    2  C1  UNL     1      19.023   2.615  51.900  1.00  0.00     0.102 C 
HETATM    3  C2  UNL     1      18.360   1.373  51.549  1.00  0.00     0.084 C 
HETATM    4  C3  UNL     1      17.449   1.217  50.630  1.00  0.00     0.022 C 
HETATM    5  C4  UNL     1      17.154  -0.047  50.378  1.00  0.00     0.049 C 
HETATM    6 CL1  UNL     1      16.176  -0.653  49.092  1.00  0.00    -0.083 Cl
HETATM    7  C5  UNL     1      17.841  -0.786  51.430  1.00  0.00     0.056 C 
HETATM    8  C6  UNL     1      18.577   0.041  52.153  1.00  0.00     0.056 C 
ENDROOT
BRANCH   8   9
HETATM    9  N2  UNL     1      19.428  -0.160  53.274  1.00  0.00    -0.355 N 
HETATM   10  H2  UNL     1      19.018  -0.378  54.207  1.00  0.00     0.166 HD
BRANCH   9  11
HETATM   11  C7  UNL     1      20.843  -0.088  53.236  1.00  0.00     0.034 A 
HETATM   12  C8  UNL     1      21.617   0.525  52.269  1.00  0.00     0.032 A 
HETATM   13  C9  UNL     1      22.985   0.481  52.426  1.00  0.00     0.041 A 
HETATM   14  C10 UNL     1      23.596  -0.143  53.495  1.00  0.00     0.091 A 
HETATM   15  C18 UNL     1      22.805  -0.750  54.449  1.00  0.00     0.069 A 
HETATM   16 CL2  UNL     1      23.585  -1.546  55.813  1.00  0.00    -0.081 Cl
HETATM   17  C19 UNL     1      21.425  -0.731  54.334  1.00  0.00     0.056 A 
BRANCH  14  18
HETATM   18  O1  UNL     1      24.967  -0.182  53.643  1.00  0.00    -0.345 OA
BRANCH  18  19
HETATM   19  C11 UNL     1      25.715  -0.998  52.753  1.00  0.00     0.214 C 
BRANCH  19  20
HETATM   20  C12 UNL     1      27.170  -0.944  53.075  1.00  0.00    -0.034 A 
HETATM   21  C13 UNL     1      27.924  -2.093  52.918  1.00  0.00     0.009 A 
HETATM   22  C14 UNL     1      29.262  -2.200  53.169  1.00  0.00     0.001 A 
HETATM   23  C15 UNL     1      29.877  -1.038  53.615  1.00  0.00     0.000 A 
HETATM   24  C16 UNL     1      29.152   0.146  53.787  1.00  0.00     0.001 A 
HETATM   25  C17 UNL     1      27.783   0.187  53.512  1.00  0.00     0.009 A 
ENDBRANCH  19  20
ENDBRANCH  18  19
ENDBRANCH  14  18
ENDBRANCH   9  11
ENDBRANCH   8   9
TORSDOF 5
ENDMDL
MODEL 4
REMARK VINA RESULT:      -7.6      5.811      7.607
REMARK  5 active torsions:
REMARK  status: ('A' for Active; 'I' for Inactive)
REMARK    1  A    between atoms: C6_8  and  N2_9 
REMARK    2  A    between atoms: N2_9  and  C7_10 
REMARK    3  A    between atoms: C10_13  and  O1_14 
REMARK    4  A    between atoms: O1_14  and  C11_15 
REMARK    5  A    between atoms: C11_15  and  C12_16 
ROOT
HETATM    1  N1  UNL     1      26.907  10.253  49.568  1.00  0.00    -0.191 NA
HETATM    2  C1  UNL     1      27.819   9.593  49.266  1.00  0.00     0.102 C 
HETATM    3  C2  UNL     1      28.946   8.755  48.900  1.00  0.00     0.084 C 
HETATM    4  C3  UNL     1      30.207   9.058  49.028  1.00  0.00     0.022 C 
HETATM    5  C4  UNL     1      31.026   8.044  48.804  1.00  0.00     0.049 C 
HETATM    6 CL1  UNL     1      32.727   7.996  49.089  1.00  0.00    -0.083 Cl
HETATM    7  C5  UNL     1      30.159   7.003  48.268  1.00  0.00     0.056 C 
HETATM    8  C6  UNL     1      28.898   7.399  48.313  1.00  0.00     0.056 C 
ENDROOT
BRANCH   8   9
HETATM    9  N2  UNL     1      27.681   6.776  47.925  1.00  0.00    -0.355 N 
HETATM   10  H2  UNL     1      27.234   7.025  47.018  1.00  0.00     0.166 HD
BRANCH   9  11
HETATM   11  C7  UNL     1      26.991   5.804  48.693  1.00  0.00     0.034 A 
HETATM   12  C8  UNL     1      27.327   4.471  48.839  1.00  0.00     0.032 A 
HETATM   13  C9  UNL     1      26.518   3.696  49.640  1.00  0.00     0.041 A 
HETATM   14  C10 UNL     1      25.406   4.195  50.288  1.00  0.00     0.091 A 
HETATM   15  C18 UNL     1      25.088   5.528  50.129  1.00  0.00     0.069 A 
HETATM   16 CL2  UNL     1      23.669   6.165  50.956  1.00  0.00    -0.081 Cl
HETATM   17  C19 UNL     1      25.872   6.347  49.333  1.00  0.00     0.056 A 
BRANCH  14  18
HETATM   18  O1  UNL     1      24.602   3.409  51.088  1.00  0.00    -0.345 OA
BRANCH  18  19
HETATM   19  C11 UNL     1      25.228   2.534  52.016  1.00  0.00     0.214 C 
BRANCH  19  20
HETATM   20  C12 UNL     1      24.321   1.411  52.386  1.00  0.00    -0.034 A 
HETATM   21  C13 UNL     1      23.051   1.379  51.839  1.00  0.00     0.009 A 
HETATM   22  C14 UNL     1      22.111   0.418  52.080  1.00  0.00     0.001 A 
HETATM   23  C15 UNL     1      22.503  -0.590  52.950  1.00  0.00     0.000 A 
HETATM   24  C16 UNL     1      23.777  -0.596  53.526  1.00  0.00     0.001 A 
HETATM   25  C17 UNL     1      24.692   0.418  53.238  1.00  0.00     0.009 A 
ENDBRANCH  19  20
ENDBRANCH  18  19
ENDBRANCH  14  18
ENDBRANCH   9  11
ENDBRANCH   8   9
TORSDOF 5
ENDMDL
MODEL 5
REMARK VINA RESULT:      -7.5      4.812      7.931
REMARK  5 active torsions:
REMARK  status: ('A' for Active; 'I' for Inactive)
REMARK    1  A    between atoms: C6_8  and  N2_9 
REMARK    2  A    between atoms: N2_9  and  C7_10 
REMARK    3  A    between atoms: C10_13  and  O1_14 
REMARK    4  A    between atoms: O1_14  and  C11_15 
REMARK    5  A    between atoms: C11_15  and  C12_16 
ROOT
HETATM    1  N1  UNL     1      23.091   7.719  50.822  1.00  0.00    -0.191 NA
HETATM    2  C1  UNL     1      24.097   7.506  50.273  1.00  0.00     0.102 C 
HETATM    3  C2  UNL     1      25.351   7.224  49.600  1.00  0.00     0.084 C 
HETATM    4  C3  UNL     1      26.301   8.080  49.347  1.00  0.00     0.022 C 
HETATM    5  C4  UNL     1      27.416   7.527  48.903  1.00  0.00     0.049 C 
HETATM    6 CL1  UNL     1      28.943   8.296  48.675  1.00  0.00    -0.083 Cl
HETATM    7  C5  UNL     1      27.046   6.138  48.658  1.00  0.00     0.056 C 
HETATM    8  C6  UNL     1      25.808   5.922  49.068  1.00  0.00     0.056 C 
ENDROOT
BRANCH   8   9
HETATM    9  N2  UNL     1      24.982   4.766  49.063  1.00  0.00    -0.355 N 
HETATM   10  H2  UNL     1      24.176   4.704  48.406  1.00  0.00     0.166 HD
BRANCH   9  11
HETATM   11  C7  UNL     1      25.163   3.641  49.906  1.00  0.00     0.034 A 
HETATM   12  C8  UNL     1      26.362   3.156  50.396  1.00  0.00     0.032 A 
HETATM   13  C9  UNL     1      26.314   2.045  51.208  1.00  0.00     0.041 A 
HETATM   14  C10 UNL     1      25.134   1.411  51.541  1.00  0.00     0.091 A 
HETATM   15  C18 UNL     1      23.949   1.910  51.042  1.00  0.00     0.069 A 
HETATM   16 CL2  UNL     1      22.443   1.102  51.467  1.00  0.00    -0.081 Cl
HETATM   17  C19 UNL     1      23.947   3.026  50.221  1.00  0.00     0.056 A 
BRANCH  14  18
HETATM   18  O1  UNL     1      25.097   0.298  52.355  1.00  0.00    -0.345 OA
BRANCH  18  19
HETATM   19  C11 UNL     1      25.854   0.319  53.557  1.00  0.00     0.214 C 
BRANCH  19  20
HETATM   20  C12 UNL     1      27.093  -0.499  53.423  1.00  0.00    -0.034 A 
HETATM   21  C13 UNL     1      28.293   0.047  53.840  1.00  0.00     0.009 A 
HETATM   22  C14 UNL     1      29.507  -0.577  53.782  1.00  0.00     0.001 A 
HETATM   23  C15 UNL     1      29.489  -1.863  53.257  1.00  0.00     0.000 A 
HETATM   24  C16 UNL     1      28.297  -2.452  52.824  1.00  0.00     0.001 A 
HETATM   25  C17 UNL     1      27.089  -1.758  52.911  1.00  0.00     0.009 A 
ENDBRANCH  19  20
ENDBRANCH  18  19
ENDBRANCH  14  18
ENDBRANCH   9  11
ENDBRANCH   8   9
TORSDOF 5
ENDMDL
MODEL 6
REMARK VINA RESULT:      -7.5      3.630      8.598
REMARK  5 active torsions:
REMARK  status: ('A' for Active; 'I' for Inactive)
REMARK    1  A    between atoms: C6_8  and  N2_9 
REMARK    2  A    between atoms: N2_9  and  C7_10 
REMARK    3  A    between atoms: C10_13  and  O1_14 
REMARK    4  A    between atoms: O1_14  and  C11_15 
REMARK    5  A    between atoms: C11_15  and  C12_16 
ROOT
HETATM    1  N1  UNL     1      18.160   3.528  51.924  1.00  0.00    -0.191 NA
HETATM    2  C1  UNL     1      18.766   3.193  50.986  1.00  0.00     0.102 C 
HETATM    3  C2  UNL     1      19.536   2.773  49.830  1.00  0.00     0.084 C 
HETATM    4  C3  UNL     1      19.501   3.309  48.643  1.00  0.00     0.022 C 
HETATM    5  C4  UNL     1      20.443   2.866  47.827  1.00  0.00     0.049 C 
HETATM    6 CL1  UNL     1      20.852   3.489  46.272  1.00  0.00    -0.083 Cl
HETATM    7  C5  UNL     1      21.035   1.746  48.549  1.00  0.00     0.056 C 
HETATM    8  C6  UNL     1      20.511   1.663  49.760  1.00  0.00     0.056 C 
ENDROOT
BRANCH   8   9
HETATM    9  N2  UNL     1      20.735   0.773  50.845  1.00  0.00    -0.355 N 
HETATM   10  H2  UNL     1      19.991   0.103  51.131  1.00  0.00     0.166 HD
BRANCH   9  11
HETATM   11  C7  UNL     1      21.931   0.710  51.603  1.00  0.00     0.034 A 
HETATM   12  C8  UNL     1      23.110   1.386  51.352  1.00  0.00     0.032 A 
HETATM   13  C9  UNL     1      24.158   1.184  52.222  1.00  0.00     0.041 A 
HETATM   14  C10 UNL     1      24.072   0.345  53.314  1.00  0.00     0.091 A 
HETATM   15  C18 UNL     1      22.887  -0.322  53.548  1.00  0.00     0.069 A 
HETATM   16 CL2  UNL     1      22.778  -1.393  54.942  1.00  0.00    -0.081 Cl
HETATM   17  C19 UNL     1      21.806  -0.150  52.700  1.00  0.00     0.056 A 
BRANCH  14  18
HETATM   18  O1  UNL     1      25.128   0.148  54.180  1.00  0.00    -0.345 OA
BRANCH  18  19
HETATM   19  C11 UNL     1      26.293   0.945  54.011  1.00  0.00     0.214 C 
BRANCH  19  20
HETATM   20  C12 UNL     1      27.482   0.096  53.715  1.00  0.00    -0.034 A 
HETATM   21  C13 UNL     1      28.741   0.620  53.946  1.00  0.00     0.009 A 
HETATM   22  C14 UNL     1      29.920  -0.033  53.726  1.00  0.00     0.001 A 
HETATM   23  C15 UNL     1      29.800  -1.325  53.231  1.00  0.00     0.000 A 
HETATM   24  C16 UNL     1      28.546  -1.893  52.983  1.00  0.00     0.001 A 
HETATM   25  C17 UNL     1      27.378  -1.170  53.230  1.00  0.00     0.009 A 
ENDBRANCH  19  20
ENDBRANCH  18  19
ENDBRANCH  14  18
ENDBRANCH   9  11
ENDBRANCH   8   9
TORSDOF 5
ENDMDL
MODEL 7
REMARK VINA RESULT:      -7.4      2.634      3.697
REMARK  5 active torsions:
REMARK  status: ('A' for Active; 'I' for Inactive)
REMARK    1  A    between atoms: C6_8  and  N2_9 
REMARK    2  A    between atoms: N2_9  and  C7_10 
REMARK    3  A    between atoms: C10_13  and  O1_14 
REMARK    4  A    between atoms: O1_14  and  C11_15 
REMARK    5  A    between atoms: C11_15  and  C12_16 
ROOT
HETATM    1  N1  UNL     1      26.771  -2.812  51.789  1.00  0.00    -0.191 NA
HETATM    2  C1  UNL     1      26.981  -1.916  52.505  1.00  0.00     0.102 C 
HETATM    3  C2  UNL     1      27.226  -0.793  53.389  1.00  0.00     0.084 C 
HETATM    4  C3  UNL     1      28.377  -0.227  53.618  1.00  0.00     0.022 C 
HETATM    5  C4  UNL     1      28.294   0.898  54.308  1.00  0.00     0.049 C 
HETATM    6 CL1  UNL     1      29.558   2.032  54.610  1.00  0.00    -0.083 Cl
HETATM    7  C5  UNL     1      26.904   0.941  54.743  1.00  0.00     0.056 C 
HETATM    8  C6  UNL     1      26.232  -0.063  54.206  1.00  0.00     0.056 C 
ENDROOT
BRANCH   8   9
HETATM    9  N2  UNL     1      24.874  -0.471  54.300  1.00  0.00    -0.355 N 
HETATM   10  H2  UNL     1      24.605  -1.244  54.944  1.00  0.00     0.166 HD
BRANCH   9  11
HETATM   11  C7  UNL     1      23.806   0.106  53.568  1.00  0.00     0.034 A 
HETATM   12  C8  UNL     1      23.888   1.147  52.661  1.00  0.00     0.032 A 
HETATM   13  C9  UNL     1      22.721   1.554  52.053  1.00  0.00     0.041 A 
HETATM   14  C10 UNL     1      21.498   0.970  52.313  1.00  0.00     0.091 A 
HETATM   15  C18 UNL     1      21.437  -0.067  53.220  1.00  0.00     0.069 A 
HETATM   16 CL2  UNL     1      19.876  -0.812  53.552  1.00  0.00    -0.081 Cl
HETATM   17  C19 UNL     1      22.584  -0.511  53.857  1.00  0.00     0.056 A 
BRANCH  14  18
HETATM   18  O1  UNL     1      20.335   1.385  51.698  1.00  0.00    -0.345 OA
BRANCH  18  19
HETATM   19  C11 UNL     1      20.086   0.950  50.369  1.00  0.00     0.214 C 
BRANCH  19  20
HETATM   20  C12 UNL     1      20.825   1.790  49.384  1.00  0.00    -0.034 A 
HETATM   21  C13 UNL     1      20.601   3.155  49.381  1.00  0.00     0.009 A 
HETATM   22  C14 UNL     1      21.201   4.051  48.543  1.00  0.00     0.001 A 
HETATM   23  C15 UNL     1      22.102   3.507  47.638  1.00  0.00     0.000 A 
HETATM   24  C16 UNL     1      22.357   2.132  47.607  1.00  0.00     0.001 A 
HETATM   25  C17 UNL     1      21.708   1.269  48.492  1.00  0.00     0.009 A 
ENDBRANCH  19  20
ENDBRANCH  18  19
ENDBRANCH  14  18
ENDBRANCH   9  11
ENDBRANCH   8   9
TORSDOF 5
ENDMDL
MODEL 8
REMARK VINA RESULT:      -7.4      2.098      3.046
REMARK  5 active torsions:
REMARK  status: ('A' for Active; 'I' for Inactive)
REMARK    1  A    between atoms: C6_8  and  N2_9 
REMARK    2  A    between atoms: N2_9  and  C7_10 
REMARK    3  A    between atoms: C10_13  and  O1_14 
REMARK    4  A    between atoms: O1_14  and  C11_15 
REMARK    5  A    between atoms: C11_15  and  C12_16 
ROOT
HETATM    1  N1  UNL     1      23.903  -0.523  53.633  1.00  0.00    -0.191 NA
HETATM    2  C1  UNL     1      24.985  -0.090  53.622  1.00  0.00     0.102 C 
HETATM    3  C2  UNL     1      26.327   0.460  53.590  1.00  0.00     0.084 C 
HETATM    4  C3  UNL     1      27.435  -0.194  53.801  1.00  0.00     0.022 C 
HETATM    5  C4  UNL     1      28.527   0.496  53.519  1.00  0.00     0.049 C 
HETATM    6 CL1  UNL     1      30.146  -0.094  53.457  1.00  0.00    -0.083 Cl
HETATM    7  C5  UNL     1      28.036   1.848  53.281  1.00  0.00     0.056 C 
HETATM    8  C6  UNL     1      26.715   1.860  53.316  1.00  0.00     0.056 C 
ENDROOT
BRANCH   8   9
HETATM    9  N2  UNL     1      25.759   2.898  53.147  1.00  0.00    -0.355 N 
HETATM   10  H2  UNL     1      25.749   3.709  53.801  1.00  0.00     0.166 HD
BRANCH   9  11
HETATM   11  C7  UNL     1      24.776   2.932  52.126  1.00  0.00     0.034 A 
HETATM   12  C8  UNL     1      24.964   2.661  50.784  1.00  0.00     0.032 A 
HETATM   13  C9  UNL     1      23.866   2.748  49.957  1.00  0.00     0.041 A 
HETATM   14  C10 UNL     1      22.610   3.091  50.414  1.00  0.00     0.091 A 
HETATM   15  C18 UNL     1      22.443   3.359  51.757  1.00  0.00     0.069 A 
HETATM   16 CL2  UNL     1      20.840   3.797  52.341  1.00  0.00    -0.081 Cl
HETATM   17  C19 UNL     1      23.518   3.283  52.627  1.00  0.00     0.056 A 
BRANCH  14  18
HETATM   18  O1  UNL     1      21.517   3.176  49.577  1.00  0.00    -0.345 OA
BRANCH  18  19
HETATM   19  C11 UNL     1      21.016   1.977  49.002  1.00  0.00     0.214 C 
BRANCH  19  20
HETATM   20  C12 UNL     1      20.073   1.293  49.932  1.00  0.00    -0.034 A 
HETATM   21  C13 UNL     1      18.715   1.476  49.748  1.00  0.00     0.009 A 
HETATM   22  C14 UNL     1      17.731   0.917  50.513  1.00  0.00     0.001 A 
HETATM   23  C15 UNL     1      18.175   0.104  51.548  1.00  0.00     0.000 A 
HETATM   24  C16 UNL     1      19.539  -0.108  51.769  1.00  0.00     0.001 A 
HETATM   25  C17 UNL     1      20.494   0.495  50.949  1.00  0.00     0.009 A 
ENDBRANCH  19  20
ENDBRANCH  18  19
ENDBRANCH  14  18
ENDBRANCH   9  11
ENDBRANCH   8   9
TORSDOF 5
ENDMDL
MODEL 9
REMARK VINA RESULT:      -7.2      4.781      7.520
REMARK  5 active torsions:
REMARK  status: ('A' for Active; 'I' for Inactive)
REMARK    1  A    between atoms: C6_8  and  N2_9 
REMARK    2  A    between atoms: N2_9  and  C7_10 
REMARK    3  A    between atoms: C10_13  and  O1_14 
REMARK    4  A    between atoms: O1_14  and  C11_15 
REMARK    5  A    between atoms: C11_15  and  C12_16 
ROOT
HETATM    1  N1  UNL     1      22.051  -1.433  55.029  1.00  0.00    -0.191 NA
HETATM    2  C1  UNL     1      23.050  -1.043  54.570  1.00  0.00     0.102 C 
HETATM    3  C2  UNL     1      24.283  -0.557  53.981  1.00  0.00     0.084 C 
HETATM    4  C3  UNL     1      25.477  -1.040  54.179  1.00  0.00     0.022 C 
HETATM    5  C4  UNL     1      26.398  -0.541  53.371  1.00  0.00     0.049 C 
HETATM    6 CL1  UNL     1      28.023  -1.086  53.181  1.00  0.00    -0.083 Cl
HETATM    7  C5  UNL     1      25.717   0.558  52.699  1.00  0.00     0.056 C 
HETATM    8  C6  UNL     1      24.440   0.576  53.043  1.00  0.00     0.056 C 
ENDROOT
BRANCH   8   9
HETATM    9  N2  UNL     1      23.358   1.423  52.679  1.00  0.00    -0.355 N 
HETATM   10  H2  UNL     1      22.418   1.278  53.102  1.00  0.00     0.166 HD
BRANCH   9  11
HETATM   11  C7  UNL     1      23.448   2.493  51.754  1.00  0.00     0.034 A 
HETATM   12  C8  UNL     1      23.823   3.796  52.025  1.00  0.00     0.032 A 
HETATM   13  C9  UNL     1      23.846   4.683  50.972  1.00  0.00     0.041 A 
HETATM   14  C10 UNL     1      23.514   4.324  49.682  1.00  0.00     0.091 A 
HETATM   15  C18 UNL     1      23.142   3.019  49.432  1.00  0.00     0.069 A 
HETATM   16 CL2  UNL     1      22.717   2.560  47.785  1.00  0.00    -0.081 Cl
HETATM   17  C19 UNL     1      23.103   2.090  50.459  1.00  0.00     0.056 A 
BRANCH  14  18
HETATM   18  O1  UNL     1      23.540   5.221  48.634  1.00  0.00    -0.345 OA
BRANCH  18  19
HETATM   19  C11 UNL     1      23.881   6.571  48.915  1.00  0.00     0.214 C 
BRANCH  19  20
HETATM   20  C12 UNL     1      25.193   6.929  48.304  1.00  0.00    -0.034 A 
HETATM   21  C13 UNL     1      26.332   6.297  48.767  1.00  0.00     0.009 A 
HETATM   22  C14 UNL     1      27.599   6.516  48.308  1.00  0.00     0.001 A 
HETATM   23  C15 UNL     1      27.708   7.458  47.293  1.00  0.00     0.000 A 
HETATM   24  C16 UNL     1      26.582   8.121  46.796  1.00  0.00     0.001 A 
HETATM   25  C17 UNL     1      25.313   7.849  47.310  1.00  0.00     0.009 A 
ENDBRANCH  19  20
ENDBRANCH  18  19
ENDBRANCH  14  18
ENDBRANCH   9  11
ENDBRANCH   8   9
TORSDOF 5
ENDMDL
