MODEL 1
REMARK VINA RESULT:      -8.2      0.000      0.000
REMARK  3 active torsions:
REMARK  status: ('A' for Active; 'I' for Inactive)
REMARK    1  A    between atoms: C2_2  and  C3_3 
REMARK    2  A    between atoms: C2_2  and  O1_26 
REMARK    3  A    between atoms: C13_18  and  C14_19 
ROOT
HETATM    1  C3  UNL     1      23.424   1.663  51.240  1.00  0.00     0.063 C 
HETATM    2  C4  UNL     1      24.482   2.100  51.912  1.00  0.00     0.043 C 
HETATM    3  N1  UNL     1      24.416   2.931  53.066  1.00  0.00    -0.248 NA
HETATM    4  C5  UNL     1      24.013   4.175  52.979  1.00  0.00     0.204 C 
HETATM    5  N2  UNL     1      23.546   5.234  52.152  1.00  0.00    -0.362 N 
HETATM    6  C6  UNL     1      24.192   5.442  50.884  1.00  0.00     0.200 C 
HETATM    7  C7  UNL     1      23.606   6.614  50.126  1.00  0.00     0.069 C 
HETATM    8  C8  UNL     1      23.879   7.935  50.776  1.00  0.00     0.020 C 
HETATM    9  C9  UNL     1      22.189   6.339  49.882  1.00  0.00     0.017 C 
HETATM   10 CL1  UNL     1      20.711   7.215  50.243  1.00  0.00    -0.089 Cl
HETATM   11  C10 UNL     1      22.019   5.178  49.257  1.00  0.00     0.013 C 
HETATM   12  C11 UNL     1      23.239   4.389  48.924  1.00  0.00     0.161 C 
HETATM   13  N3  UNL     1      24.165   4.320  50.004  1.00  0.00    -0.330 N 
HETATM   14  S1  UNL     1      25.725   3.684  49.583  1.00  0.00    -0.055 SA
HETATM   15  C12 UNL     1      26.587   2.969  51.021  1.00  0.00     0.108 C 
HETATM   16  C13 UNL     1      25.873   1.754  51.517  1.00  0.00     0.053 C 
HETATM   17  H5  UNL     1      22.750   5.709  52.658  1.00  0.00     0.162 HD
ENDROOT
BRANCH  16  18
HETATM   18  C14 UNL     1      26.597   1.014  52.609  1.00  0.00    -0.001 C 
HETATM   19  C15 UNL     1      27.765   1.694  53.185  1.00  0.00     0.035 C 
HETATM   20  C16 UNL     1      28.900   0.886  53.673  1.00  0.00     0.272 C 
HETATM   21  N4  UNL     1      28.940  -0.475  53.197  1.00  0.00     0.084 N 
HETATM   22  C17 UNL     1      29.985  -1.226  53.825  1.00  0.00     0.309 C 
HETATM   23  C18 UNL     1      27.648  -1.078  53.299  1.00  0.00     0.272 C 
HETATM   24  C19 UNL     1      26.837  -0.418  52.177  1.00  0.00     0.035 C 
ENDBRANCH  16  18
BRANCH   1  25
HETATM   25  C2  UNL     1      22.064   1.978  51.600  1.00  0.00     0.060 C 
HETATM   26  C1  UNL     1      21.331   1.064  52.257  1.00  0.00     0.051 C 
BRANCH  25  27
HETATM   27  O1  UNL     1      21.421   3.158  51.331  1.00  0.00    -0.357 OA
HETATM   28  C20 UNL     1      20.251   3.605  51.963  1.00  0.00     0.210 C 
ENDBRANCH  25  27
ENDBRANCH   1  25
TORSDOF 3
ENDMDL
MODEL 2
REMARK VINA RESULT:      -7.2      3.882      7.043
REMARK  3 active torsions:
REMARK  status: ('A' for Active; 'I' for Inactive)
REMARK    1  A    between atoms: C2_2  and  C3_3 
REMARK    2  A    between atoms: C2_2  and  O1_26 
REMARK    3  A    between atoms: C13_18  and  C14_19 
ROOT
HETATM    1  C3  UNL     1      21.548   0.943  52.988  1.00  0.00     0.063 C 
HETATM    2  C4  UNL     1      20.730   0.744  51.961  1.00  0.00     0.043 C 
HETATM    3  N1  UNL     1      21.138   0.250  50.691  1.00  0.00    -0.248 NA
HETATM    4  C5  UNL     1      21.888   0.972  49.895  1.00  0.00     0.204 C 
HETATM    5  N2  UNL     1      22.582   2.196  49.677  1.00  0.00    -0.362 N 
HETATM    6  C6  UNL     1      21.926   3.423  50.037  1.00  0.00     0.200 C 
HETATM    7  C7  UNL     1      22.773   4.639  49.728  1.00  0.00     0.069 C 
HETATM    8  C8  UNL     1      22.964   4.869  48.261  1.00  0.00     0.020 C 
HETATM    9  C9  UNL     1      24.016   4.538  50.494  1.00  0.00     0.017 C 
HETATM   10 CL1  UNL     1      25.714   4.574  50.048  1.00  0.00    -0.089 Cl
HETATM   11  C10 UNL     1      23.776   4.388  51.794  1.00  0.00     0.013 C 
HETATM   12  C11 UNL     1      22.353   4.350  52.232  1.00  0.00     0.161 C 
HETATM   13  N3  UNL     1      21.542   3.520  51.408  1.00  0.00    -0.330 N 
HETATM   14  S1  UNL     1      19.833   3.676  51.677  1.00  0.00    -0.055 SA
HETATM   15  C12 UNL     1      18.918   2.183  51.170  1.00  0.00     0.108 C 
HETATM   16  C13 UNL     1      19.272   1.022  52.042  1.00  0.00     0.053 C 
HETATM   17  H5  UNL     1      23.523   1.960  49.260  1.00  0.00     0.162 HD
ENDROOT
BRANCH  16  18
HETATM   18  C14 UNL     1      18.451  -0.213  51.790  1.00  0.00    -0.001 C 
HETATM   19  C15 UNL     1      17.378  -0.083  50.795  1.00  0.00     0.035 C 
HETATM   20  C16 UNL     1      16.145  -0.878  50.959  1.00  0.00     0.272 C 
HETATM   21  N4  UNL     1      15.932  -1.425  52.277  1.00  0.00     0.084 N 
HETATM   22  C17 UNL     1      14.794  -2.294  52.313  1.00  0.00     0.309 C 
HETATM   23  C18 UNL     1      17.134  -2.019  52.772  1.00  0.00     0.272 C 
HETATM   24  C19 UNL     1      18.030  -0.821  53.112  1.00  0.00     0.035 C 
ENDBRANCH  16  18
BRANCH   1  25
HETATM   25  C2  UNL     1      22.964   0.680  52.942  1.00  0.00     0.060 C 
HETATM   26  C1  UNL     1      23.448  -0.419  53.545  1.00  0.00     0.051 C 
BRANCH  25  27
HETATM   27  O1  UNL     1      23.902   1.464  52.321  1.00  0.00    -0.357 OA
HETATM   28  C20 UNL     1      25.224   1.083  52.047  1.00  0.00     0.210 C 
ENDBRANCH  25  27
ENDBRANCH   1  25
TORSDOF 3
ENDMDL
MODEL 3
REMARK VINA RESULT:      -7.2      2.146      3.970
REMARK  3 active torsions:
REMARK  status: ('A' for Active; 'I' for Inactive)
REMARK    1  A    between atoms: C2_2  and  C3_3 
REMARK    2  A    between atoms: C2_2  and  O1_26 
REMARK    3  A    between atoms: C13_18  and  C14_19 
ROOT
HETATM    1  C3  UNL     1      23.613   3.913  52.532  1.00  0.00     0.063 C 
HETATM    2  C4  UNL     1      24.049   2.782  51.990  1.00  0.00     0.043 C 
HETATM    3  N1  UNL     1      24.133   2.542  50.590  1.00  0.00    -0.248 NA
HETATM    4  C5  UNL     1      23.051   2.422  49.860  1.00  0.00     0.204 C 
HETATM    5  N2  UNL     1      21.629   2.419  49.806  1.00  0.00    -0.362 N 
HETATM    6  C6  UNL     1      20.911   1.717  50.835  1.00  0.00     0.200 C 
HETATM    7  C7  UNL     1      19.413   1.781  50.635  1.00  0.00     0.069 C 
HETATM    8  C8  UNL     1      18.943   1.025  49.431  1.00  0.00     0.020 C 
HETATM    9  C9  UNL     1      19.006   3.187  50.666  1.00  0.00     0.017 C 
HETATM   10 CL1  UNL     1      18.118   4.211  49.549  1.00  0.00    -0.089 Cl
HETATM   11  C10 UNL     1      19.407   3.786  51.783  1.00  0.00     0.013 C 
HETATM   12  C11 UNL     1      20.167   2.967  52.770  1.00  0.00     0.161 C 
HETATM   13  N3  UNL     1      21.174   2.164  52.164  1.00  0.00    -0.330 N 
HETATM   14  S1  UNL     1      21.879   0.970  53.210  1.00  0.00    -0.055 SA
HETATM   15  C12 UNL     1      23.552   0.488  52.674  1.00  0.00     0.108 C 
HETATM   16  C13 UNL     1      24.504   1.631  52.812  1.00  0.00     0.053 C 
HETATM   17  H5  UNL     1      21.340   2.976  48.956  1.00  0.00     0.162 HD
ENDROOT
BRANCH  16  18
HETATM   18  C14 UNL     1      25.940   1.278  52.534  1.00  0.00    -0.001 C 
HETATM   19  C15 UNL     1      26.225  -0.148  52.323  1.00  0.00     0.035 C 
HETATM   20  C16 UNL     1      27.533  -0.690  52.741  1.00  0.00     0.272 C 
HETATM   21  N4  UNL     1      28.275   0.130  53.668  1.00  0.00     0.084 N 
HETATM   22  C17 UNL     1      29.584  -0.396  53.911  1.00  0.00     0.309 C 
HETATM   23  C18 UNL     1      28.265   1.495  53.244  1.00  0.00     0.272 C 
HETATM   24  C19 UNL     1      26.837   1.969  53.540  1.00  0.00     0.035 C 
ENDBRANCH  16  18
BRANCH   1  25
HETATM   25  C2  UNL     1      23.168   5.047  51.762  1.00  0.00     0.060 C 
HETATM   26  C1  UNL     1      24.014   6.070  51.552  1.00  0.00     0.051 C 
BRANCH  25  27
HETATM   27  O1  UNL     1      21.925   5.193  51.202  1.00  0.00    -0.357 OA
HETATM   28  C20 UNL     1      21.606   6.074  50.158  1.00  0.00     0.210 C 
ENDBRANCH  25  27
ENDBRANCH   1  25
TORSDOF 3
ENDMDL
MODEL 4
REMARK VINA RESULT:      -7.1      3.029      5.939
REMARK  3 active torsions:
REMARK  status: ('A' for Active; 'I' for Inactive)
REMARK    1  A    between atoms: C2_2  and  C3_3 
REMARK    2  A    between atoms: C2_2  and  O1_26 
REMARK    3  A    between atoms: C13_18  and  C14_19 
ROOT
HETATM    1  C3  UNL     1      25.366   2.937  50.306  1.00  0.00     0.063 C 
HETATM    2  C4  UNL     1      24.954   4.194  50.191  1.00  0.00     0.043 C 
HETATM    3  N1  UNL     1      24.521   5.001  51.281  1.00  0.00    -0.248 NA
HETATM    4  C5  UNL     1      23.402   4.739  51.910  1.00  0.00     0.204 C 
HETATM    5  N2  UNL     1      22.253   3.907  52.029  1.00  0.00    -0.362 N 
HETATM    6  C6  UNL     1      21.571   3.513  50.826  1.00  0.00     0.200 C 
HETATM    7  C7  UNL     1      20.360   2.651  51.108  1.00  0.00     0.069 C 
HETATM    8  C8  UNL     1      19.256   3.390  51.801  1.00  0.00     0.020 C 
HETATM    9  C9  UNL     1      20.809   1.442  51.801  1.00  0.00     0.017 C 
HETATM   10 CL1  UNL     1      20.364   0.688  53.323  1.00  0.00    -0.089 Cl
HETATM   11  C10 UNL     1      21.750   0.806  51.109  1.00  0.00     0.013 C 
HETATM   12  C11 UNL     1      22.169   1.400  49.809  1.00  0.00     0.161 C 
HETATM   13  N3  UNL     1      22.375   2.806  49.883  1.00  0.00    -0.330 N 
HETATM   14  S1  UNL     1      22.563   3.596  48.347  1.00  0.00    -0.055 SA
HETATM   15  C12 UNL     1      23.491   5.157  48.485  1.00  0.00     0.108 C 
HETATM   16  C13 UNL     1      24.908   4.899  48.883  1.00  0.00     0.053 C 
HETATM   17  H5  UNL     1      22.101   3.716  53.056  1.00  0.00     0.162 HD
ENDROOT
BRANCH  16  18
HETATM   18  C14 UNL     1      25.786   6.121  48.875  1.00  0.00    -0.001 C 
HETATM   19  C15 UNL     1      25.280   7.274  48.118  1.00  0.00     0.035 C 
HETATM   20  C16 UNL     1      26.240   8.178  47.455  1.00  0.00     0.272 C 
HETATM   21  N4  UNL     1      27.569   7.645  47.279  1.00  0.00     0.084 N 
HETATM   22  C17 UNL     1      28.470   8.630  46.759  1.00  0.00     0.309 C 
HETATM   23  C18 UNL     1      28.021   7.020  48.482  1.00  0.00     0.272 C 
HETATM   24  C19 UNL     1      27.211   5.720  48.555  1.00  0.00     0.035 C 
ENDBRANCH  16  18
BRANCH   1  25
HETATM   25  C2  UNL     1      25.425   2.228  51.559  1.00  0.00     0.060 C 
HETATM   26  C1  UNL     1      26.605   2.113  52.193  1.00  0.00     0.051 C 
BRANCH  25  27
HETATM   27  O1  UNL     1      24.362   1.638  52.193  1.00  0.00    -0.357 OA
HETATM   28  C20 UNL     1      24.451   0.805  53.318  1.00  0.00     0.210 C 
ENDBRANCH  25  27
ENDBRANCH   1  25
TORSDOF 3
ENDMDL
MODEL 5
REMARK VINA RESULT:      -7.0      3.534      5.786
REMARK  3 active torsions:
REMARK  status: ('A' for Active; 'I' for Inactive)
REMARK    1  A    between atoms: C2_2  and  C3_3 
REMARK    2  A    between atoms: C2_2  and  O1_26 
REMARK    3  A    between atoms: C13_18  and  C14_19 
ROOT
HETATM    1  C3  UNL     1      23.650   6.510  50.405  1.00  0.00     0.063 C 
HETATM    2  C4  UNL     1      24.319   5.773  49.527  1.00  0.00     0.043 C 
HETATM    3  N1  UNL     1      23.806   5.363  48.264  1.00  0.00    -0.248 NA
HETATM    4  C5  UNL     1      22.830   4.493  48.183  1.00  0.00     0.204 C 
HETATM    5  N2  UNL     1      21.913   3.645  48.865  1.00  0.00    -0.362 N 
HETATM    6  C6  UNL     1      22.400   2.870  49.974  1.00  0.00     0.200 C 
HETATM    7  C7  UNL     1      21.321   2.002  50.584  1.00  0.00     0.069 C 
HETATM    8  C8  UNL     1      20.866   0.899  49.679  1.00  0.00     0.020 C 
HETATM    9  C9  UNL     1      20.249   2.873  51.066  1.00  0.00     0.017 C 
HETATM   10 CL1  UNL     1      18.521   2.941  50.762  1.00  0.00    -0.089 Cl
HETATM   11  C10 UNL     1      20.711   3.795  51.906  1.00  0.00     0.013 C 
HETATM   12  C11 UNL     1      22.171   3.788  52.202  1.00  0.00     0.161 C 
HETATM   13  N3  UNL     1      22.972   3.633  51.035  1.00  0.00    -0.330 N 
HETATM   14  S1  UNL     1      24.650   3.309  51.343  1.00  0.00    -0.055 SA
HETATM   15  C12 UNL     1      25.714   3.810  49.951  1.00  0.00     0.108 C 
HETATM   16  C13 UNL     1      25.703   5.295  49.782  1.00  0.00     0.053 C 
HETATM   17  H5  UNL     1      20.972   3.748  48.397  1.00  0.00     0.162 HD
ENDROOT
BRANCH  16  18
HETATM   18  C14 UNL     1      26.671   5.806  48.750  1.00  0.00    -0.001 C 
HETATM   19  C15 UNL     1      27.882   4.999  48.544  1.00  0.00     0.035 C 
HETATM   20  C16 UNL     1      29.140   5.672  48.166  1.00  0.00     0.272 C 
HETATM   21  N4  UNL     1      29.177   7.094  48.405  1.00  0.00     0.084 N 
HETATM   22  C17 UNL     1      30.371   7.689  47.883  1.00  0.00     0.309 C 
HETATM   23  C18 UNL     1      27.971   7.709  47.944  1.00  0.00     0.272 C 
HETATM   24  C19 UNL     1      26.918   7.284  48.975  1.00  0.00     0.035 C 
ENDBRANCH  16  18
BRANCH   1  25
HETATM   25  C2  UNL     1      22.310   6.992  50.185  1.00  0.00     0.060 C 
HETATM   26  C1  UNL     1      22.124   8.267  49.804  1.00  0.00     0.051 C 
BRANCH  25  27
HETATM   27  O1  UNL     1      21.163   6.254  50.331  1.00  0.00    -0.357 OA
HETATM   28  C20 UNL     1      19.958   6.489  49.652  1.00  0.00     0.210 C 
ENDBRANCH  25  27
ENDBRANCH   1  25
TORSDOF 3
ENDMDL
MODEL 6
REMARK VINA RESULT:      -6.8      3.800      5.890
REMARK  3 active torsions:
REMARK  status: ('A' for Active; 'I' for Inactive)
REMARK    1  A    between atoms: C2_2  and  C3_3 
REMARK    2  A    between atoms: C2_2  and  O1_26 
REMARK    3  A    between atoms: C13_18  and  C14_19 
ROOT
HETATM    1  C3  UNL     1      21.808   5.102  49.412  1.00  0.00     0.063 C 
HETATM    2  C4  UNL     1      23.007   4.537  49.327  1.00  0.00     0.043 C 
HETATM    3  N1  UNL     1      23.274   3.316  48.647  1.00  0.00    -0.248 NA
HETATM    4  C5  UNL     1      22.820   2.175  49.105  1.00  0.00     0.204 C 
HETATM    5  N2  UNL     1      22.079   1.490  50.110  1.00  0.00    -0.362 N 
HETATM    6  C6  UNL     1      22.289   1.864  51.482  1.00  0.00     0.200 C 
HETATM    7  C7  UNL     1      21.453   1.037  52.436  1.00  0.00     0.069 C 
HETATM    8  C8  UNL     1      21.867  -0.401  52.493  1.00  0.00     0.020 C 
HETATM    9  C9  UNL     1      20.042   1.250  52.110  1.00  0.00     0.017 C 
HETATM   10 CL1  UNL     1      18.720   0.166  51.710  1.00  0.00    -0.089 Cl
HETATM   11  C10 UNL     1      19.727   2.542  52.128  1.00  0.00     0.013 C 
HETATM   12  C11 UNL     1      20.809   3.510  52.462  1.00  0.00     0.161 C 
HETATM   13  N3  UNL     1      22.028   3.234  51.779  1.00  0.00    -0.330 N 
HETATM   14  S1  UNL     1      23.401   4.131  52.353  1.00  0.00    -0.055 SA
HETATM   15  C12 UNL     1      24.694   4.297  51.080  1.00  0.00     0.108 C 
HETATM   16  C13 UNL     1      24.215   5.142  49.945  1.00  0.00     0.053 C 
HETATM   17  H5  UNL     1      21.465   0.781  49.626  1.00  0.00     0.162 HD
ENDROOT
BRANCH  16  18
HETATM   18  C14 UNL     1      25.271   5.456  48.919  1.00  0.00    -0.001 C 
HETATM   19  C15 UNL     1      26.510   4.671  49.007  1.00  0.00     0.035 C 
HETATM   20  C16 UNL     1      27.787   5.295  48.608  1.00  0.00     0.272 C 
HETATM   21  N4  UNL     1      27.775   6.735  48.531  1.00  0.00     0.084 N 
HETATM   22  C17 UNL     1      29.003   7.249  48.004  1.00  0.00     0.309 C 
HETATM   23  C18 UNL     1      26.609   7.187  47.838  1.00  0.00     0.272 C 
HETATM   24  C19 UNL     1      25.467   6.955  48.835  1.00  0.00     0.035 C 
ENDBRANCH  16  18
BRANCH   1  25
HETATM   25  C2  UNL     1      20.619   4.541  48.821  1.00  0.00     0.060 C 
HETATM   26  C1  UNL     1      20.121   5.092  47.701  1.00  0.00     0.051 C 
BRANCH  25  27
HETATM   27  O1  UNL     1      19.919   3.465  49.303  1.00  0.00    -0.357 OA
HETATM   28  C20 UNL     1      18.916   2.775  48.608  1.00  0.00     0.210 C 
ENDBRANCH  25  27
ENDBRANCH   1  25
TORSDOF 3
ENDMDL
MODEL 7
REMARK VINA RESULT:      -6.8      3.473      5.017
REMARK  3 active torsions:
REMARK  status: ('A' for Active; 'I' for Inactive)
REMARK    1  A    between atoms: C2_2  and  C3_3 
REMARK    2  A    between atoms: C2_2  and  O1_26 
REMARK    3  A    between atoms: C13_18  and  C14_19 
ROOT
HETATM    1  C3  UNL     1      24.797   3.937  50.874  1.00  0.00     0.063 C 
HETATM    2  C4  UNL     1      23.669   3.275  50.642  1.00  0.00     0.043 C 
HETATM    3  N1  UNL     1      23.292   2.749  49.375  1.00  0.00    -0.248 NA
HETATM    4  C5  UNL     1      22.978   3.543  48.381  1.00  0.00     0.204 C 
HETATM    5  N2  UNL     1      22.812   4.876  47.911  1.00  0.00    -0.362 N 
HETATM    6  C6  UNL     1      22.149   5.822  48.767  1.00  0.00     0.200 C 
HETATM    7  C7  UNL     1      22.026   7.187  48.128  1.00  0.00     0.069 C 
HETATM    8  C8  UNL     1      21.099   7.209  46.951  1.00  0.00     0.020 C 
HETATM    9  C9  UNL     1      23.374   7.685  47.847  1.00  0.00     0.017 C 
HETATM   10 CL1  UNL     1      24.168   8.260  46.391  1.00  0.00    -0.089 Cl
HETATM   11  C10 UNL     1      24.128   7.690  48.942  1.00  0.00     0.013 C 
HETATM   12  C11 UNL     1      23.507   7.212  50.209  1.00  0.00     0.161 C 
HETATM   13  N3  UNL     1      22.761   6.012  50.042  1.00  0.00    -0.330 N 
HETATM   14  S1  UNL     1      21.769   5.577  51.400  1.00  0.00    -0.055 SA
HETATM   15  C12 UNL     1      21.420   3.789  51.451  1.00  0.00     0.108 C 
HETATM   16  C13 UNL     1      22.669   3.011  51.710  1.00  0.00     0.053 C 
HETATM   17  H5  UNL     1      23.240   4.931  46.947  1.00  0.00     0.162 HD
ENDROOT
BRANCH  16  18
HETATM   18  C14 UNL     1      22.449   1.537  51.917  1.00  0.00    -0.001 C 
HETATM   19  C15 UNL     1      21.050   1.105  52.045  1.00  0.00     0.035 C 
HETATM   20  C16 UNL     1      20.729  -0.050  52.906  1.00  0.00     0.272 C 
HETATM   21  N4  UNL     1      21.755  -0.422  53.850  1.00  0.00     0.084 N 
HETATM   22  C17 UNL     1      21.425  -1.631  54.543  1.00  0.00     0.309 C 
HETATM   23  C18 UNL     1      23.034  -0.447  53.213  1.00  0.00     0.272 C 
HETATM   24  C19 UNL     1      23.377   1.033  53.003  1.00  0.00     0.035 C 
ENDBRANCH  16  18
BRANCH   1  25
HETATM   25  C2  UNL     1      25.787   4.206  49.862  1.00  0.00     0.060 C 
HETATM   26  C1  UNL     1      26.659   3.241  49.524  1.00  0.00     0.051 C 
BRANCH  25  27
HETATM   27  O1  UNL     1      25.933   5.389  49.184  1.00  0.00    -0.357 OA
HETATM   28  C20 UNL     1      27.117   5.830  48.573  1.00  0.00     0.210 C 
ENDBRANCH  25  27
ENDBRANCH   1  25
TORSDOF 3
ENDMDL
MODEL 8
REMARK VINA RESULT:      -6.8      2.437      3.152
REMARK  3 active torsions:
REMARK  status: ('A' for Active; 'I' for Inactive)
REMARK    1  A    between atoms: C2_2  and  C3_3 
REMARK    2  A    between atoms: C2_2  and  O1_26 
REMARK    3  A    between atoms: C13_18  and  C14_19 
ROOT
HETATM    1  C3  UNL     1      21.717   0.693  51.448  1.00  0.00     0.063 C 
HETATM    2  C4  UNL     1      22.532   1.694  51.759  1.00  0.00     0.043 C 
HETATM    3  N1  UNL     1      22.194   2.762  52.638  1.00  0.00    -0.248 NA
HETATM    4  C5  UNL     1      21.297   3.656  52.299  1.00  0.00     0.204 C 
HETATM    5  N2  UNL     1      20.373   4.125  51.323  1.00  0.00    -0.362 N 
HETATM    6  C6  UNL     1      20.787   4.140  49.946  1.00  0.00     0.200 C 
HETATM    7  C7  UNL     1      19.713   4.682  49.029  1.00  0.00     0.069 C 
HETATM    8  C8  UNL     1      19.441   6.141  49.233  1.00  0.00     0.020 C 
HETATM    9  C9  UNL     1      18.533   3.823  49.147  1.00  0.00     0.017 C 
HETATM   10 CL1  UNL     1      16.849   4.134  49.538  1.00  0.00    -0.089 Cl
HETATM   11  C10 UNL     1      18.831   2.551  48.902  1.00  0.00     0.013 C 
HETATM   12  C11 UNL     1      20.246   2.227  48.565  1.00  0.00     0.161 C 
HETATM   13  N3  UNL     1      21.181   2.872  49.423  1.00  0.00    -0.330 N 
HETATM   14  S1  UNL     1      22.833   2.782  48.895  1.00  0.00    -0.055 SA
HETATM   15  C12 UNL     1      24.007   2.961  50.277  1.00  0.00     0.108 C 
HETATM   16  C13 UNL     1      23.909   1.798  51.211  1.00  0.00     0.053 C 
HETATM   17  H5  UNL     1      19.486   4.396  51.827  1.00  0.00     0.162 HD
ENDROOT
BRANCH  16  18
HETATM   18  C14 UNL     1      24.947   1.790  52.300  1.00  0.00    -0.001 C 
HETATM   19  C15 UNL     1      26.275   2.298  51.930  1.00  0.00     0.035 C 
HETATM   20  C16 UNL     1      27.471   1.725  52.578  1.00  0.00     0.272 C 
HETATM   21  N4  UNL     1      27.272   0.456  53.234  1.00  0.00     0.084 N 
HETATM   22  C17 UNL     1      28.438   0.041  53.953  1.00  0.00     0.309 C 
HETATM   23  C18 UNL     1      26.080   0.484  54.023  1.00  0.00     0.272 C 
HETATM   24  C19 UNL     1      24.947   0.442  52.991  1.00  0.00     0.035 C 
ENDBRANCH  16  18
BRANCH   1  25
HETATM   25  C2  UNL     1      20.378   0.563  51.966  1.00  0.00     0.060 C 
HETATM   26  C1  UNL     1      20.203   0.273  53.267  1.00  0.00     0.051 C 
BRANCH  25  27
HETATM   27  O1  UNL     1      19.225   0.711  51.241  1.00  0.00    -0.357 OA
HETATM   28  C20 UNL     1      18.114  -0.144  51.303  1.00  0.00     0.210 C 
ENDBRANCH  25  27
ENDBRANCH   1  25
TORSDOF 3
ENDMDL
MODEL 9
REMARK VINA RESULT:      -6.7      2.244      3.854
REMARK  3 active torsions:
REMARK  status: ('A' for Active; 'I' for Inactive)
REMARK    1  A    between atoms: C2_2  and  C3_3 
REMARK    2  A    between atoms: C2_2  and  O1_26 
REMARK    3  A    between atoms: C13_18  and  C14_19 
ROOT
HETATM    1  C3  UNL     1      23.848   4.603  51.916  1.00  0.00     0.063 C 
HETATM    2  C4  UNL     1      24.167   3.409  51.429  1.00  0.00     0.043 C 
HETATM    3  N1  UNL     1      24.579   3.171  50.088  1.00  0.00    -0.248 NA
HETATM    4  C5  UNL     1      23.739   3.303  49.091  1.00  0.00     0.204 C 
HETATM    5  N2  UNL     1      22.418   3.616  48.663  1.00  0.00    -0.362 N 
HETATM    6  C6  UNL     1      21.315   3.079  49.413  1.00  0.00     0.200 C 
HETATM    7  C7  UNL     1      19.977   3.476  48.828  1.00  0.00     0.069 C 
HETATM    8  C8  UNL     1      19.707   2.857  47.492  1.00  0.00     0.020 C 
HETATM    9  C9  UNL     1      19.882   4.937  48.850  1.00  0.00     0.017 C 
HETATM   10 CL1  UNL     1      19.570   6.144  47.614  1.00  0.00    -0.089 Cl
HETATM   11  C10 UNL     1      20.079   5.419  50.074  1.00  0.00     0.013 C 
HETATM   12  C11 UNL     1      20.349   4.441  51.165  1.00  0.00     0.161 C 
HETATM   13  N3  UNL     1      21.292   3.442  50.792  1.00  0.00    -0.330 N 
HETATM   14  S1  UNL     1      21.416   2.110  51.899  1.00  0.00    -0.055 SA
HETATM   15  C12 UNL     1      23.032   1.275  51.792  1.00  0.00     0.108 C 
HETATM   16  C13 UNL     1      24.128   2.177  52.259  1.00  0.00     0.053 C 
HETATM   17  H5  UNL     1      22.496   4.232  47.808  1.00  0.00     0.162 HD
ENDROOT
BRANCH  16  18
HETATM   18  C14 UNL     1      25.477   1.517  52.346  1.00  0.00    -0.001 C 
HETATM   19  C15 UNL     1      25.476   0.086  52.681  1.00  0.00     0.035 C 
HETATM   20  C16 UNL     1      26.600  -0.472  53.458  1.00  0.00     0.272 C 
HETATM   21  N4  UNL     1      27.412   0.496  54.154  1.00  0.00     0.084 N 
HETATM   22  C17 UNL     1      28.557  -0.111  54.763  1.00  0.00     0.309 C 
HETATM   23  C18 UNL     1      27.725   1.595  53.295  1.00  0.00     0.272 C 
HETATM   24  C19 UNL     1      26.406   2.371  53.184  1.00  0.00     0.035 C 
ENDBRANCH  16  18
BRANCH   1  25
HETATM   25  C2  UNL     1      23.879   5.816  51.138  1.00  0.00     0.060 C 
HETATM   26  C1  UNL     1      22.843   6.669  51.210  1.00  0.00     0.051 C 
BRANCH  25  27
HETATM   27  O1  UNL     1      24.896   6.202  50.303  1.00  0.00    -0.357 OA
HETATM   28  C20 UNL     1      25.668   7.364  50.451  1.00  0.00     0.210 C 
ENDBRANCH  25  27
ENDBRANCH   1  25
TORSDOF 3
ENDMDL
