MODEL 1
REMARK VINA RESULT:      -7.5      0.000      0.000
REMARK  10 active torsions:
REMARK  status: ('A' for Active; 'I' for Inactive)
REMARK    1  A    between atoms: O1_2  and  C2_3 
REMARK    2  A    between atoms: C4_5  and  N1_6 
REMARK    3  A    between atoms: N1_6  and  C6_8 
REMARK    4  A    between atoms: C6_8  and  C7_9 
REMARK    5  A    between atoms: C7_9  and  N2_10 
REMARK    6  A    between atoms: C10_13  and  N3_14 
REMARK    7  A    between atoms: N3_14  and  C11_15 
REMARK    8  A    between atoms: C11_15  and  C13_17 
REMARK    9  A    between atoms: C13_17  and  N4_18 
REMARK   10  A    between atoms: C15_20  and  C16_21 
ROOT
HETATM    1  C2  UNL     1      23.329   0.393  53.163  1.00  0.00     0.084 A 
HETATM    2  C3  UNL     1      22.139   0.990  52.755  1.00  0.00     0.069 A 
HETATM    3  C4  UNL     1      22.126   1.982  51.806  1.00  0.00     0.059 A 
HETATM    4  C10 UNL     1      23.308   2.403  51.239  1.00  0.00     0.056 A 
HETATM    5  C14 UNL     1      24.454   1.784  51.676  1.00  0.00     0.050 A 
HETATM    6  C15 UNL     1      24.551   0.773  52.632  1.00  0.00     0.049 A 
ENDROOT
BRANCH   6   7
HETATM    7  C16 UNL     1      25.849   0.168  53.035  1.00  0.00     0.181 C 
HETATM    8  N5  UNL     1      26.533   1.026  53.612  1.00  0.00    -0.154 NA
HETATM    9  N6  UNL     1      27.697   1.276  54.220  1.00  0.00    -0.288 N 
HETATM   10  C17 UNL     1      29.076   1.122  54.324  1.00  0.00     0.105 C 
HETATM   11  H28 UNL     1      27.240   1.875  54.947  1.00  0.00     0.188 HD
HETATM   12  C18 UNL     1      29.915   0.118  53.991  1.00  0.00    -0.008 C 
HETATM   13  C19 UNL     1      29.595  -1.247  53.356  1.00  0.00     0.033 C 
HETATM   14  C20 UNL     1      28.192  -1.152  53.201  1.00  0.00     0.051 C 
HETATM   15  C21 UNL     1      27.084  -1.887  52.719  1.00  0.00     0.092 C 
HETATM   16  N7  UNL     1      25.955  -1.233  52.645  1.00  0.00    -0.243 NA
ENDBRANCH   6   7
BRANCH   1  17
HETATM   17  O1  UNL     1      23.310  -0.606  54.124  1.00  0.00    -0.355 OA
HETATM   18  C1  UNL     1      22.056  -1.062  54.584  1.00  0.00     0.210 C 
ENDBRANCH   1  17
BRANCH   4  19
HETATM   19  N3  UNL     1      23.363   3.446  50.249  1.00  0.00    -0.382 N 
HETATM   20  H18 UNL     1      23.053   3.146  49.299  1.00  0.00     0.160 HD
BRANCH  19  21
HETATM   21  C11 UNL     1      23.778   4.816  50.363  1.00  0.00     0.105 C 
HETATM   22  C12 UNL     1      25.260   4.964  50.026  1.00  0.00     0.034 C 
BRANCH  21  23
HETATM   23  C13 UNL     1      23.673   5.247  51.828  1.00  0.00     0.291 C 
BRANCH  23  24
HETATM   24  N4  UNL     1      24.268   6.547  51.956  1.00  0.00     0.080 N 
HETATM   25  H25 UNL     1      24.942   6.773  51.212  1.00  0.00     0.312 HD
HETATM   26  H26 UNL     1      23.529   7.271  52.092  1.00  0.00     0.312 HD
ENDBRANCH  23  24
ENDBRANCH  21  23
ENDBRANCH  19  21
ENDBRANCH   4  19
BRANCH   3  27
HETATM   27  N1  UNL     1      20.901   2.559  51.431  1.00  0.00    -0.382 N 
HETATM   28  C5  UNL     1      20.360   3.745  52.110  1.00  0.00     0.150 C 
BRANCH  27  29
HETATM   29  C6  UNL     1      20.050   2.075  50.357  1.00  0.00     0.152 C 
BRANCH  29  30
HETATM   30  C7  UNL     1      18.684   1.680  50.872  1.00  0.00     0.291 C 
BRANCH  30  31
HETATM   31  N2  UNL     1      18.466   0.252  50.864  1.00  0.00     0.081 N 
HETATM   32  C8  UNL     1      17.263  -0.146  50.182  1.00  0.00     0.309 C 
HETATM   33  C9  UNL     1      18.509  -0.317  52.196  1.00  0.00     0.309 C 
ENDBRANCH  30  31
ENDBRANCH  29  30
ENDBRANCH  27  29
ENDBRANCH   3  27
TORSDOF 10
ENDMDL
MODEL 2
REMARK VINA RESULT:      -7.1      1.352      2.084
REMARK  10 active torsions:
REMARK  status: ('A' for Active; 'I' for Inactive)
REMARK    1  A    between atoms: O1_2  and  C2_3 
REMARK    2  A    between atoms: C4_5  and  N1_6 
REMARK    3  A    between atoms: N1_6  and  C6_8 
REMARK    4  A    between atoms: C6_8  and  C7_9 
REMARK    5  A    between atoms: C7_9  and  N2_10 
REMARK    6  A    between atoms: C10_13  and  N3_14 
REMARK    7  A    between atoms: N3_14  and  C11_15 
REMARK    8  A    between atoms: C11_15  and  C13_17 
REMARK    9  A    between atoms: C13_17  and  N4_18 
REMARK   10  A    between atoms: C15_20  and  C16_21 
ROOT
HETATM    1  C2  UNL     1      23.357   0.215  53.108  1.00  0.00     0.084 A 
HETATM    2  C3  UNL     1      22.172   0.820  52.700  1.00  0.00     0.069 A 
HETATM    3  C4  UNL     1      22.177   1.918  51.876  1.00  0.00     0.059 A 
HETATM    4  C10 UNL     1      23.373   2.439  51.438  1.00  0.00     0.056 A 
HETATM    5  C14 UNL     1      24.515   1.807  51.869  1.00  0.00     0.050 A 
HETATM    6  C15 UNL     1      24.593   0.692  52.703  1.00  0.00     0.049 A 
ENDROOT
BRANCH   6   7
HETATM    7  C16 UNL     1      25.886   0.082  53.112  1.00  0.00     0.181 C 
HETATM    8  N5  UNL     1      26.535   0.911  53.768  1.00  0.00    -0.154 NA
HETATM    9  N6  UNL     1      27.673   1.139  54.432  1.00  0.00    -0.288 N 
HETATM   10  C17 UNL     1      29.050   1.001  54.575  1.00  0.00     0.105 C 
HETATM   11  H28 UNL     1      27.180   1.682  55.180  1.00  0.00     0.188 HD
HETATM   12  C18 UNL     1      29.917   0.034  54.207  1.00  0.00    -0.008 C 
HETATM   13  C19 UNL     1      29.644  -1.291  53.474  1.00  0.00     0.033 C 
HETATM   14  C20 UNL     1      28.246  -1.208  53.276  1.00  0.00     0.051 C 
HETATM   15  C21 UNL     1      27.169  -1.928  52.707  1.00  0.00     0.092 C 
HETATM   16  N7  UNL     1      26.032  -1.288  52.636  1.00  0.00    -0.243 NA
ENDBRANCH   6   7
BRANCH   1  17
HETATM   17  O1  UNL     1      23.319  -0.892  53.941  1.00  0.00    -0.355 OA
HETATM   18  C1  UNL     1      22.100  -1.201  54.583  1.00  0.00     0.210 C 
ENDBRANCH   1  17
BRANCH   4  19
HETATM   19  N3  UNL     1      23.447   3.596  50.583  1.00  0.00    -0.382 N 
HETATM   20  H18 UNL     1      23.048   3.445  49.631  1.00  0.00     0.160 HD
BRANCH  19  21
HETATM   21  C11 UNL     1      23.982   4.905  50.832  1.00  0.00     0.105 C 
HETATM   22  C12 UNL     1      22.891   5.967  50.722  1.00  0.00     0.034 C 
BRANCH  21  23
HETATM   23  C13 UNL     1      24.972   5.256  49.719  1.00  0.00     0.291 C 
BRANCH  23  24
HETATM   24  N4  UNL     1      26.259   4.734  50.083  1.00  0.00     0.080 N 
HETATM   25  H25 UNL     1      26.362   4.540  51.089  1.00  0.00     0.312 HD
HETATM   26  H26 UNL     1      26.509   3.928  49.469  1.00  0.00     0.312 HD
ENDBRANCH  23  24
ENDBRANCH  21  23
ENDBRANCH  19  21
ENDBRANCH   4  19
BRANCH   3  27
HETATM   27  N1  UNL     1      20.955   2.499  51.496  1.00  0.00    -0.382 N 
HETATM   28  C5  UNL     1      20.354   3.608  52.250  1.00  0.00     0.150 C 
BRANCH  27  29
HETATM   29  C6  UNL     1      20.166   2.093  50.346  1.00  0.00     0.152 C 
BRANCH  29  30
HETATM   30  C7  UNL     1      20.302   3.080  49.208  1.00  0.00     0.291 C 
BRANCH  30  31
HETATM   31  N2  UNL     1      20.807   2.481  47.994  1.00  0.00     0.081 N 
HETATM   32  C8  UNL     1      21.739   1.409  48.223  1.00  0.00     0.309 C 
HETATM   33  C9  UNL     1      21.371   3.464  47.092  1.00  0.00     0.309 C 
ENDBRANCH  30  31
ENDBRANCH  29  30
ENDBRANCH  27  29
ENDBRANCH   3  27
TORSDOF 10
ENDMDL
MODEL 3
REMARK VINA RESULT:      -7.1      1.619      2.871
REMARK  10 active torsions:
REMARK  status: ('A' for Active; 'I' for Inactive)
REMARK    1  A    between atoms: O1_2  and  C2_3 
REMARK    2  A    between atoms: C4_5  and  N1_6 
REMARK    3  A    between atoms: N1_6  and  C6_8 
REMARK    4  A    between atoms: C6_8  and  C7_9 
REMARK    5  A    between atoms: C7_9  and  N2_10 
REMARK    6  A    between atoms: C10_13  and  N3_14 
REMARK    7  A    between atoms: N3_14  and  C11_15 
REMARK    8  A    between atoms: C11_15  and  C13_17 
REMARK    9  A    between atoms: C13_17  and  N4_18 
REMARK   10  A    between atoms: C15_20  and  C16_21 
ROOT
HETATM    1  C2  UNL     1      23.230   0.200  53.533  1.00  0.00     0.084 A 
HETATM    2  C3  UNL     1      21.979   0.700  53.186  1.00  0.00     0.069 A 
HETATM    3  C4  UNL     1      21.817   1.532  52.105  1.00  0.00     0.059 A 
HETATM    4  C10 UNL     1      22.907   1.885  51.344  1.00  0.00     0.056 A 
HETATM    5  C14 UNL     1      24.120   1.366  51.728  1.00  0.00     0.050 A 
HETATM    6  C15 UNL     1      24.367   0.518  52.807  1.00  0.00     0.049 A 
ENDROOT
BRANCH   6   7
HETATM    7  C16 UNL     1      25.725   0.011  53.139  1.00  0.00     0.181 C 
HETATM    8  N5  UNL     1      26.362   0.907  53.714  1.00  0.00    -0.154 NA
HETATM    9  N6  UNL     1      27.528   1.235  54.280  1.00  0.00    -0.288 N 
HETATM   10  C17 UNL     1      28.918   1.193  54.323  1.00  0.00     0.105 C 
HETATM   11  H28 UNL     1      27.056   1.775  55.043  1.00  0.00     0.188 HD
HETATM   12  C18 UNL     1      29.820   0.270  53.926  1.00  0.00    -0.008 C 
HETATM   13  C19 UNL     1      29.585  -1.099  53.263  1.00  0.00     0.033 C 
HETATM   14  C20 UNL     1      28.173  -1.115  53.169  1.00  0.00     0.051 C 
HETATM   15  C21 UNL     1      27.109  -1.926  52.710  1.00  0.00     0.092 C 
HETATM   16  N7  UNL     1      25.928  -1.366  52.702  1.00  0.00    -0.243 NA
ENDBRANCH   6   7
BRANCH   1  17
HETATM   17  O1  UNL     1      23.362  -0.638  54.630  1.00  0.00    -0.355 OA
HETATM   18  C1  UNL     1      22.249  -1.420  55.008  1.00  0.00     0.210 C 
ENDBRANCH   1  17
BRANCH   4  19
HETATM   19  N3  UNL     1      22.806   2.763  50.207  1.00  0.00    -0.382 N 
HETATM   20  H18 UNL     1      22.694   3.769  50.458  1.00  0.00     0.160 HD
BRANCH  19  21
HETATM   21  C11 UNL     1      22.831   2.473  48.801  1.00  0.00     0.105 C 
HETATM   22  C12 UNL     1      22.368   3.681  47.990  1.00  0.00     0.034 C 
BRANCH  21  23
HETATM   23  C13 UNL     1      21.793   1.389  48.500  1.00  0.00     0.291 C 
BRANCH  23  24
HETATM   24  N4  UNL     1      20.632   2.023  47.942  1.00  0.00     0.080 N 
HETATM   25  H25 UNL     1      20.847   2.828  47.338  1.00  0.00     0.312 HD
HETATM   26  H26 UNL     1      20.012   1.312  47.496  1.00  0.00     0.312 HD
ENDBRANCH  23  24
ENDBRANCH  21  23
ENDBRANCH  19  21
ENDBRANCH   4  19
BRANCH   3  27
HETATM   27  N1  UNL     1      20.534   2.017  51.797  1.00  0.00    -0.382 N 
HETATM   28  C5  UNL     1      19.475   1.140  51.279  1.00  0.00     0.150 C 
BRANCH  27  29
HETATM   29  C6  UNL     1      20.110   3.397  51.956  1.00  0.00     0.152 C 
BRANCH  29  30
HETATM   30  C7  UNL     1      19.516   3.942  50.676  1.00  0.00     0.291 C 
BRANCH  30  31
HETATM   31  N2  UNL     1      19.777   5.349  50.482  1.00  0.00     0.081 N 
HETATM   32  C8  UNL     1      19.472   5.818  49.157  1.00  0.00     0.309 C 
HETATM   33  C9  UNL     1      21.130   5.712  50.853  1.00  0.00     0.309 C 
ENDBRANCH  30  31
ENDBRANCH  29  30
ENDBRANCH  27  29
ENDBRANCH   3  27
TORSDOF 10
ENDMDL
MODEL 4
REMARK VINA RESULT:      -7.0      2.013      4.297
REMARK  10 active torsions:
REMARK  status: ('A' for Active; 'I' for Inactive)
REMARK    1  A    between atoms: O1_2  and  C2_3 
REMARK    2  A    between atoms: C4_5  and  N1_6 
REMARK    3  A    between atoms: N1_6  and  C6_8 
REMARK    4  A    between atoms: C6_8  and  C7_9 
REMARK    5  A    between atoms: C7_9  and  N2_10 
REMARK    6  A    between atoms: C10_13  and  N3_14 
REMARK    7  A    between atoms: N3_14  and  C11_15 
REMARK    8  A    between atoms: C11_15  and  C13_17 
REMARK    9  A    between atoms: C13_17  and  N4_18 
REMARK   10  A    between atoms: C15_20  and  C16_21 
ROOT
HETATM    1  C2  UNL     1      24.980   2.359  51.302  1.00  0.00     0.084 A 
HETATM    2  C3  UNL     1      23.858   3.028  50.824  1.00  0.00     0.069 A 
HETATM    3  C4  UNL     1      22.594   2.698  51.247  1.00  0.00     0.059 A 
HETATM    4  C10 UNL     1      22.422   1.685  52.162  1.00  0.00     0.056 A 
HETATM    5  C14 UNL     1      23.560   1.054  52.604  1.00  0.00     0.050 A 
HETATM    6  C15 UNL     1      24.873   1.330  52.225  1.00  0.00     0.049 A 
ENDROOT
BRANCH   6   7
HETATM    7  C16 UNL     1      26.041   0.583  52.765  1.00  0.00     0.181 C 
HETATM    8  N5  UNL     1      26.798   1.379  53.341  1.00  0.00    -0.154 NA
HETATM    9  N6  UNL     1      27.941   1.509  54.022  1.00  0.00    -0.288 N 
HETATM   10  C17 UNL     1      29.274   1.177  54.244  1.00  0.00     0.105 C 
HETATM   11  H28 UNL     1      27.524   2.216  54.673  1.00  0.00     0.188 HD
HETATM   12  C18 UNL     1      29.982   0.046  54.039  1.00  0.00    -0.008 C 
HETATM   13  C19 UNL     1      29.517  -1.304  53.465  1.00  0.00     0.033 C 
HETATM   14  C20 UNL     1      28.156  -1.029  53.195  1.00  0.00     0.051 C 
HETATM   15  C21 UNL     1      26.992  -1.639  52.673  1.00  0.00     0.092 C 
HETATM   16  N7  UNL     1      25.974  -0.843  52.471  1.00  0.00    -0.243 NA
ENDBRANCH   6   7
BRANCH   1  17
HETATM   17  O1  UNL     1      26.243   2.715  50.856  1.00  0.00    -0.355 OA
HETATM   18  C1  UNL     1      26.338   3.513  49.696  1.00  0.00     0.210 C 
ENDBRANCH   1  17
BRANCH   4  19
HETATM   19  N3  UNL     1      21.123   1.282  52.636  1.00  0.00    -0.382 N 
HETATM   20  H18 UNL     1      20.646   1.998  53.225  1.00  0.00     0.160 HD
BRANCH  19  21
HETATM   21  C11 UNL     1      20.395   0.061  52.430  1.00  0.00     0.105 C 
HETATM   22  C12 UNL     1      18.923   0.350  52.141  1.00  0.00     0.034 C 
BRANCH  21  23
HETATM   23  C13 UNL     1      20.380  -0.734  53.738  1.00  0.00     0.291 C 
BRANCH  23  24
HETATM   24  N4  UNL     1      20.565   0.187  54.824  1.00  0.00     0.080 N 
HETATM   25  H25 UNL     1      21.371   0.816  54.705  1.00  0.00     0.312 HD
HETATM   26  H26 UNL     1      19.670   0.680  55.036  1.00  0.00     0.312 HD
ENDBRANCH  23  24
ENDBRANCH  21  23
ENDBRANCH  19  21
ENDBRANCH   4  19
BRANCH   3  27
HETATM   27  N1  UNL     1      21.490   3.398  50.729  1.00  0.00    -0.382 N 
HETATM   28  C5  UNL     1      21.022   4.658  51.322  1.00  0.00     0.150 C 
BRANCH  27  29
HETATM   29  C6  UNL     1      20.708   2.980  49.579  1.00  0.00     0.152 C 
BRANCH  29  30
HETATM   30  C7  UNL     1      20.782   3.997  48.462  1.00  0.00     0.291 C 
BRANCH  30  31
HETATM   31  N2  UNL     1      22.024   3.941  47.727  1.00  0.00     0.081 N 
HETATM   32  C8  UNL     1      22.818   5.135  47.841  1.00  0.00     0.309 C 
HETATM   33  C9  UNL     1      21.822   3.594  46.335  1.00  0.00     0.309 C 
ENDBRANCH  30  31
ENDBRANCH  29  30
ENDBRANCH  27  29
ENDBRANCH   3  27
TORSDOF 10
ENDMDL
MODEL 5
REMARK VINA RESULT:      -7.0      1.147      1.924
REMARK  10 active torsions:
REMARK  status: ('A' for Active; 'I' for Inactive)
REMARK    1  A    between atoms: O1_2  and  C2_3 
REMARK    2  A    between atoms: C4_5  and  N1_6 
REMARK    3  A    between atoms: N1_6  and  C6_8 
REMARK    4  A    between atoms: C6_8  and  C7_9 
REMARK    5  A    between atoms: C7_9  and  N2_10 
REMARK    6  A    between atoms: C10_13  and  N3_14 
REMARK    7  A    between atoms: N3_14  and  C11_15 
REMARK    8  A    between atoms: C11_15  and  C13_17 
REMARK    9  A    between atoms: C13_17  and  N4_18 
REMARK   10  A    between atoms: C15_20  and  C16_21 
ROOT
HETATM    1  C2  UNL     1      23.844   0.035  53.437  1.00  0.00     0.084 A 
HETATM    2  C3  UNL     1      22.503   0.367  53.270  1.00  0.00     0.069 A 
HETATM    3  C4  UNL     1      22.089   1.169  52.235  1.00  0.00     0.059 A 
HETATM    4  C10 UNL     1      23.011   1.660  51.339  1.00  0.00     0.056 A 
HETATM    5  C14 UNL     1      24.322   1.305  51.547  1.00  0.00     0.050 A 
HETATM    6  C15 UNL     1      24.821   0.498  52.569  1.00  0.00     0.049 A 
ENDROOT
BRANCH   6   7
HETATM    7  C16 UNL     1      26.266   0.173  52.706  1.00  0.00     0.181 C 
HETATM    8  N5  UNL     1      26.427  -1.041  52.512  1.00  0.00    -0.154 NA
HETATM    9  N6  UNL     1      27.320  -2.035  52.455  1.00  0.00    -0.288 N 
HETATM   10  C17 UNL     1      28.463  -2.676  52.922  1.00  0.00     0.105 C 
HETATM   11  H28 UNL     1      26.838  -2.480  51.639  1.00  0.00     0.188 HD
HETATM   12  C18 UNL     1      29.588  -2.225  53.517  1.00  0.00    -0.008 C 
HETATM   13  C19 UNL     1      29.984  -0.785  53.886  1.00  0.00     0.033 C 
HETATM   14  C20 UNL     1      28.844  -0.070  53.451  1.00  0.00     0.051 C 
HETATM   15  C21 UNL     1      28.324   1.244  53.391  1.00  0.00     0.092 C 
HETATM   16  N7  UNL     1      27.072   1.345  53.027  1.00  0.00    -0.243 NA
ENDBRANCH   6   7
BRANCH   1  17
HETATM   17  O1  UNL     1      24.231  -0.776  54.492  1.00  0.00    -0.355 OA
HETATM   18  C1  UNL     1      23.224  -1.318  55.319  1.00  0.00     0.210 C 
ENDBRANCH   1  17
BRANCH   4  19
HETATM   19  N3  UNL     1      22.643   2.516  50.241  1.00  0.00    -0.382 N 
HETATM   20  H18 UNL     1      22.105   2.033  49.489  1.00  0.00     0.160 HD
BRANCH  19  21
HETATM   21  C11 UNL     1      22.903   3.911  50.020  1.00  0.00     0.105 C 
HETATM   22  C12 UNL     1      24.191   4.103  49.222  1.00  0.00     0.034 C 
BRANCH  21  23
HETATM   23  C13 UNL     1      23.183   4.583  51.366  1.00  0.00     0.291 C 
BRANCH  23  24
HETATM   24  N4  UNL     1      24.555   5.004  51.380  1.00  0.00     0.080 N 
HETATM   25  H25 UNL     1      25.061   4.809  50.505  1.00  0.00     0.312 HD
HETATM   26  H26 UNL     1      24.626   5.995  51.699  1.00  0.00     0.312 HD
ENDBRANCH  23  24
ENDBRANCH  21  23
ENDBRANCH  19  21
ENDBRANCH   4  19
BRANCH   3  27
HETATM   27  N1  UNL     1      20.724   1.483  52.111  1.00  0.00    -0.382 N 
HETATM   28  C5  UNL     1      20.165   2.737  52.635  1.00  0.00     0.150 C 
BRANCH  27  29
HETATM   29  C6  UNL     1      19.735   0.638  51.466  1.00  0.00     0.152 C 
BRANCH  29  30
HETATM   30  C7  UNL     1      18.954  -0.169  52.479  1.00  0.00     0.291 C 
BRANCH  30  31
HETATM   31  N2  UNL     1      17.551  -0.282  52.154  1.00  0.00     0.081 N 
HETATM   32  C8  UNL     1      16.914  -1.433  52.735  1.00  0.00     0.309 C 
HETATM   33  C9  UNL     1      17.313  -0.233  50.726  1.00  0.00     0.309 C 
ENDBRANCH  30  31
ENDBRANCH  29  30
ENDBRANCH  27  29
ENDBRANCH   3  27
TORSDOF 10
ENDMDL
MODEL 6
REMARK VINA RESULT:      -6.9      1.835      4.664
REMARK  10 active torsions:
REMARK  status: ('A' for Active; 'I' for Inactive)
REMARK    1  A    between atoms: O1_2  and  C2_3 
REMARK    2  A    between atoms: C4_5  and  N1_6 
REMARK    3  A    between atoms: N1_6  and  C6_8 
REMARK    4  A    between atoms: C6_8  and  C7_9 
REMARK    5  A    between atoms: C7_9  and  N2_10 
REMARK    6  A    between atoms: C10_13  and  N3_14 
REMARK    7  A    between atoms: N3_14  and  C11_15 
REMARK    8  A    between atoms: C11_15  and  C13_17 
REMARK    9  A    between atoms: C13_17  and  N4_18 
REMARK   10  A    between atoms: C15_20  and  C16_21 
ROOT
HETATM    1  C2  UNL     1      24.735   2.254  51.204  1.00  0.00     0.084 A 
HETATM    2  C3  UNL     1      23.583   2.860  50.712  1.00  0.00     0.069 A 
HETATM    3  C4  UNL     1      22.340   2.525  51.189  1.00  0.00     0.059 A 
HETATM    4  C10 UNL     1      22.219   1.572  52.175  1.00  0.00     0.056 A 
HETATM    5  C14 UNL     1      23.385   1.003  52.627  1.00  0.00     0.050 A 
HETATM    6  C15 UNL     1      24.681   1.287  52.195  1.00  0.00     0.049 A 
ENDROOT
BRANCH   6   7
HETATM    7  C16 UNL     1      25.881   0.609  52.753  1.00  0.00     0.181 C 
HETATM    8  N5  UNL     1      26.609   1.456  53.293  1.00  0.00    -0.154 NA
HETATM    9  N6  UNL     1      27.750   1.658  53.959  1.00  0.00    -0.288 N 
HETATM   10  C17 UNL     1      29.097   1.389  54.182  1.00  0.00     0.105 C 
HETATM   11  H28 UNL     1      27.309   2.371  54.588  1.00  0.00     0.188 HD
HETATM   12  C18 UNL     1      29.850   0.281  54.013  1.00  0.00    -0.008 C 
HETATM   13  C19 UNL     1      29.438  -1.107  53.492  1.00  0.00     0.033 C 
HETATM   14  C20 UNL     1      28.065  -0.898  53.224  1.00  0.00     0.051 C 
HETATM   15  C21 UNL     1      26.923  -1.574  52.734  1.00  0.00     0.092 C 
HETATM   16  N7  UNL     1      25.872  -0.829  52.511  1.00  0.00    -0.243 NA
ENDBRANCH   6   7
BRANCH   1  17
HETATM   17  O1  UNL     1      25.976   2.613  50.702  1.00  0.00    -0.355 OA
HETATM   18  C1  UNL     1      26.063   3.783  49.918  1.00  0.00     0.210 C 
ENDBRANCH   1  17
BRANCH   4  19
HETATM   19  N3  UNL     1      20.944   1.168  52.708  1.00  0.00    -0.382 N 
HETATM   20  H18 UNL     1      20.542   1.839  53.398  1.00  0.00     0.160 HD
BRANCH  19  21
HETATM   21  C11 UNL     1      20.154  -0.002  52.446  1.00  0.00     0.105 C 
HETATM   22  C12 UNL     1      18.733   0.382  52.040  1.00  0.00     0.034 C 
BRANCH  21  23
HETATM   23  C13 UNL     1      19.981  -0.786  53.749  1.00  0.00     0.291 C 
BRANCH  23  24
HETATM   24  N4  UNL     1      18.681  -1.394  53.738  1.00  0.00     0.080 N 
HETATM   25  H25 UNL     1      17.984  -0.899  54.311  1.00  0.00     0.312 HD
HETATM   26  H26 UNL     1      18.373  -1.571  52.757  1.00  0.00     0.312 HD
ENDBRANCH  23  24
ENDBRANCH  21  23
ENDBRANCH  19  21
ENDBRANCH   4  19
BRANCH   3  27
HETATM   27  N1  UNL     1      21.204   3.160  50.656  1.00  0.00    -0.382 N 
HETATM   28  C5  UNL     1      20.460   2.596  49.522  1.00  0.00     0.150 C 
BRANCH  27  29
HETATM   29  C6  UNL     1      20.643   4.405  51.149  1.00  0.00     0.152 C 
BRANCH  29  30
HETATM   30  C7  UNL     1      20.926   5.551  50.203  1.00  0.00     0.291 C 
BRANCH  30  31
HETATM   31  N2  UNL     1      21.536   6.686  50.855  1.00  0.00     0.081 N 
HETATM   32  C8  UNL     1      21.106   7.955  50.329  1.00  0.00     0.309 C 
HETATM   33  C9  UNL     1      22.982   6.602  50.864  1.00  0.00     0.309 C 
ENDBRANCH  30  31
ENDBRANCH  29  30
ENDBRANCH  27  29
ENDBRANCH   3  27
TORSDOF 10
ENDMDL
MODEL 7
REMARK VINA RESULT:      -6.8      1.359      7.640
REMARK  10 active torsions:
REMARK  status: ('A' for Active; 'I' for Inactive)
REMARK    1  A    between atoms: O1_2  and  C2_3 
REMARK    2  A    between atoms: C4_5  and  N1_6 
REMARK    3  A    between atoms: N1_6  and  C6_8 
REMARK    4  A    between atoms: C6_8  and  C7_9 
REMARK    5  A    between atoms: C7_9  and  N2_10 
REMARK    6  A    between atoms: C10_13  and  N3_14 
REMARK    7  A    between atoms: N3_14  and  C11_15 
REMARK    8  A    between atoms: C11_15  and  C13_17 
REMARK    9  A    between atoms: C13_17  and  N4_18 
REMARK   10  A    between atoms: C15_20  and  C16_21 
ROOT
HETATM    1  C2  UNL     1      22.100   0.283  52.917  1.00  0.00     0.084 A 
HETATM    2  C3  UNL     1      23.459   0.093  53.147  1.00  0.00     0.069 A 
HETATM    3  C4  UNL     1      24.400   0.939  52.612  1.00  0.00     0.059 A 
HETATM    4  C10 UNL     1      24.001   2.000  51.831  1.00  0.00     0.056 A 
HETATM    5  C14 UNL     1      22.649   2.144  51.633  1.00  0.00     0.050 A 
HETATM    6  C15 UNL     1      21.635   1.332  52.139  1.00  0.00     0.049 A 
ENDROOT
BRANCH   6   7
HETATM    7  C16 UNL     1      20.194   1.577  51.863  1.00  0.00     0.181 C 
HETATM    8  N5  UNL     1      19.690   0.544  51.399  1.00  0.00    -0.154 NA
HETATM    9  N6  UNL     1      18.569  -0.019  50.936  1.00  0.00    -0.288 N 
HETATM   10  C17 UNL     1      17.383   0.042  50.212  1.00  0.00     0.105 C 
HETATM   11  H28 UNL     1      18.784  -0.934  51.399  1.00  0.00     0.188 HD
HETATM   12  C18 UNL     1      16.521   1.047  49.946  1.00  0.00    -0.008 C 
HETATM   13  C19 UNL     1      16.581   2.521  50.382  1.00  0.00     0.033 C 
HETATM   14  C20 UNL     1      17.789   2.538  51.117  1.00  0.00     0.051 C 
HETATM   15  C21 UNL     1      18.623   3.416  51.848  1.00  0.00     0.092 C 
HETATM   16  N7  UNL     1      19.785   2.935  52.203  1.00  0.00    -0.243 NA
ENDBRANCH   6   7
BRANCH   1  17
HETATM   17  O1  UNL     1      21.175  -0.587  53.470  1.00  0.00    -0.355 OA
HETATM   18  C1  UNL     1      21.573  -1.364  54.579  1.00  0.00     0.210 C 
ENDBRANCH   1  17
BRANCH   4  19
HETATM   19  N3  UNL     1      24.938   2.914  51.231  1.00  0.00    -0.382 N 
HETATM   20  H18 UNL     1      25.605   3.343  51.909  1.00  0.00     0.160 HD
BRANCH  19  21
HETATM   21  C11 UNL     1      25.091   3.327  49.865  1.00  0.00     0.105 C 
HETATM   22  C12 UNL     1      26.568   3.485  49.508  1.00  0.00     0.034 C 
BRANCH  21  23
HETATM   23  C13 UNL     1      24.504   4.731  49.701  1.00  0.00     0.291 C 
BRANCH  23  24
HETATM   24  N4  UNL     1      25.076   5.576  50.711  1.00  0.00     0.080 N 
HETATM   25  H25 UNL     1      24.536   6.433  50.893  1.00  0.00     0.312 HD
HETATM   26  H26 UNL     1      25.291   5.021  51.568  1.00  0.00     0.312 HD
ENDBRANCH  23  24
ENDBRANCH  21  23
ENDBRANCH  19  21
ENDBRANCH   4  19
BRANCH   3  27
HETATM   27  N1  UNL     1      25.762   0.702  52.866  1.00  0.00    -0.382 N 
HETATM   28  C5  UNL     1      26.584  -0.133  51.980  1.00  0.00     0.150 C 
BRANCH  27  29
HETATM   29  C6  UNL     1      26.500   1.241  53.995  1.00  0.00     0.152 C 
BRANCH  29  30
HETATM   30  C7  UNL     1      27.312   0.168  54.686  1.00  0.00     0.291 C 
BRANCH  30  31
HETATM   31  N2  UNL     1      28.728   0.449  54.702  1.00  0.00     0.081 N 
HETATM   32  C8  UNL     1      29.068   1.739  54.164  1.00  0.00     0.309 C 
HETATM   33  C9  UNL     1      29.502  -0.593  54.057  1.00  0.00     0.309 C 
ENDBRANCH  30  31
ENDBRANCH  29  30
ENDBRANCH  27  29
ENDBRANCH   3  27
TORSDOF 10
ENDMDL
MODEL 8
REMARK VINA RESULT:      -6.8      2.182      4.942
REMARK  10 active torsions:
REMARK  status: ('A' for Active; 'I' for Inactive)
REMARK    1  A    between atoms: O1_2  and  C2_3 
REMARK    2  A    between atoms: C4_5  and  N1_6 
REMARK    3  A    between atoms: N1_6  and  C6_8 
REMARK    4  A    between atoms: C6_8  and  C7_9 
REMARK    5  A    between atoms: C7_9  and  N2_10 
REMARK    6  A    between atoms: C10_13  and  N3_14 
REMARK    7  A    between atoms: N3_14  and  C11_15 
REMARK    8  A    between atoms: C11_15  and  C13_17 
REMARK    9  A    between atoms: C13_17  and  N4_18 
REMARK   10  A    between atoms: C15_20  and  C16_21 
ROOT
HETATM    1  C2  UNL     1      25.574   2.829  51.214  1.00  0.00     0.084 A 
HETATM    2  C3  UNL     1      24.392   3.510  50.939  1.00  0.00     0.069 A 
HETATM    3  C4  UNL     1      23.184   3.069  51.420  1.00  0.00     0.059 A 
HETATM    4  C10 UNL     1      23.129   1.931  52.192  1.00  0.00     0.056 A 
HETATM    5  C14 UNL     1      24.322   1.294  52.435  1.00  0.00     0.050 A 
HETATM    6  C15 UNL     1      25.585   1.677  51.985  1.00  0.00     0.049 A 
ENDROOT
BRANCH   6   7
HETATM    7  C16 UNL     1      26.820   0.912  52.306  1.00  0.00     0.181 C 
HETATM    8  N5  UNL     1      26.621  -0.291  52.081  1.00  0.00    -0.154 NA
HETATM    9  N6  UNL     1      27.157  -1.516  52.104  1.00  0.00    -0.288 N 
HETATM   10  C17 UNL     1      27.961  -2.484  52.696  1.00  0.00     0.105 C 
HETATM   11  H28 UNL     1      26.685  -1.787  51.209  1.00  0.00     0.188 HD
HETATM   12  C18 UNL     1      29.071  -2.412  53.461  1.00  0.00    -0.008 C 
HETATM   13  C19 UNL     1      29.839  -1.170  53.947  1.00  0.00     0.033 C 
HETATM   14  C20 UNL     1      29.055  -0.132  53.391  1.00  0.00     0.051 C 
HETATM   15  C21 UNL     1      28.986   1.279  53.319  1.00  0.00     0.092 C 
HETATM   16  N7  UNL     1      27.896   1.770  52.789  1.00  0.00    -0.243 NA
ENDBRANCH   6   7
BRANCH   1  17
HETATM   17  O1  UNL     1      26.778   3.298  50.714  1.00  0.00    -0.355 OA
HETATM   18  C1  UNL     1      26.800   3.803  49.396  1.00  0.00     0.210 C 
ENDBRANCH   1  17
BRANCH   4  19
HETATM   19  N3  UNL     1      21.893   1.410  52.715  1.00  0.00    -0.382 N 
HETATM   20  H18 UNL     1      21.378   2.078  53.329  1.00  0.00     0.160 HD
BRANCH  19  21
HETATM   21  C11 UNL     1      21.271   0.129  52.531  1.00  0.00     0.105 C 
HETATM   22  C12 UNL     1      19.789   0.289  52.198  1.00  0.00     0.034 C 
BRANCH  21  23
HETATM   23  C13 UNL     1      21.285  -0.625  53.863  1.00  0.00     0.291 C 
BRANCH  23  24
HETATM   24  N4  UNL     1      20.630   0.190  54.846  1.00  0.00     0.080 N 
HETATM   25  H25 UNL     1      19.653   0.418  54.616  1.00  0.00     0.312 HD
HETATM   26  H26 UNL     1      20.757  -0.219  55.798  1.00  0.00     0.312 HD
ENDBRANCH  23  24
ENDBRANCH  21  23
ENDBRANCH  19  21
ENDBRANCH   4  19
BRANCH   3  27
HETATM   27  N1  UNL     1      22.016   3.787  51.109  1.00  0.00    -0.382 N 
HETATM   28  C5  UNL     1      21.034   3.290  50.136  1.00  0.00     0.150 C 
BRANCH  27  29
HETATM   29  C6  UNL     1      21.646   5.063  51.697  1.00  0.00     0.152 C 
BRANCH  29  30
HETATM   30  C7  UNL     1      21.235   6.060  50.637  1.00  0.00     0.291 C 
BRANCH  30  31
HETATM   31  N2  UNL     1      21.882   7.343  50.784  1.00  0.00     0.081 N 
HETATM   32  C8  UNL     1      21.484   8.309  49.795  1.00  0.00     0.309 C 
HETATM   33  C9  UNL     1      23.325   7.227  50.832  1.00  0.00     0.309 C 
ENDBRANCH  30  31
ENDBRANCH  29  30
ENDBRANCH  27  29
ENDBRANCH   3  27
TORSDOF 10
ENDMDL
MODEL 9
REMARK VINA RESULT:      -6.8      1.974      3.208
REMARK  10 active torsions:
REMARK  status: ('A' for Active; 'I' for Inactive)
REMARK    1  A    between atoms: O1_2  and  C2_3 
REMARK    2  A    between atoms: C4_5  and  N1_6 
REMARK    3  A    between atoms: N1_6  and  C6_8 
REMARK    4  A    between atoms: C6_8  and  C7_9 
REMARK    5  A    between atoms: C7_9  and  N2_10 
REMARK    6  A    between atoms: C10_13  and  N3_14 
REMARK    7  A    between atoms: N3_14  and  C11_15 
REMARK    8  A    between atoms: C11_15  and  C13_17 
REMARK    9  A    between atoms: C13_17  and  N4_18 
REMARK   10  A    between atoms: C15_20  and  C16_21 
ROOT
HETATM    1  C2  UNL     1      23.280   1.494  52.415  1.00  0.00     0.084 A 
HETATM    2  C3  UNL     1      22.199   2.107  51.790  1.00  0.00     0.069 A 
HETATM    3  C4  UNL     1      22.379   3.000  50.762  1.00  0.00     0.059 A 
HETATM    4  C10 UNL     1      23.651   3.302  50.333  1.00  0.00     0.056 A 
HETATM    5  C14 UNL     1      24.685   2.672  50.982  1.00  0.00     0.050 A 
HETATM    6  C15 UNL     1      24.586   1.756  52.030  1.00  0.00     0.049 A 
ENDROOT
BRANCH   6   7
HETATM    7  C16 UNL     1      25.775   1.129  52.666  1.00  0.00     0.181 C 
HETATM    8  N5  UNL     1      26.491   2.018  53.150  1.00  0.00    -0.154 NA
HETATM    9  N6  UNL     1      27.618   2.277  53.821  1.00  0.00    -0.288 N 
HETATM   10  C17 UNL     1      28.960   2.029  54.093  1.00  0.00     0.105 C 
HETATM   11  H28 UNL     1      27.164   3.038  54.379  1.00  0.00     0.188 HD
HETATM   12  C18 UNL     1      29.716   0.912  54.032  1.00  0.00    -0.008 C 
HETATM   13  C19 UNL     1      29.314  -0.515  53.619  1.00  0.00     0.033 C 
HETATM   14  C20 UNL     1      27.947  -0.331  53.306  1.00  0.00     0.051 C 
HETATM   15  C21 UNL     1      26.816  -1.047  52.849  1.00  0.00     0.092 C 
HETATM   16  N7  UNL     1      25.770  -0.324  52.544  1.00  0.00    -0.243 NA
ENDBRANCH   6   7
BRANCH   1  17
HETATM   17  O1  UNL     1      23.067   0.598  53.450  1.00  0.00    -0.355 OA
HETATM   18  C1  UNL     1      22.094  -0.409  53.268  1.00  0.00     0.210 C 
ENDBRANCH   1  17
BRANCH   4  19
HETATM   19  N3  UNL     1      23.908   4.238  49.270  1.00  0.00    -0.382 N 
HETATM   20  H18 UNL     1      23.767   3.844  48.315  1.00  0.00     0.160 HD
BRANCH  19  21
HETATM   21  C11 UNL     1      24.326   5.611  49.319  1.00  0.00     0.105 C 
HETATM   22  C12 UNL     1      23.871   6.362  48.070  1.00  0.00     0.034 C 
BRANCH  21  23
HETATM   23  C13 UNL     1      25.855   5.666  49.263  1.00  0.00     0.291 C 
BRANCH  23  24
HETATM   24  N4  UNL     1      26.296   6.737  50.109  1.00  0.00     0.080 N 
HETATM   25  H25 UNL     1      27.073   7.287  49.716  1.00  0.00     0.312 HD
HETATM   26  H26 UNL     1      25.483   7.314  50.417  1.00  0.00     0.312 HD
ENDBRANCH  23  24
ENDBRANCH  21  23
ENDBRANCH  19  21
ENDBRANCH   4  19
BRANCH   3  27
HETATM   27  N1  UNL     1      21.255   3.599  50.166  1.00  0.00    -0.382 N 
HETATM   28  C5  UNL     1      20.625   3.042  48.961  1.00  0.00     0.150 C 
BRANCH  27  29
HETATM   29  C6  UNL     1      20.597   4.797  50.656  1.00  0.00     0.152 C 
BRANCH  29  30
HETATM   30  C7  UNL     1      20.162   5.692  49.517  1.00  0.00     0.291 C 
BRANCH  30  31
HETATM   31  N2  UNL     1      20.679   7.037  49.623  1.00  0.00     0.081 N 
HETATM   32  C8  UNL     1      21.459   7.265  50.810  1.00  0.00     0.309 C 
HETATM   33  C9  UNL     1      19.638   8.036  49.495  1.00  0.00     0.309 C 
ENDBRANCH  30  31
ENDBRANCH  29  30
ENDBRANCH  27  29
ENDBRANCH   3  27
TORSDOF 10
ENDMDL
