MODEL 1
REMARK VINA RESULT:      -8.8      0.000      0.000
REMARK  5 active torsions:
REMARK  status: ('A' for Active; 'I' for Inactive)
REMARK    1  A    between atoms: N2_6  and  C5_7 
REMARK    2  A    between atoms: C8_10  and  N3_11 
REMARK       I    between atoms: N3_11  and  C9_12 
REMARK    3  A    between atoms: C9_12  and  C10_14 
REMARK    4  A    between atoms: C16_20  and  O2_21 
REMARK    5  A    between atoms: O2_21  and  C17_22 
ROOT
HETATM    1  N3  UNL     1      20.833  -0.703  52.762  1.00  0.00    -0.323 N 
HETATM    2  C9  UNL     1      21.509  -0.098  53.876  1.00  0.00     0.254 C 
HETATM    3  O1  UNL     1      20.616   0.673  54.356  1.00  0.00    -0.268 OA
HETATM    4  H12 UNL     1      21.366  -1.409  52.170  1.00  0.00     0.169 HD
ENDROOT
BRANCH   2   5
HETATM    5  C10 UNL     1      22.887  -0.393  54.249  1.00  0.00     0.035 A 
HETATM    6  C11 UNL     1      23.993   0.044  53.635  1.00  0.00    -0.027 A 
HETATM    7  C12 UNL     1      23.577   0.890  52.498  1.00  0.00     0.067 A 
HETATM    8  C18 UNL     1      25.311  -0.339  54.129  1.00  0.00     0.020 A 
HETATM    9  C13 UNL     1      24.688   1.488  51.741  1.00  0.00    -0.022 A 
HETATM   10  C14 UNL     1      25.996   1.524  51.690  1.00  0.00    -0.001 A 
HETATM   11  C15 UNL     1      26.878   0.812  52.581  1.00  0.00     0.038 A 
HETATM   12  C16 UNL     1      26.621   0.033  53.600  1.00  0.00     0.090 A 
HETATM   13  C19 UNL     1      25.499  -1.120  55.182  1.00  0.00     0.098 A 
HETATM   14  N4  UNL     1      24.324  -1.569  55.814  1.00  0.00    -0.394 N 
HETATM   15  C20 UNL     1      22.979  -1.276  55.442  1.00  0.00     0.164 A 
HETATM   16  H20 UNL     1      24.298  -2.193  56.658  1.00  0.00     0.159 HD
BRANCH  12  17
HETATM   17  O2  UNL     1      27.727  -0.511  54.265  1.00  0.00    -0.285 OA
BRANCH  17  18
HETATM   18  C17 UNL     1      28.737  -1.011  53.425  1.00  0.00     0.403 C 
HETATM   19  O3  UNL     1      28.925  -2.263  53.437  1.00  0.00    -0.276 OA
ENDBRANCH  17  18
ENDBRANCH  12  17
ENDBRANCH   2   5
BRANCH   1  20
HETATM   20  C8  UNL     1      19.492  -0.342  52.494  1.00  0.00     0.035 A 
HETATM   21  C7  UNL     1      18.421  -1.025  53.031  1.00  0.00     0.032 A 
HETATM   22  C6  UNL     1      17.113  -0.679  52.775  1.00  0.00     0.031 A 
HETATM   23  C5  UNL     1      16.809   0.388  51.956  1.00  0.00     0.030 A 
HETATM   24  C22 UNL     1      17.887   1.061  51.427  1.00  0.00     0.031 A 
HETATM   25  C21 UNL     1      19.206   0.736  51.665  1.00  0.00     0.032 A 
BRANCH  23  26
HETATM   26  N2  UNL     1      15.469   0.771  51.674  1.00  0.00    -0.379 N 
HETATM   27  C4  UNL     1      15.037   2.130  51.523  1.00  0.00     0.124 C 
HETATM   28  C3  UNL     1      14.371   2.539  52.836  1.00  0.00     0.039 C 
HETATM   29  C2  UNL     1      13.523   1.396  53.323  1.00  0.00     0.118 C 
HETATM   30  N1  UNL     1      12.598   0.894  52.359  1.00  0.00    -0.415 N 
HETATM   31  C1  UNL     1      11.600   1.807  51.905  1.00  0.00     0.143 C 
HETATM   32  C24 UNL     1      13.127   0.010  51.373  1.00  0.00     0.136 C 
HETATM   33  C23 UNL     1      14.569  -0.346  51.555  1.00  0.00     0.142 C 
ENDBRANCH  23  26
ENDBRANCH   1  20
TORSDOF 5
ENDMDL
MODEL 2
REMARK VINA RESULT:      -8.6      6.695     11.467
REMARK  5 active torsions:
REMARK  status: ('A' for Active; 'I' for Inactive)
REMARK    1  A    between atoms: N2_6  and  C5_7 
REMARK    2  A    between atoms: C8_10  and  N3_11 
REMARK       I    between atoms: N3_11  and  C9_12 
REMARK    3  A    between atoms: C9_12  and  C10_14 
REMARK    4  A    between atoms: C16_20  and  O2_21 
REMARK    5  A    between atoms: O2_21  and  C17_22 
ROOT
HETATM    1  N3  UNL     1      25.811   3.769  49.273  1.00  0.00    -0.323 N 
HETATM    2  C9  UNL     1      24.984   3.882  50.441  1.00  0.00     0.254 C 
HETATM    3  O1  UNL     1      25.174   5.088  50.801  1.00  0.00    -0.268 OA
HETATM    4  H12 UNL     1      25.839   2.837  48.760  1.00  0.00     0.169 HD
ENDROOT
BRANCH   2   5
HETATM    5  C10 UNL     1      24.174   2.792  50.972  1.00  0.00     0.035 A 
HETATM    6  C11 UNL     1      24.540   1.903  51.905  1.00  0.00    -0.027 A 
HETATM    7  C12 UNL     1      25.925   2.217  52.313  1.00  0.00     0.067 A 
HETATM    8  C18 UNL     1      23.613   0.863  52.336  1.00  0.00     0.020 A 
HETATM    9  C13 UNL     1      26.462   1.351  53.372  1.00  0.00    -0.022 A 
HETATM   10  C14 UNL     1      26.148   0.318  54.114  1.00  0.00    -0.001 A 
HETATM   11  C15 UNL     1      24.894  -0.391  54.058  1.00  0.00     0.038 A 
HETATM   12  C16 UNL     1      23.826  -0.186  53.330  1.00  0.00     0.090 A 
HETATM   13  C19 UNL     1      22.387   0.729  51.853  1.00  0.00     0.098 A 
HETATM   14  N4  UNL     1      22.021   1.672  50.873  1.00  0.00    -0.394 N 
HETATM   15  C20 UNL     1      22.820   2.735  50.360  1.00  0.00     0.164 A 
HETATM   16  H20 UNL     1      21.090   1.704  50.391  1.00  0.00     0.159 HD
BRANCH  12  17
HETATM   17  O2  UNL     1      22.760  -1.074  53.523  1.00  0.00    -0.285 OA
BRANCH  17  18
HETATM   18  C17 UNL     1      22.393  -1.278  54.863  1.00  0.00     0.403 C 
HETATM   19  O3  UNL     1      21.313  -1.905  55.073  1.00  0.00    -0.276 OA
ENDBRANCH  17  18
ENDBRANCH  12  17
ENDBRANCH   2   5
BRANCH   1  20
HETATM   20  C8  UNL     1      26.555   4.895  48.847  1.00  0.00     0.035 A 
HETATM   21  C7  UNL     1      27.924   4.857  48.687  1.00  0.00     0.032 A 
HETATM   22  C6  UNL     1      28.656   5.948  48.272  1.00  0.00     0.031 A 
HETATM   23  C5  UNL     1      28.040   7.150  47.992  1.00  0.00     0.030 A 
HETATM   24  C22 UNL     1      26.673   7.173  48.156  1.00  0.00     0.031 A 
HETATM   25  C21 UNL     1      25.916   6.098  48.570  1.00  0.00     0.032 A 
BRANCH  23  26
HETATM   26  N2  UNL     1      28.766   8.293  47.561  1.00  0.00    -0.379 N 
HETATM   27  C4  UNL     1      30.197   8.350  47.472  1.00  0.00     0.124 C 
HETATM   28  C3  UNL     1      30.697   9.093  48.710  1.00  0.00     0.039 C 
HETATM   29  C2  UNL     1      29.785  10.260  48.972  1.00  0.00     0.118 C 
HETATM   30  N1  UNL     1      29.585  11.118  47.849  1.00  0.00    -0.415 N 
HETATM   31  C1  UNL     1      30.744  11.777  47.342  1.00  0.00     0.143 C 
HETATM   32  C24 UNL     1      28.645  10.674  46.872  1.00  0.00     0.136 C 
HETATM   33  C23 UNL     1      27.924   9.410  47.221  1.00  0.00     0.142 C 
ENDBRANCH  23  26
ENDBRANCH   1  20
TORSDOF 5
ENDMDL
MODEL 3
REMARK VINA RESULT:      -8.5      6.392     11.768
REMARK  5 active torsions:
REMARK  status: ('A' for Active; 'I' for Inactive)
REMARK    1  A    between atoms: N2_6  and  C5_7 
REMARK    2  A    between atoms: C8_10  and  N3_11 
REMARK       I    between atoms: N3_11  and  C9_12 
REMARK    3  A    between atoms: C9_12  and  C10_14 
REMARK    4  A    between atoms: C16_20  and  O2_21 
REMARK    5  A    between atoms: O2_21  and  C17_22 
ROOT
HETATM    1  N3  UNL     1      24.544   4.326  49.466  1.00  0.00    -0.323 N 
HETATM    2  C9  UNL     1      23.990   4.610  50.761  1.00  0.00     0.254 C 
HETATM    3  O1  UNL     1      24.754   5.532  51.193  1.00  0.00    -0.268 OA
HETATM    4  H12 UNL     1      24.083   3.573  48.873  1.00  0.00     0.169 HD
ENDROOT
BRANCH   2   5
HETATM    5  C10 UNL     1      22.827   3.927  51.315  1.00  0.00     0.035 A 
HETATM    6  C11 UNL     1      22.812   2.728  51.910  1.00  0.00    -0.027 A 
HETATM    7  C12 UNL     1      24.193   2.204  51.912  1.00  0.00     0.067 A 
HETATM    8  C18 UNL     1      21.562   2.173  52.417  1.00  0.00     0.020 A 
HETATM    9  C13 UNL     1      24.353   0.902  52.576  1.00  0.00    -0.022 A 
HETATM   10  C14 UNL     1      23.667  -0.035  53.182  1.00  0.00    -0.001 A 
HETATM   11  C15 UNL     1      22.241  -0.009  53.396  1.00  0.00     0.038 A 
HETATM   12  C16 UNL     1      21.345   0.894  53.090  1.00  0.00     0.090 A 
HETATM   13  C19 UNL     1      20.396   2.794  52.328  1.00  0.00     0.098 A 
HETATM   14  N4  UNL     1      20.433   4.053  51.699  1.00  0.00    -0.394 N 
HETATM   15  C20 UNL     1      21.575   4.713  51.159  1.00  0.00     0.164 A 
HETATM   16  H20 UNL     1      19.598   4.671  51.547  1.00  0.00     0.159 HD
BRANCH  12  17
HETATM   17  O2  UNL     1      20.022   0.605  53.446  1.00  0.00    -0.285 OA
BRANCH  17  18
HETATM   18  C17 UNL     1      19.703  -0.762  53.488  1.00  0.00     0.403 C 
HETATM   19  O3  UNL     1      18.479  -1.070  53.391  1.00  0.00    -0.276 OA
ENDBRANCH  17  18
ENDBRANCH  12  17
ENDBRANCH   2   5
BRANCH   1  20
HETATM   20  C8  UNL     1      25.676   5.053  49.030  1.00  0.00     0.035 A 
HETATM   21  C7  UNL     1      25.590   6.356  48.583  1.00  0.00     0.032 A 
HETATM   22  C6  UNL     1      26.688   7.071  48.158  1.00  0.00     0.031 A 
HETATM   23  C5  UNL     1      27.946   6.507  48.159  1.00  0.00     0.030 A 
HETATM   24  C22 UNL     1      28.017   5.207  48.607  1.00  0.00     0.031 A 
HETATM   25  C21 UNL     1      26.936   4.467  49.038  1.00  0.00     0.032 A 
BRANCH  23  26
HETATM   26  N2  UNL     1      29.098   7.219  47.727  1.00  0.00    -0.379 N 
HETATM   27  C4  UNL     1      30.404   6.639  47.610  1.00  0.00     0.124 C 
HETATM   28  C3  UNL     1      31.197   7.060  48.847  1.00  0.00     0.039 C 
HETATM   29  C2  UNL     1      30.899   8.505  49.141  1.00  0.00     0.118 C 
HETATM   30  N1  UNL     1      31.086   9.384  48.032  1.00  0.00    -0.415 N 
HETATM   31  C1  UNL     1      32.411   9.472  47.510  1.00  0.00     0.143 C 
HETATM   32  C24 UNL     1      30.034   9.420  47.069  1.00  0.00     0.136 C 
HETATM   33  C23 UNL     1      28.833   8.600  47.417  1.00  0.00     0.142 C 
ENDBRANCH  23  26
ENDBRANCH   1  20
TORSDOF 5
ENDMDL
MODEL 4
REMARK VINA RESULT:      -8.2      1.883      2.879
REMARK  5 active torsions:
REMARK  status: ('A' for Active; 'I' for Inactive)
REMARK    1  A    between atoms: N2_6  and  C5_7 
REMARK    2  A    between atoms: C8_10  and  N3_11 
REMARK       I    between atoms: N3_11  and  C9_12 
REMARK    3  A    between atoms: C9_12  and  C10_14 
REMARK    4  A    between atoms: C16_20  and  O2_21 
REMARK    5  A    between atoms: O2_21  and  C17_22 
ROOT
HETATM    1  N3  UNL     1      21.260   0.622  50.910  1.00  0.00    -0.323 N 
HETATM    2  C9  UNL     1      21.931   1.642  51.667  1.00  0.00     0.254 C 
HETATM    3  O1  UNL     1      20.970   2.210  52.278  1.00  0.00    -0.268 OA
HETATM    4  H12 UNL     1      21.846  -0.017  50.292  1.00  0.00     0.169 HD
ENDROOT
BRANCH   2   5
HETATM    5  C10 UNL     1      23.373   1.858  51.642  1.00  0.00     0.035 A 
HETATM    6  C11 UNL     1      24.290   1.225  52.383  1.00  0.00    -0.027 A 
HETATM    7  C12 UNL     1      23.585   0.253  53.245  1.00  0.00     0.067 A 
HETATM    8  C18 UNL     1      25.704   1.553  52.245  1.00  0.00     0.020 A 
HETATM    9  C13 UNL     1      24.466  -0.561  54.096  1.00  0.00    -0.022 A 
HETATM   10  C14 UNL     1      25.727  -0.730  54.408  1.00  0.00    -0.001 A 
HETATM   11  C15 UNL     1      26.823   0.026  53.856  1.00  0.00     0.038 A 
HETATM   12  C16 UNL     1      26.842   0.977  52.958  1.00  0.00     0.090 A 
HETATM   13  C19 UNL     1      26.164   2.469  51.406  1.00  0.00     0.098 A 
HETATM   14  N4  UNL     1      25.184   3.124  50.636  1.00  0.00    -0.394 N 
HETATM   15  C20 UNL     1      23.776   2.906  50.667  1.00  0.00     0.164 A 
HETATM   16  H20 UNL     1      25.381   3.873  49.928  1.00  0.00     0.159 HD
BRANCH  12  17
HETATM   17  O2  UNL     1      28.097   1.510  52.640  1.00  0.00    -0.285 OA
BRANCH  17  18
HETATM   18  C17 UNL     1      29.038   1.477  53.684  1.00  0.00     0.403 C 
HETATM   19  O3  UNL     1      29.169   2.532  54.372  1.00  0.00    -0.276 OA
ENDBRANCH  17  18
ENDBRANCH  12  17
ENDBRANCH   2   5
BRANCH   1  20
HETATM   20  C8  UNL     1      19.855   0.503  51.012  1.00  0.00     0.035 A 
HETATM   21  C7  UNL     1      19.242  -0.118  52.080  1.00  0.00     0.032 A 
HETATM   22  C6  UNL     1      17.873  -0.237  52.188  1.00  0.00     0.031 A 
HETATM   23  C5  UNL     1      17.039   0.271  51.214  1.00  0.00     0.030 A 
HETATM   24  C22 UNL     1      17.664   0.888  50.154  1.00  0.00     0.031 A 
HETATM   25  C21 UNL     1      19.030   1.021  50.020  1.00  0.00     0.032 A 
BRANCH  23  26
HETATM   26  N2  UNL     1      15.624   0.166  51.297  1.00  0.00    -0.379 N 
HETATM   27  C4  UNL     1      14.737   0.358  50.186  1.00  0.00     0.124 C 
HETATM   28  C3  UNL     1      14.160   1.768  50.309  1.00  0.00     0.039 C 
HETATM   29  C2  UNL     1      13.830   2.030  51.753  1.00  0.00     0.118 C 
HETATM   30  N1  UNL     1      13.007   1.033  52.360  1.00  0.00    -0.415 N 
HETATM   31  C1  UNL     1      11.705   0.862  51.802  1.00  0.00     0.143 C 
HETATM   32  C24 UNL     1      13.664  -0.160  52.784  1.00  0.00     0.136 C 
HETATM   33  C23 UNL     1      15.151  -0.151  52.619  1.00  0.00     0.142 C 
ENDBRANCH  23  26
ENDBRANCH   1  20
TORSDOF 5
ENDMDL
MODEL 5
REMARK VINA RESULT:      -8.2      4.787      9.875
REMARK  5 active torsions:
REMARK  status: ('A' for Active; 'I' for Inactive)
REMARK    1  A    between atoms: N2_6  and  C5_7 
REMARK    2  A    between atoms: C8_10  and  N3_11 
REMARK       I    between atoms: N3_11  and  C9_12 
REMARK    3  A    between atoms: C9_12  and  C10_14 
REMARK    4  A    between atoms: C16_20  and  O2_21 
REMARK    5  A    between atoms: O2_21  and  C17_22 
ROOT
HETATM    1  N3  UNL     1      23.480   1.642  51.078  1.00  0.00    -0.323 N 
HETATM    2  C9  UNL     1      22.934   1.654  52.407  1.00  0.00     0.254 C 
HETATM    3  O1  UNL     1      23.332   2.775  52.860  1.00  0.00    -0.268 OA
HETATM    4  H12 UNL     1      23.293   0.794  50.462  1.00  0.00     0.169 HD
ENDROOT
BRANCH   2   5
HETATM    5  C10 UNL     1      22.134   0.572  52.967  1.00  0.00     0.035 A 
HETATM    6  C11 UNL     1      20.839   0.328  52.730  1.00  0.00    -0.027 A 
HETATM    7  C12 UNL     1      20.348   1.355  51.788  1.00  0.00     0.067 A 
HETATM    8  C18 UNL     1      20.173  -0.801  53.369  1.00  0.00     0.020 A 
HETATM    9  C13 UNL     1      18.941   1.198  51.390  1.00  0.00    -0.022 A 
HETATM   10  C14 UNL     1      17.890   0.445  51.601  1.00  0.00    -0.001 A 
HETATM   11  C15 UNL     1      17.849  -0.687  52.492  1.00  0.00     0.038 A 
HETATM   12  C16 UNL     1      18.780  -1.226  53.237  1.00  0.00     0.090 A 
HETATM   13  C19 UNL     1      20.779  -1.634  54.201  1.00  0.00     0.098 A 
HETATM   14  N4  UNL     1      22.140  -1.360  54.438  1.00  0.00    -0.394 N 
HETATM   15  C20 UNL     1      22.915  -0.299  53.885  1.00  0.00     0.164 A 
HETATM   16  H20 UNL     1      22.763  -1.922  55.069  1.00  0.00     0.159 HD
BRANCH  12  17
HETATM   17  O2  UNL     1      18.404  -2.339  53.998  1.00  0.00    -0.285 OA
BRANCH  17  18
HETATM   18  C17 UNL     1      17.351  -3.098  53.461  1.00  0.00     0.403 C 
HETATM   19  O3  UNL     1      17.091  -4.200  54.026  1.00  0.00    -0.276 OA
ENDBRANCH  17  18
ENDBRANCH  12  17
ENDBRANCH   2   5
BRANCH   1  20
HETATM   20  C8  UNL     1      24.242   2.750  50.639  1.00  0.00     0.035 A 
HETATM   21  C7  UNL     1      25.621   2.730  50.604  1.00  0.00     0.032 A 
HETATM   22  C6  UNL     1      26.370   3.805  50.177  1.00  0.00     0.031 A 
HETATM   23  C5  UNL     1      25.763   4.969  49.756  1.00  0.00     0.030 A 
HETATM   24  C22 UNL     1      24.388   4.974  49.795  1.00  0.00     0.031 A 
HETATM   25  C21 UNL     1      23.612   3.915  50.218  1.00  0.00     0.032 A 
BRANCH  23  26
HETATM   26  N2  UNL     1      26.508   6.094  49.308  1.00  0.00    -0.379 N 
HETATM   27  C4  UNL     1      26.244   7.445  49.710  1.00  0.00     0.124 C 
HETATM   28  C3  UNL     1      25.468   8.110  48.574  1.00  0.00     0.039 C 
HETATM   29  C2  UNL     1      26.073   7.685  47.263  1.00  0.00     0.118 C 
HETATM   30  N1  UNL     1      27.483   7.888  47.171  1.00  0.00    -0.415 N 
HETATM   31  C1  UNL     1      27.935   9.238  47.263  1.00  0.00     0.143 C 
HETATM   32  C24 UNL     1      28.306   6.910  47.805  1.00  0.00     0.136 C 
HETATM   33  C23 UNL     1      27.567   5.751  48.394  1.00  0.00     0.142 C 
ENDBRANCH  23  26
ENDBRANCH   1  20
TORSDOF 5
ENDMDL
MODEL 6
REMARK VINA RESULT:      -8.0      5.603     10.868
REMARK  5 active torsions:
REMARK  status: ('A' for Active; 'I' for Inactive)
REMARK    1  A    between atoms: N2_6  and  C5_7 
REMARK    2  A    between atoms: C8_10  and  N3_11 
REMARK       I    between atoms: N3_11  and  C9_12 
REMARK    3  A    between atoms: C9_12  and  C10_14 
REMARK    4  A    between atoms: C16_20  and  O2_21 
REMARK    5  A    between atoms: O2_21  and  C17_22 
ROOT
HETATM    1  N3  UNL     1      24.316   2.854  50.125  1.00  0.00    -0.323 N 
HETATM    2  C9  UNL     1      24.054   2.697  51.529  1.00  0.00     0.254 C 
HETATM    3  O1  UNL     1      24.660   3.695  52.037  1.00  0.00    -0.268 OA
HETATM    4  H12 UNL     1      23.914   2.134  49.452  1.00  0.00     0.169 HD
ENDROOT
BRANCH   2   5
HETATM    5  C10 UNL     1      23.267   1.607  52.092  1.00  0.00     0.035 A 
HETATM    6  C11 UNL     1      21.936   1.471  52.040  1.00  0.00    -0.027 A 
HETATM    7  C12 UNL     1      21.389   2.628  51.302  1.00  0.00     0.067 A 
HETATM    8  C18 UNL     1      21.289   0.318  52.655  1.00  0.00     0.020 A 
HETATM    9  C13 UNL     1      19.930   2.603  51.118  1.00  0.00    -0.022 A 
HETATM   10  C14 UNL     1      18.868   1.896  51.414  1.00  0.00    -0.001 A 
HETATM   11  C15 UNL     1      18.875   0.673  52.175  1.00  0.00     0.038 A 
HETATM   12  C16 UNL     1      19.864  -0.004  52.702  1.00  0.00     0.090 A 
HETATM   13  C19 UNL     1      21.948  -0.641  53.287  1.00  0.00     0.098 A 
HETATM   14  N4  UNL     1      23.346  -0.479  53.332  1.00  0.00    -0.394 N 
HETATM   15  C20 UNL     1      24.108   0.590  52.777  1.00  0.00     0.164 A 
HETATM   16  H20 UNL     1      24.011  -1.146  53.793  1.00  0.00     0.159 HD
BRANCH  12  17
HETATM   17  O2  UNL     1      19.522  -1.173  53.392  1.00  0.00    -0.285 OA
BRANCH  17  18
HETATM   18  C17 UNL     1      18.155  -1.496  53.374  1.00  0.00     0.403 C 
HETATM   19  O3  UNL     1      17.845  -2.699  53.619  1.00  0.00    -0.276 OA
ENDBRANCH  17  18
ENDBRANCH  12  17
ENDBRANCH   2   5
BRANCH   1  20
HETATM   20  C8  UNL     1      25.094   3.953  49.690  1.00  0.00     0.035 A 
HETATM   21  C7  UNL     1      24.560   5.213  49.516  1.00  0.00     0.032 A 
HETATM   22  C6  UNL     1      25.311   6.288  49.094  1.00  0.00     0.031 A 
HETATM   23  C5  UNL     1      26.655   6.150  48.823  1.00  0.00     0.030 A 
HETATM   24  C22 UNL     1      27.175   4.888  49.001  1.00  0.00     0.031 A 
HETATM   25  C21 UNL     1      26.448   3.794  49.421  1.00  0.00     0.032 A 
BRANCH  23  26
HETATM   26  N2  UNL     1      27.457   7.240  48.387  1.00  0.00    -0.379 N 
HETATM   27  C4  UNL     1      28.150   7.278  47.132  1.00  0.00     0.124 C 
HETATM   28  C3  UNL     1      29.612   6.937  47.413  1.00  0.00     0.039 C 
HETATM   29  C2  UNL     1      30.038   7.640  48.672  1.00  0.00     0.118 C 
HETATM   30  N1  UNL     1      29.779   9.044  48.681  1.00  0.00    -0.415 N 
HETATM   31  C1  UNL     1      30.452   9.817  47.688  1.00  0.00     0.143 C 
HETATM   32  C24 UNL     1      28.441   9.440  48.977  1.00  0.00     0.136 C 
HETATM   33  C23 UNL     1      27.518   8.320  49.338  1.00  0.00     0.142 C 
ENDBRANCH  23  26
ENDBRANCH   1  20
TORSDOF 5
ENDMDL
MODEL 7
REMARK VINA RESULT:      -7.9      6.658      9.406
REMARK  5 active torsions:
REMARK  status: ('A' for Active; 'I' for Inactive)
REMARK    1  A    between atoms: N2_6  and  C5_7 
REMARK    2  A    between atoms: C8_10  and  N3_11 
REMARK       I    between atoms: N3_11  and  C9_12 
REMARK    3  A    between atoms: C9_12  and  C10_14 
REMARK    4  A    between atoms: C16_20  and  O2_21 
REMARK    5  A    between atoms: O2_21  and  C17_22 
ROOT
HETATM    1  N3  UNL     1      25.605   5.223  50.546  1.00  0.00    -0.323 N 
HETATM    2  C9  UNL     1      25.450   5.659  49.186  1.00  0.00     0.254 C 
HETATM    3  O1  UNL     1      24.629   4.808  48.715  1.00  0.00    -0.268 OA
HETATM    4  H12 UNL     1      26.257   5.774  51.182  1.00  0.00     0.169 HD
ENDROOT
BRANCH   2   5
HETATM    5  C10 UNL     1      26.132   6.816  48.620  1.00  0.00     0.035 A 
HETATM    6  C11 UNL     1      27.412   6.880  48.233  1.00  0.00    -0.027 A 
HETATM    7  C12 UNL     1      28.028   5.560  48.479  1.00  0.00     0.067 A 
HETATM    8  C18 UNL     1      27.954   8.117  47.682  1.00  0.00     0.020 A 
HETATM    9  C13 UNL     1      29.434   5.454  48.062  1.00  0.00    -0.022 A 
HETATM   10  C14 UNL     1      30.410   6.157  47.544  1.00  0.00    -0.001 A 
HETATM   11  C15 UNL     1      30.317   7.544  47.162  1.00  0.00     0.038 A 
HETATM   12  C16 UNL     1      29.311   8.380  47.209  1.00  0.00     0.090 A 
HETATM   13  C19 UNL     1      27.244   9.224  47.530  1.00  0.00     0.098 A 
HETATM   14  N4  UNL     1      25.900   9.137  47.943  1.00  0.00    -0.394 N 
HETATM   15  C20 UNL     1      25.241   8.000  48.496  1.00  0.00     0.164 A 
HETATM   16  H20 UNL     1      25.205   9.921  47.892  1.00  0.00     0.159 HD
BRANCH  12  17
HETATM   17  O2  UNL     1      29.560   9.681  46.753  1.00  0.00    -0.285 OA
BRANCH  17  18
HETATM   18  C17 UNL     1      30.782  10.233  47.171  1.00  0.00     0.403 C 
HETATM   19  O3  UNL     1      30.728  11.296  47.857  1.00  0.00    -0.276 OA
ENDBRANCH  17  18
ENDBRANCH  12  17
ENDBRANCH   2   5
BRANCH   1  20
HETATM   20  C8  UNL     1      24.892   4.085  50.988  1.00  0.00     0.035 A 
HETATM   21  C7  UNL     1      25.370   2.802  50.819  1.00  0.00     0.032 A 
HETATM   22  C6  UNL     1      24.682   1.688  51.248  1.00  0.00     0.031 A 
HETATM   23  C5  UNL     1      23.462   1.808  51.878  1.00  0.00     0.030 A 
HETATM   24  C22 UNL     1      22.997   3.093  52.041  1.00  0.00     0.031 A 
HETATM   25  C21 UNL     1      23.663   4.226  51.622  1.00  0.00     0.032 A 
BRANCH  23  26
HETATM   26  N2  UNL     1      22.728   0.678  52.333  1.00  0.00    -0.379 N 
HETATM   27  C4  UNL     1      21.544   0.178  51.696  1.00  0.00     0.124 C 
HETATM   28  C3  UNL     1      20.350   0.680  52.506  1.00  0.00     0.039 C 
HETATM   29  C2  UNL     1      20.677   0.562  53.970  1.00  0.00     0.118 C 
HETATM   30  N1  UNL     1      21.122  -0.733  54.373  1.00  0.00    -0.415 N 
HETATM   31  C1  UNL     1      20.191  -1.802  54.207  1.00  0.00     0.143 C 
HETATM   32  C24 UNL     1      22.486  -1.048  54.099  1.00  0.00     0.136 C 
HETATM   33  C23 UNL     1      23.286   0.073  53.514  1.00  0.00     0.142 C 
ENDBRANCH  23  26
ENDBRANCH   1  20
TORSDOF 5
ENDMDL
MODEL 8
REMARK VINA RESULT:      -7.8      2.291      3.364
REMARK  5 active torsions:
REMARK  status: ('A' for Active; 'I' for Inactive)
REMARK    1  A    between atoms: N2_6  and  C5_7 
REMARK    2  A    between atoms: C8_10  and  N3_11 
REMARK       I    between atoms: N3_11  and  C9_12 
REMARK    3  A    between atoms: C9_12  and  C10_14 
REMARK    4  A    between atoms: C16_20  and  O2_21 
REMARK    5  A    between atoms: O2_21  and  C17_22 
ROOT
HETATM    1  N3  UNL     1      20.832   1.492  51.986  1.00  0.00    -0.323 N 
HETATM    2  C9  UNL     1      22.033   1.020  51.355  1.00  0.00     0.254 C 
HETATM    3  O1  UNL     1      21.584   0.265  50.434  1.00  0.00    -0.268 OA
HETATM    4  H12 UNL     1      20.922   2.158  52.811  1.00  0.00     0.169 HD
ENDROOT
BRANCH   2   5
HETATM    5  C10 UNL     1      23.376   1.400  51.776  1.00  0.00     0.035 A 
HETATM    6  C11 UNL     1      24.078   0.872  52.786  1.00  0.00    -0.027 A 
HETATM    7  C12 UNL     1      23.250  -0.180  53.413  1.00  0.00     0.067 A 
HETATM    8  C18 UNL     1      25.418   1.361  53.088  1.00  0.00     0.020 A 
HETATM    9  C13 UNL     1      23.903  -0.893  54.522  1.00  0.00    -0.022 A 
HETATM   10  C14 UNL     1      25.012  -0.918  55.217  1.00  0.00    -0.001 A 
HETATM   11  C15 UNL     1      26.136  -0.038  55.014  1.00  0.00     0.038 A 
HETATM   12  C16 UNL     1      26.331   0.915  54.139  1.00  0.00     0.090 A 
HETATM   13  C19 UNL     1      26.015   2.328  52.408  1.00  0.00     0.098 A 
HETATM   14  N4  UNL     1      25.261   2.871  51.350  1.00  0.00    -0.394 N 
HETATM   15  C20 UNL     1      23.947   2.493  50.945  1.00  0.00     0.164 A 
HETATM   16  H20 UNL     1      25.586   3.642  50.717  1.00  0.00     0.159 HD
BRANCH  12  17
HETATM   17  O2  UNL     1      27.555   1.590  54.214  1.00  0.00    -0.285 OA
BRANCH  17  18
HETATM   18  C17 UNL     1      28.660   0.783  54.536  1.00  0.00     0.403 C 
HETATM   19  O3  UNL     1      29.448   0.485  53.592  1.00  0.00    -0.276 OA
ENDBRANCH  17  18
ENDBRANCH  12  17
ENDBRANCH   2   5
BRANCH   1  20
HETATM   20  C8  UNL     1      19.580   1.056  51.492  1.00  0.00     0.035 A 
HETATM   21  C7  UNL     1      18.936   1.692  50.451  1.00  0.00     0.032 A 
HETATM   22  C6  UNL     1      17.717   1.274  49.963  1.00  0.00     0.031 A 
HETATM   23  C5  UNL     1      17.076   0.179  50.503  1.00  0.00     0.030 A 
HETATM   24  C22 UNL     1      17.730  -0.446  51.540  1.00  0.00     0.031 A 
HETATM   25  C21 UNL     1      18.949  -0.050  52.049  1.00  0.00     0.032 A 
BRANCH  23  26
HETATM   26  N2  UNL     1      15.819  -0.278  50.021  1.00  0.00    -0.379 N 
HETATM   27  C4  UNL     1      14.555   0.103  50.582  1.00  0.00     0.124 C 
HETATM   28  C3  UNL     1      14.092  -1.049  51.474  1.00  0.00     0.039 C 
HETATM   29  C2  UNL     1      14.388  -2.348  50.775  1.00  0.00     0.118 C 
HETATM   30  N1  UNL     1      13.879  -2.431  49.444  1.00  0.00    -0.415 N 
HETATM   31  C1  UNL     1      12.461  -2.354  49.303  1.00  0.00     0.143 C 
HETATM   32  C24 UNL     1      14.642  -1.777  48.432  1.00  0.00     0.136 C 
HETATM   33  C23 UNL     1      15.929  -1.178  48.902  1.00  0.00     0.142 C 
ENDBRANCH  23  26
ENDBRANCH   1  20
TORSDOF 5
ENDMDL
MODEL 9
REMARK VINA RESULT:      -7.7      6.923     11.088
REMARK  5 active torsions:
REMARK  status: ('A' for Active; 'I' for Inactive)
REMARK    1  A    between atoms: N2_6  and  C5_7 
REMARK    2  A    between atoms: C8_10  and  N3_11 
REMARK       I    between atoms: N3_11  and  C9_12 
REMARK    3  A    between atoms: C9_12  and  C10_14 
REMARK    4  A    between atoms: C16_20  and  O2_21 
REMARK    5  A    between atoms: O2_21  and  C17_22 
ROOT
HETATM    1  N3  UNL     1      25.820   3.938  49.546  1.00  0.00    -0.323 N 
HETATM    2  C9  UNL     1      25.116   3.935  50.798  1.00  0.00     0.254 C 
HETATM    3  O1  UNL     1      24.900   5.173  50.998  1.00  0.00    -0.268 OA
HETATM    4  H12 UNL     1      26.128   3.006  49.136  1.00  0.00     0.169 HD
ENDROOT
BRANCH   2   5
HETATM    5  C10 UNL     1      24.795   2.726  51.547  1.00  0.00     0.035 A 
HETATM    6  C11 UNL     1      23.665   2.013  51.470  1.00  0.00    -0.027 A 
HETATM    7  C12 UNL     1      22.782   2.666  50.481  1.00  0.00     0.067 A 
HETATM    8  C18 UNL     1      23.489   0.819  52.289  1.00  0.00     0.020 A 
HETATM    9  C13 UNL     1      21.506   1.972  50.247  1.00  0.00    -0.022 A 
HETATM   10  C14 UNL     1      20.812   0.934  50.642  1.00  0.00    -0.001 A 
HETATM   11  C15 UNL     1      21.235  -0.010  51.646  1.00  0.00     0.038 A 
HETATM   12  C16 UNL     1      22.339  -0.082  52.344  1.00  0.00     0.090 A 
HETATM   13  C19 UNL     1      24.403   0.371  53.136  1.00  0.00     0.098 A 
HETATM   14  N4  UNL     1      25.584   1.135  53.204  1.00  0.00    -0.394 N 
HETATM   15  C20 UNL     1      25.890   2.316  52.467  1.00  0.00     0.164 A 
HETATM   16  H20 UNL     1      26.403   0.918  53.823  1.00  0.00     0.159 HD
BRANCH  12  17
HETATM   17  O2  UNL     1      22.436  -1.144  53.252  1.00  0.00    -0.285 OA
BRANCH  17  18
HETATM   18  C17 UNL     1      21.276  -1.385  54.008  1.00  0.00     0.403 C 
HETATM   19  O3  UNL     1      21.439  -1.816  55.187  1.00  0.00    -0.276 OA
ENDBRANCH  17  18
ENDBRANCH  12  17
ENDBRANCH   2   5
BRANCH   1  20
HETATM   20  C8  UNL     1      26.076   5.173  48.906  1.00  0.00     0.035 A 
HETATM   21  C7  UNL     1      25.066   6.037  48.537  1.00  0.00     0.032 A 
HETATM   22  C6  UNL     1      25.308   7.242  47.914  1.00  0.00     0.031 A 
HETATM   23  C5  UNL     1      26.594   7.647  47.628  1.00  0.00     0.030 A 
HETATM   24  C22 UNL     1      27.592   6.776  48.002  1.00  0.00     0.031 A 
HETATM   25  C21 UNL     1      27.380   5.564  48.625  1.00  0.00     0.032 A 
BRANCH  23  26
HETATM   26  N2  UNL     1      26.876   8.885  46.988  1.00  0.00    -0.379 N 
HETATM   27  C4  UNL     1      26.361   9.262  45.704  1.00  0.00     0.124 C 
HETATM   28  C3  UNL     1      27.476   9.029  44.685  1.00  0.00     0.039 C 
HETATM   29  C2  UNL     1      28.777   9.493  45.280  1.00  0.00     0.118 C 
HETATM   30  N1  UNL     1      28.752  10.827  45.788  1.00  0.00    -0.415 N 
HETATM   31  C1  UNL     1      28.496  11.860  44.838  1.00  0.00     0.143 C 
HETATM   32  C24 UNL     1      28.163  11.004  47.075  1.00  0.00     0.136 C 
HETATM   33  C23 UNL     1      27.745   9.739  47.755  1.00  0.00     0.142 C 
ENDBRANCH  23  26
ENDBRANCH   1  20
TORSDOF 5
ENDMDL
