MODEL 1
REMARK VINA RESULT:      -8.1      0.000      0.000
REMARK  6 active torsions:
REMARK  status: ('A' for Active; 'I' for Inactive)
REMARK    1  A    between atoms: C2_2  and  N1_3 
REMARK    2  A    between atoms: N1_3  and  C3_4 
REMARK    3  A    between atoms: C3_4  and  C5_6 
REMARK    4  A    between atoms: C9_13  and  C10_15 
REMARK    5  A    between atoms: C10_15  and  N4_16 
REMARK    6  A    between atoms: N4_16  and  C11_17 
ROOT
HETATM    1  C1  UNL     1      28.885   2.612  53.638  1.00  0.00     0.068 C 
HETATM    2  C2  UNL     1      27.810   1.629  53.288  1.00  0.00     0.014 C 
HETATM    3  C6  UNL     1      28.095   0.327  53.297  1.00  0.00     0.044 A 
HETATM    4  C7  UNL     1      29.508   0.100  53.676  1.00  0.00     0.132 A 
HETATM    5  N2  UNL     1      29.900  -1.161  53.648  1.00  0.00    -0.254 NA
HETATM    6  C8  UNL     1      28.942  -2.160  53.271  1.00  0.00     0.230 A 
HETATM    7  N3  UNL     1      27.728  -2.009  52.956  1.00  0.00    -0.233 NA
HETATM    8  C9  UNL     1      27.099  -0.712  52.939  1.00  0.00     0.243 A 
HETATM    9  F1  UNL     1      26.772  -0.465  51.626  1.00  0.00    -0.210 F 
ENDROOT
BRANCH   8  10
HETATM   10  C10 UNL     1      25.910  -0.691  53.885  1.00  0.00     0.194 C 
BRANCH  10  11
HETATM   11  N4  UNL     1      24.655  -0.755  53.217  1.00  0.00    -0.385 N 
HETATM   12  H14 UNL     1      24.691  -1.130  52.216  1.00  0.00     0.159 HD
BRANCH  11  13
HETATM   13  C11 UNL     1      23.328  -0.437  53.551  1.00  0.00     0.029 A 
HETATM   14  C12 UNL     1      22.582  -1.058  54.562  1.00  0.00     0.029 A 
HETATM   15  C13 UNL     1      21.295  -0.678  54.853  1.00  0.00     0.004 A 
HETATM   16  C14 UNL     1      20.656   0.335  54.172  1.00  0.00     0.024 A 
HETATM   17  C15 UNL     1      21.361   0.970  53.170  1.00  0.00     0.036 A 
HETATM   18 CL1  UNL     1      20.501   2.245  52.343  1.00  0.00    -0.084 Cl
HETATM   19  C16 UNL     1      22.653   0.572  52.896  1.00  0.00     0.052 A 
ENDBRANCH  11  13
ENDBRANCH  10  11
ENDBRANCH   8  10
BRANCH   2  20
HETATM   20  N1  UNL     1      26.553   2.253  52.966  1.00  0.00    -0.386 N 
HETATM   21  H4  UNL     1      26.327   2.628  53.922  1.00  0.00     0.160 HD
BRANCH  20  22
HETATM   22  C3  UNL     1      25.701   2.434  51.829  1.00  0.00     0.111 C 
HETATM   23  C4  UNL     1      24.533   3.341  52.027  1.00  0.00     0.035 C 
BRANCH  22  24
HETATM   24  C5  UNL     1      26.584   2.888  50.706  1.00  0.00     0.415 C 
HETATM   25  O1  UNL     1      26.652   3.245  49.543  1.00  0.00    -0.428 OA
ENDBRANCH  22  24
ENDBRANCH  20  22
ENDBRANCH   2  20
TORSDOF 6
ENDMDL
MODEL 2
REMARK VINA RESULT:      -7.6      2.473      4.155
REMARK  6 active torsions:
REMARK  status: ('A' for Active; 'I' for Inactive)
REMARK    1  A    between atoms: C2_2  and  N1_3 
REMARK    2  A    between atoms: N1_3  and  C3_4 
REMARK    3  A    between atoms: C3_4  and  C5_6 
REMARK    4  A    between atoms: C9_13  and  C10_15 
REMARK    5  A    between atoms: C10_15  and  N4_16 
REMARK    6  A    between atoms: N4_16  and  C11_17 
ROOT
HETATM    1  C1  UNL     1      27.053  -2.225  52.702  1.00  0.00     0.068 C 
HETATM    2  C2  UNL     1      26.589  -0.836  53.020  1.00  0.00     0.014 C 
HETATM    3  C6  UNL     1      27.491   0.086  53.356  1.00  0.00     0.044 A 
HETATM    4  C7  UNL     1      28.858  -0.485  53.347  1.00  0.00     0.132 A 
HETATM    5  N2  UNL     1      29.813   0.341  53.732  1.00  0.00    -0.254 NA
HETATM    6  C8  UNL     1      29.444   1.677  54.103  1.00  0.00     0.230 A 
HETATM    7  N3  UNL     1      28.296   2.205  54.111  1.00  0.00    -0.233 NA
HETATM    8  C9  UNL     1      27.118   1.477  53.709  1.00  0.00     0.243 A 
HETATM    9  F1  UNL     1      26.337   1.368  54.836  1.00  0.00    -0.210 F 
ENDROOT
BRANCH   8  10
HETATM   10  C10 UNL     1      26.434   2.181  52.550  1.00  0.00     0.194 C 
BRANCH  10  11
HETATM   11  N4  UNL     1      25.258   2.886  52.931  1.00  0.00    -0.385 N 
HETATM   12  H14 UNL     1      25.304   3.366  53.886  1.00  0.00     0.159 HD
BRANCH  11  13
HETATM   13  C11 UNL     1      24.000   3.120  52.350  1.00  0.00     0.029 A 
HETATM   14  C12 UNL     1      23.213   4.259  52.568  1.00  0.00     0.029 A 
HETATM   15  C13 UNL     1      22.002   4.435  51.944  1.00  0.00     0.004 A 
HETATM   16  C14 UNL     1      21.485   3.507  51.067  1.00  0.00     0.024 A 
HETATM   17  C15 UNL     1      22.235   2.372  50.828  1.00  0.00     0.036 A 
HETATM   18 CL1  UNL     1      21.529   1.233  49.709  1.00  0.00    -0.084 Cl
HETATM   19  C16 UNL     1      23.448   2.217  51.466  1.00  0.00     0.052 A 
ENDBRANCH  11  13
ENDBRANCH  10  11
ENDBRANCH   8  10
BRANCH   2  20
HETATM   20  N1  UNL     1      25.163  -0.677  52.921  1.00  0.00    -0.386 N 
HETATM   21  H4  UNL     1      25.082  -0.722  51.874  1.00  0.00     0.160 HD
BRANCH  20  22
HETATM   22  C3  UNL     1      24.037  -0.499  53.788  1.00  0.00     0.111 C 
HETATM   23  C4  UNL     1      22.716  -0.918  53.237  1.00  0.00     0.035 C 
BRANCH  22  24
HETATM   24  C5  UNL     1      24.367  -1.214  55.064  1.00  0.00     0.415 C 
HETATM   25  O1  UNL     1      25.050  -1.237  56.073  1.00  0.00    -0.428 OA
ENDBRANCH  22  24
ENDBRANCH  20  22
ENDBRANCH   2  20
TORSDOF 6
ENDMDL
MODEL 3
REMARK VINA RESULT:      -7.5      2.774      5.991
REMARK  6 active torsions:
REMARK  status: ('A' for Active; 'I' for Inactive)
REMARK    1  A    between atoms: C2_2  and  N1_3 
REMARK    2  A    between atoms: N1_3  and  C3_4 
REMARK    3  A    between atoms: C3_4  and  C5_6 
REMARK    4  A    between atoms: C9_13  and  C10_15 
REMARK    5  A    between atoms: C10_15  and  N4_16 
REMARK    6  A    between atoms: N4_16  and  C11_17 
ROOT
HETATM    1  C1  UNL     1      24.755  -1.055  55.310  1.00  0.00     0.068 C 
HETATM    2  C2  UNL     1      25.088  -0.015  54.285  1.00  0.00     0.014 C 
HETATM    3  C6  UNL     1      24.188   0.282  53.348  1.00  0.00     0.044 A 
HETATM    4  C7  UNL     1      22.961  -0.529  53.520  1.00  0.00     0.132 A 
HETATM    5  N2  UNL     1      22.036  -0.349  52.595  1.00  0.00    -0.254 NA
HETATM    6  C8  UNL     1      22.300   0.595  51.547  1.00  0.00     0.230 A 
HETATM    7  N3  UNL     1      23.324   1.314  51.374  1.00  0.00    -0.233 NA
HETATM    8  C9  UNL     1      24.444   1.280  52.281  1.00  0.00     0.243 A 
HETATM    9  F1  UNL     1      25.502   0.778  51.561  1.00  0.00    -0.210 F 
ENDROOT
BRANCH   8  10
HETATM   10  C10 UNL     1      24.693   2.662  52.862  1.00  0.00     0.194 C 
BRANCH  10  11
HETATM   11  N4  UNL     1      24.523   3.712  51.916  1.00  0.00    -0.385 N 
HETATM   12  H14 UNL     1      23.610   4.261  52.005  1.00  0.00     0.159 HD
BRANCH  11  13
HETATM   13  C11 UNL     1      25.279   4.230  50.851  1.00  0.00     0.029 A 
HETATM   14  C12 UNL     1      26.360   3.579  50.241  1.00  0.00     0.029 A 
HETATM   15  C13 UNL     1      27.040   4.134  49.185  1.00  0.00     0.004 A 
HETATM   16  C14 UNL     1      26.704   5.362  48.659  1.00  0.00     0.024 A 
HETATM   17  C15 UNL     1      25.644   6.032  49.235  1.00  0.00     0.036 A 
HETATM   18 CL1  UNL     1      25.265   7.582  48.525  1.00  0.00    -0.084 Cl
HETATM   19  C16 UNL     1      24.975   5.455  50.294  1.00  0.00     0.052 A 
ENDBRANCH  11  13
ENDBRANCH  10  11
ENDBRANCH   8  10
BRANCH   2  20
HETATM   20  N1  UNL     1      26.402   0.548  54.453  1.00  0.00    -0.386 N 
HETATM   21  H4  UNL     1      26.113   1.475  54.855  1.00  0.00     0.160 HD
BRANCH  20  22
HETATM   22  C3  UNL     1      27.767   0.180  54.226  1.00  0.00     0.111 C 
HETATM   23  C4  UNL     1      28.000  -0.849  53.172  1.00  0.00     0.035 C 
BRANCH  22  24
HETATM   24  C5  UNL     1      28.508   1.453  53.944  1.00  0.00     0.415 C 
HETATM   25  O1  UNL     1      28.566   2.658  54.114  1.00  0.00    -0.428 OA
ENDBRANCH  22  24
ENDBRANCH  20  22
ENDBRANCH   2  20
TORSDOF 6
ENDMDL
MODEL 4
REMARK VINA RESULT:      -7.3      3.010      5.564
REMARK  6 active torsions:
REMARK  status: ('A' for Active; 'I' for Inactive)
REMARK    1  A    between atoms: C2_2  and  N1_3 
REMARK    2  A    between atoms: N1_3  and  C3_4 
REMARK    3  A    between atoms: C3_4  and  C5_6 
REMARK    4  A    between atoms: C9_13  and  C10_15 
REMARK    5  A    between atoms: C10_15  and  N4_16 
REMARK    6  A    between atoms: N4_16  and  C11_17 
ROOT
HETATM    1  C1  UNL     1      25.065  -1.019  54.992  1.00  0.00     0.068 C 
HETATM    2  C2  UNL     1      25.200   0.124  54.033  1.00  0.00     0.014 C 
HETATM    3  C6  UNL     1      26.405   0.653  53.823  1.00  0.00     0.044 A 
HETATM    4  C7  UNL     1      27.434  -0.042  54.631  1.00  0.00     0.132 A 
HETATM    5  N2  UNL     1      28.653   0.458  54.536  1.00  0.00    -0.254 NA
HETATM    6  C8  UNL     1      28.856   1.589  53.676  1.00  0.00     0.230 A 
HETATM    7  N3  UNL     1      28.011   2.199  52.962  1.00  0.00    -0.233 NA
HETATM    8  C9  UNL     1      26.626   1.801  52.911  1.00  0.00     0.243 A 
HETATM    9  F1  UNL     1      25.912   2.842  53.458  1.00  0.00    -0.210 F 
ENDROOT
BRANCH   8  10
HETATM   10  C10 UNL     1      26.228   1.462  51.484  1.00  0.00     0.194 C 
BRANCH  10  11
HETATM   11  N4  UNL     1      25.415   2.458  50.872  1.00  0.00    -0.385 N 
HETATM   12  H14 UNL     1      24.361   2.312  50.976  1.00  0.00     0.159 HD
BRANCH  11  13
HETATM   13  C11 UNL     1      25.656   3.629  50.135  1.00  0.00     0.029 A 
HETATM   14  C12 UNL     1      24.726   4.658  49.934  1.00  0.00     0.029 A 
HETATM   15  C13 UNL     1      25.038   5.791  49.223  1.00  0.00     0.004 A 
HETATM   16  C14 UNL     1      26.281   5.987  48.662  1.00  0.00     0.024 A 
HETATM   17  C15 UNL     1      27.222   4.994  48.840  1.00  0.00     0.036 A 
HETATM   18 CL1  UNL     1      28.778   5.299  48.107  1.00  0.00    -0.084 Cl
HETATM   19  C16 UNL     1      26.887   3.866  49.558  1.00  0.00     0.052 A 
ENDBRANCH  11  13
ENDBRANCH  10  11
ENDBRANCH   8  10
BRANCH   2  20
HETATM   20  N1  UNL     1      23.949   0.523  53.445  1.00  0.00    -0.386 N 
HETATM   21  H4  UNL     1      24.149   1.552  53.360  1.00  0.00     0.160 HD
BRANCH  20  22
HETATM   22  C3  UNL     1      22.715  -0.074  53.031  1.00  0.00     0.111 C 
HETATM   23  C4  UNL     1      21.683  -0.245  54.094  1.00  0.00     0.035 C 
BRANCH  22  24
HETATM   24  C5  UNL     1      22.211   0.748  51.883  1.00  0.00     0.415 C 
HETATM   25  O1  UNL     1      22.471   1.284  50.820  1.00  0.00    -0.428 OA
ENDBRANCH  22  24
ENDBRANCH  20  22
ENDBRANCH   2  20
TORSDOF 6
ENDMDL
MODEL 5
REMARK VINA RESULT:      -7.2      3.011      6.210
REMARK  6 active torsions:
REMARK  status: ('A' for Active; 'I' for Inactive)
REMARK    1  A    between atoms: C2_2  and  N1_3 
REMARK    2  A    between atoms: N1_3  and  C3_4 
REMARK    3  A    between atoms: C3_4  and  C5_6 
REMARK    4  A    between atoms: C9_13  and  C10_15 
REMARK    5  A    between atoms: C10_15  and  N4_16 
REMARK    6  A    between atoms: N4_16  and  C11_17 
ROOT
HETATM    1  C1  UNL     1      21.713   3.512  51.227  1.00  0.00     0.068 C 
HETATM    2  C2  UNL     1      22.875   2.755  51.794  1.00  0.00     0.014 C 
HETATM    3  C6  UNL     1      24.100   3.011  51.334  1.00  0.00     0.044 A 
HETATM    4  C7  UNL     1      24.062   4.060  50.289  1.00  0.00     0.132 A 
HETATM    5  N2  UNL     1      25.226   4.333  49.727  1.00  0.00    -0.254 NA
HETATM    6  C8  UNL     1      26.382   3.614  50.179  1.00  0.00     0.230 A 
HETATM    7  N3  UNL     1      26.458   2.725  51.074  1.00  0.00    -0.233 NA
HETATM    8  C9  UNL     1      25.302   2.292  51.820  1.00  0.00     0.243 A 
HETATM    9  F1  UNL     1      25.101   0.975  51.478  1.00  0.00    -0.210 F 
ENDROOT
BRANCH   8  10
HETATM   10  C10 UNL     1      25.521   2.516  53.307  1.00  0.00     0.194 C 
BRANCH  10  11
HETATM   11  N4  UNL     1      26.185   1.434  53.951  1.00  0.00    -0.385 N 
HETATM   12  H14 UNL     1      25.642   0.980  54.753  1.00  0.00     0.159 HD
BRANCH  11  13
HETATM   13  C11 UNL     1      27.422   0.787  53.795  1.00  0.00     0.029 A 
HETATM   14  C12 UNL     1      28.674   1.401  53.932  1.00  0.00     0.029 A 
HETATM   15  C13 UNL     1      29.846   0.699  53.792  1.00  0.00     0.004 A 
HETATM   16  C14 UNL     1      29.867  -0.649  53.509  1.00  0.00     0.024 A 
HETATM   17  C15 UNL     1      28.651  -1.287  53.367  1.00  0.00     0.036 A 
HETATM   18 CL1  UNL     1      28.740  -2.994  53.009  1.00  0.00    -0.084 Cl
HETATM   19  C16 UNL     1      27.486  -0.562  53.513  1.00  0.00     0.052 A 
ENDBRANCH  11  13
ENDBRANCH  10  11
ENDBRANCH   8  10
BRANCH   2  20
HETATM   20  N1  UNL     1      22.495   1.801  52.802  1.00  0.00    -0.386 N 
HETATM   21  H4  UNL     1      22.843   2.331  53.642  1.00  0.00     0.160 HD
BRANCH  20  22
HETATM   22  C3  UNL     1      21.864   0.519  52.888  1.00  0.00     0.111 C 
HETATM   23  C4  UNL     1      21.308  -0.022  51.613  1.00  0.00     0.035 C 
BRANCH  22  24
HETATM   24  C5  UNL     1      22.868  -0.408  53.503  1.00  0.00     0.415 C 
HETATM   25  O1  UNL     1      23.935  -0.518  54.081  1.00  0.00    -0.428 OA
ENDBRANCH  22  24
ENDBRANCH  20  22
ENDBRANCH   2  20
TORSDOF 6
ENDMDL
MODEL 6
REMARK VINA RESULT:      -7.2      2.979      6.689
REMARK  6 active torsions:
REMARK  status: ('A' for Active; 'I' for Inactive)
REMARK    1  A    between atoms: C2_2  and  N1_3 
REMARK    2  A    between atoms: N1_3  and  C3_4 
REMARK    3  A    between atoms: C3_4  and  C5_6 
REMARK    4  A    between atoms: C9_13  and  C10_15 
REMARK    5  A    between atoms: C10_15  and  N4_16 
REMARK    6  A    between atoms: N4_16  and  C11_17 
ROOT
HETATM    1  C1  UNL     1      22.766  -0.913  54.259  1.00  0.00     0.068 C 
HETATM    2  C2  UNL     1      23.298   0.119  53.313  1.00  0.00     0.014 C 
HETATM    3  C6  UNL     1      22.476   1.064  52.857  1.00  0.00     0.044 A 
HETATM    4  C7  UNL     1      21.115   0.893  53.415  1.00  0.00     0.132 A 
HETATM    5  N2  UNL     1      20.214   1.748  52.967  1.00  0.00    -0.254 NA
HETATM    6  C8  UNL     1      20.633   2.738  52.017  1.00  0.00     0.230 A 
HETATM    7  N3  UNL     1      21.783   2.926  51.529  1.00  0.00    -0.233 NA
HETATM    8  C9  UNL     1      22.912   2.109  51.899  1.00  0.00     0.243 A 
HETATM    9  F1  UNL     1      23.278   1.428  50.761  1.00  0.00    -0.210 F 
ENDROOT
BRANCH   8  10
HETATM   10  C10 UNL     1      24.018   2.972  52.483  1.00  0.00     0.194 C 
BRANCH  10  11
HETATM   11  N4  UNL     1      25.176   3.041  51.660  1.00  0.00    -0.385 N 
HETATM   12  H14 UNL     1      25.892   2.262  51.814  1.00  0.00     0.159 HD
BRANCH  11  13
HETATM   13  C11 UNL     1      25.638   3.909  50.656  1.00  0.00     0.029 A 
HETATM   14  C12 UNL     1      26.769   3.688  49.859  1.00  0.00     0.029 A 
HETATM   15  C13 UNL     1      27.149   4.568  48.876  1.00  0.00     0.004 A 
HETATM   16  C14 UNL     1      26.446   5.722  48.611  1.00  0.00     0.024 A 
HETATM   17  C15 UNL     1      25.325   5.973  49.377  1.00  0.00     0.036 A 
HETATM   18 CL1  UNL     1      24.474   7.449  48.995  1.00  0.00    -0.084 Cl
HETATM   19  C16 UNL     1      24.962   5.074  50.358  1.00  0.00     0.052 A 
ENDBRANCH  11  13
ENDBRANCH  10  11
ENDBRANCH   8  10
BRANCH   2  20
HETATM   20  N1  UNL     1      24.691  -0.061  53.001  1.00  0.00    -0.386 N 
HETATM   21  H4  UNL     1      24.637   0.142  51.970  1.00  0.00     0.160 HD
BRANCH  20  22
HETATM   22  C3  UNL     1      25.910  -0.400  53.672  1.00  0.00     0.111 C 
HETATM   23  C4  UNL     1      26.980  -0.996  52.820  1.00  0.00     0.035 C 
BRANCH  22  24
HETATM   24  C5  UNL     1      26.370   0.845  54.368  1.00  0.00     0.415 C 
HETATM   25  O1  UNL     1      26.892   1.941  54.260  1.00  0.00    -0.428 OA
ENDBRANCH  22  24
ENDBRANCH  20  22
ENDBRANCH   2  20
TORSDOF 6
ENDMDL
MODEL 7
REMARK VINA RESULT:      -7.1      2.830      5.079
REMARK  6 active torsions:
REMARK  status: ('A' for Active; 'I' for Inactive)
REMARK    1  A    between atoms: C2_2  and  N1_3 
REMARK    2  A    between atoms: N1_3  and  C3_4 
REMARK    3  A    between atoms: C3_4  and  C5_6 
REMARK    4  A    between atoms: C9_13  and  C10_15 
REMARK    5  A    between atoms: C10_15  and  N4_16 
REMARK    6  A    between atoms: N4_16  and  C11_17 
ROOT
HETATM    1  C1  UNL     1      22.907  -0.706  53.403  1.00  0.00     0.068 C 
HETATM    2  C2  UNL     1      23.714   0.512  53.074  1.00  0.00     0.014 C 
HETATM    3  C6  UNL     1      24.955   0.614  53.548  1.00  0.00     0.044 A 
HETATM    4  C7  UNL     1      25.309  -0.576  54.357  1.00  0.00     0.132 A 
HETATM    5  N2  UNL     1      26.501  -0.533  54.924  1.00  0.00    -0.254 NA
HETATM    6  C8  UNL     1      27.318   0.625  54.700  1.00  0.00     0.230 A 
HETATM    7  N3  UNL     1      27.059   1.650  54.007  1.00  0.00    -0.233 NA
HETATM    8  C9  UNL     1      25.815   1.795  53.293  1.00  0.00     0.243 A 
HETATM    9  F1  UNL     1      25.161   2.853  53.879  1.00  0.00    -0.210 F 
ENDROOT
BRANCH   8  10
HETATM   10  C10 UNL     1      26.079   1.979  51.808  1.00  0.00     0.194 C 
BRANCH  10  11
HETATM   11  N4  UNL     1      25.847   3.308  51.353  1.00  0.00    -0.385 N 
HETATM   12  H14 UNL     1      26.578   4.027  51.656  1.00  0.00     0.159 HD
BRANCH  11  13
HETATM   13  C11 UNL     1      24.861   3.940  50.576  1.00  0.00     0.029 A 
HETATM   14  C12 UNL     1      24.247   3.383  49.447  1.00  0.00     0.029 A 
HETATM   15  C13 UNL     1      23.270   4.049  48.749  1.00  0.00     0.004 A 
HETATM   16  C14 UNL     1      22.832   5.303  49.112  1.00  0.00     0.024 A 
HETATM   17  C15 UNL     1      23.415   5.882  50.221  1.00  0.00     0.036 A 
HETATM   18 CL1  UNL     1      22.818   7.471  50.634  1.00  0.00    -0.084 Cl
HETATM   19  C16 UNL     1      24.394   5.195  50.907  1.00  0.00     0.052 A 
ENDBRANCH  11  13
ENDBRANCH  10  11
ENDBRANCH   8  10
BRANCH   2  20
HETATM   20  N1  UNL     1      23.004   1.460  52.256  1.00  0.00    -0.386 N 
HETATM   21  H4  UNL     1      23.835   1.880  51.766  1.00  0.00     0.160 HD
BRANCH  20  22
HETATM   22  C3  UNL     1      21.656   1.877  52.015  1.00  0.00     0.111 C 
HETATM   23  C4  UNL     1      21.388   3.337  52.165  1.00  0.00     0.035 C 
BRANCH  22  24
HETATM   24  C5  UNL     1      21.294   1.375  50.649  1.00  0.00     0.415 C 
HETATM   25  O1  UNL     1      21.687   0.884  49.606  1.00  0.00    -0.428 OA
ENDBRANCH  22  24
ENDBRANCH  20  22
ENDBRANCH   2  20
TORSDOF 6
ENDMDL
MODEL 8
REMARK VINA RESULT:      -7.1      3.240      5.617
REMARK  6 active torsions:
REMARK  status: ('A' for Active; 'I' for Inactive)
REMARK    1  A    between atoms: C2_2  and  N1_3 
REMARK    2  A    between atoms: N1_3  and  C3_4 
REMARK    3  A    between atoms: C3_4  and  C5_6 
REMARK    4  A    between atoms: C9_13  and  C10_15 
REMARK    5  A    between atoms: C10_15  and  N4_16 
REMARK    6  A    between atoms: N4_16  and  C11_17 
ROOT
HETATM    1  C1  UNL     1      22.262  -1.092  53.633  1.00  0.00     0.068 C 
HETATM    2  C2  UNL     1      23.199  -0.049  53.105  1.00  0.00     0.014 C 
HETATM    3  C6  UNL     1      24.402   0.083  53.664  1.00  0.00     0.044 A 
HETATM    4  C7  UNL     1      24.581  -0.892  54.765  1.00  0.00     0.132 A 
HETATM    5  N2  UNL     1      25.722  -0.791  55.422  1.00  0.00    -0.254 NA
HETATM    6  C8  UNL     1      26.654   0.219  55.010  1.00  0.00     0.230 A 
HETATM    7  N3  UNL     1      26.545   1.057  54.070  1.00  0.00    -0.233 NA
HETATM    8  C9  UNL     1      25.381   1.104  53.221  1.00  0.00     0.243 A 
HETATM    9  F1  UNL     1      24.779   2.316  53.469  1.00  0.00    -0.210 F 
ENDROOT
BRANCH   8  10
HETATM   10  C10 UNL     1      25.780   0.899  51.769  1.00  0.00     0.194 C 
BRANCH  10  11
HETATM   11  N4  UNL     1      26.405   2.039  51.188  1.00  0.00    -0.385 N 
HETATM   12  H14 UNL     1      27.460   2.108  51.344  1.00  0.00     0.159 HD
BRANCH  11  13
HETATM   13  C11 UNL     1      25.969   3.141  50.433  1.00  0.00     0.029 A 
HETATM   14  C12 UNL     1      24.632   3.533  50.281  1.00  0.00     0.029 A 
HETATM   15  C13 UNL     1      24.279   4.639  49.547  1.00  0.00     0.004 A 
HETATM   16  C14 UNL     1      25.213   5.431  48.916  1.00  0.00     0.024 A 
HETATM   17  C15 UNL     1      26.540   5.075  49.046  1.00  0.00     0.036 A 
HETATM   18 CL1  UNL     1      27.677   6.116  48.225  1.00  0.00    -0.084 Cl
HETATM   19  C16 UNL     1      26.871   3.960  49.787  1.00  0.00     0.052 A 
ENDBRANCH  11  13
ENDBRANCH  10  11
ENDBRANCH   8  10
BRANCH   2  20
HETATM   20  N1  UNL     1      22.645   0.713  52.017  1.00  0.00    -0.386 N 
HETATM   21  H4  UNL     1      23.457   1.365  51.868  1.00  0.00     0.160 HD
BRANCH  20  22
HETATM   22  C3  UNL     1      21.444   0.765  51.240  1.00  0.00     0.111 C 
HETATM   23  C4  UNL     1      20.392   1.704  51.726  1.00  0.00     0.035 C 
BRANCH  22  24
HETATM   24  C5  UNL     1      21.862   1.066  49.833  1.00  0.00     0.415 C 
HETATM   25  O1  UNL     1      21.573   1.014  48.650  1.00  0.00    -0.428 OA
ENDBRANCH  22  24
ENDBRANCH  20  22
ENDBRANCH   2  20
TORSDOF 6
ENDMDL
MODEL 9
REMARK VINA RESULT:      -7.0      3.195      6.187
REMARK  6 active torsions:
REMARK  status: ('A' for Active; 'I' for Inactive)
REMARK    1  A    between atoms: C2_2  and  N1_3 
REMARK    2  A    between atoms: N1_3  and  C3_4 
REMARK    3  A    between atoms: C3_4  and  C5_6 
REMARK    4  A    between atoms: C9_13  and  C10_15 
REMARK    5  A    between atoms: C10_15  and  N4_16 
REMARK    6  A    between atoms: N4_16  and  C11_17 
ROOT
HETATM    1  C1  UNL     1      22.196   1.948  49.375  1.00  0.00     0.068 C 
HETATM    2  C2  UNL     1      22.855   1.671  50.692  1.00  0.00     0.014 C 
HETATM    3  C6  UNL     1      22.165   1.038  51.640  1.00  0.00     0.044 A 
HETATM    4  C7  UNL     1      20.798   0.714  51.170  1.00  0.00     0.132 A 
HETATM    5  N2  UNL     1      20.017   0.141  52.069  1.00  0.00    -0.254 NA
HETATM    6  C8  UNL     1      20.558  -0.112  53.373  1.00  0.00     0.230 A 
HETATM    7  N3  UNL     1      21.719   0.135  53.807  1.00  0.00    -0.233 NA
HETATM    8  C9  UNL     1      22.730   0.745  52.980  1.00  0.00     0.243 A 
HETATM    9  F1  UNL     1      22.989   1.974  53.540  1.00  0.00    -0.210 F 
ENDROOT
BRANCH   8  10
HETATM   10  C10 UNL     1      23.947  -0.158  52.884  1.00  0.00     0.194 C 
BRANCH  10  11
HETATM   11  N4  UNL     1      24.971   0.171  53.816  1.00  0.00    -0.385 N 
HETATM   12  H14 UNL     1      24.699   0.072  54.846  1.00  0.00     0.159 HD
BRANCH  11  13
HETATM   13  C11 UNL     1      26.301   0.614  53.725  1.00  0.00     0.029 A 
HETATM   14  C12 UNL     1      26.697   1.955  53.626  1.00  0.00     0.029 A 
HETATM   15  C13 UNL     1      28.020   2.319  53.566  1.00  0.00     0.004 A 
HETATM   16  C14 UNL     1      29.040   1.393  53.599  1.00  0.00     0.024 A 
HETATM   17  C15 UNL     1      28.686   0.062  53.696  1.00  0.00     0.036 A 
HETATM   18 CL1  UNL     1      30.019  -1.065  53.733  1.00  0.00    -0.084 Cl
HETATM   19  C16 UNL     1      27.351  -0.280  53.755  1.00  0.00     0.052 A 
ENDBRANCH  11  13
ENDBRANCH  10  11
ENDBRANCH   8  10
BRANCH   2  20
HETATM   20  N1  UNL     1      24.207   2.156  50.764  1.00  0.00    -0.386 N 
HETATM   21  H4  UNL     1      24.695   1.225  50.788  1.00  0.00     0.160 HD
BRANCH  20  22
HETATM   22  C3  UNL     1      24.902   3.408  50.805  1.00  0.00     0.111 C 
HETATM   23  C4  UNL     1      25.365   3.941  49.490  1.00  0.00     0.035 C 
BRANCH  22  24
HETATM   24  C5  UNL     1      23.999   4.370  51.516  1.00  0.00     0.415 C 
HETATM   25  O1  UNL     1      23.308   5.371  51.436  1.00  0.00    -0.428 OA
ENDBRANCH  22  24
ENDBRANCH  20  22
ENDBRANCH   2  20
TORSDOF 6
ENDMDL
