MODEL 1
REMARK VINA RESULT:      -8.4      0.000      0.000
REMARK  6 active torsions:
REMARK  status: ('A' for Active; 'I' for Inactive)
REMARK    1  A    between atoms: C2_2  and  C3_3 
REMARK    2  A    between atoms: C3_3  and  C4_4 
REMARK    3  A    between atoms: C6_6  and  O1_7 
REMARK    4  A    between atoms: C8_9  and  C9_10 
REMARK    5  A    between atoms: C12_15  and  N3_16 
REMARK    6  A    between atoms: N3_16  and  C13_17 
ROOT
HETATM    1  C9  UNL     1      27.152   1.330  52.839  1.00  0.00     0.030 A 
HETATM    2  C10 UNL     1      28.256   2.015  53.300  1.00  0.00     0.133 A 
HETATM    3  N1  UNL     1      29.004   1.554  54.316  1.00  0.00    -0.253 NA
HETATM    4  C11 UNL     1      28.663   0.394  54.900  1.00  0.00     0.234 A 
HETATM    5  N2  UNL     1      27.601  -0.264  54.457  1.00  0.00    -0.224 NA
HETATM    6  C12 UNL     1      26.811   0.122  53.458  1.00  0.00     0.141 A 
ENDROOT
BRANCH   1   7
HETATM    7  C8  UNL     1      26.432   1.893  51.730  1.00  0.00     0.056 C 
HETATM    8  C7  UNL     1      25.367   2.620  51.543  1.00  0.00     0.102 C 
HETATM    9  C6  UNL     1      24.531   3.108  52.636  1.00  0.00     0.095 C 
HETATM   10  O2  UNL     1      25.022   2.939  50.214  1.00  0.00    -0.348 OA
HETATM   11  C5  UNL     1      23.248   3.492  52.660  1.00  0.00     0.019 C 
HETATM   12  C4  UNL     1      22.257   3.541  51.555  1.00  0.00     0.029 C 
HETATM   13  C20 UNL     1      22.670   2.497  50.531  1.00  0.00     0.036 C 
HETATM   14  C19 UNL     1      23.726   3.116  49.642  1.00  0.00     0.176 C 
BRANCH   9  15
HETATM   15  O1  UNL     1      25.250   3.163  53.842  1.00  0.00    -0.358 OA
HETATM   16  H6  UNL     1      25.266   3.956  54.439  1.00  0.00     0.217 HD
ENDBRANCH   9  15
BRANCH  12  17
HETATM   17  C3  UNL     1      20.921   3.199  52.042  1.00  0.00     0.075 C 
BRANCH  17  18
HETATM   18  C2  UNL     1      19.823   3.632  51.437  1.00  0.00    -0.175 C 
HETATM   19  C1  UNL     1      18.587   3.895  51.041  1.00  0.00     0.091 C 
ENDBRANCH  17  18
ENDBRANCH  12  17
ENDBRANCH   1   7
BRANCH   6  20
HETATM   20  N3  UNL     1      25.673  -0.573  52.971  1.00  0.00    -0.340 N 
HETATM   21  H10 UNL     1      25.767  -1.096  52.058  1.00  0.00     0.167 HD
BRANCH  20  22
HETATM   22  C13 UNL     1      24.384  -0.676  53.550  1.00  0.00     0.035 A 
HETATM   23  C14 UNL     1      24.188  -1.099  54.863  1.00  0.00     0.029 A 
HETATM   24  C15 UNL     1      22.959  -1.205  55.444  1.00  0.00     0.004 A 
HETATM   25  C16 UNL     1      21.827  -0.893  54.745  1.00  0.00     0.024 A 
HETATM   26  C17 UNL     1      21.949  -0.473  53.456  1.00  0.00     0.036 A 
HETATM   27 CL1  UNL     1      20.495  -0.074  52.562  1.00  0.00    -0.084 Cl
HETATM   28  C18 UNL     1      23.206  -0.378  52.904  1.00  0.00     0.053 A 
ENDBRANCH  20  22
ENDBRANCH   6  20
TORSDOF 6
ENDMDL
MODEL 2
REMARK VINA RESULT:      -8.4      2.207      3.715
REMARK  6 active torsions:
REMARK  status: ('A' for Active; 'I' for Inactive)
REMARK    1  A    between atoms: C2_2  and  C3_3 
REMARK    2  A    between atoms: C3_3  and  C4_4 
REMARK    3  A    between atoms: C6_6  and  O1_7 
REMARK    4  A    between atoms: C8_9  and  C9_10 
REMARK    5  A    between atoms: C12_15  and  N3_16 
REMARK    6  A    between atoms: N3_16  and  C13_17 
ROOT
HETATM    1  C9  UNL     1      26.282   1.570  53.467  1.00  0.00     0.030 A 
HETATM    2  C10 UNL     1      27.363   2.197  54.049  1.00  0.00     0.133 A 
HETATM    3  N1  UNL     1      28.323   1.510  54.690  1.00  0.00    -0.253 NA
HETATM    4  C11 UNL     1      28.223   0.173  54.766  1.00  0.00     0.234 A 
HETATM    5  N2  UNL     1      27.183  -0.431  54.209  1.00  0.00    -0.224 NA
HETATM    6  C12 UNL     1      26.194   0.176  53.557  1.00  0.00     0.141 A 
ENDROOT
BRANCH   1   7
HETATM    7  C8  UNL     1      25.321   2.390  52.783  1.00  0.00     0.056 C 
HETATM    8  C7  UNL     1      25.208   2.978  51.626  1.00  0.00     0.102 C 
HETATM    9  C6  UNL     1      26.232   2.903  50.587  1.00  0.00     0.095 C 
HETATM   10  O2  UNL     1      24.032   3.719  51.385  1.00  0.00    -0.348 OA
HETATM   11  C5  UNL     1      26.499   3.712  49.554  1.00  0.00     0.019 C 
HETATM   12  C4  UNL     1      25.821   4.965  49.136  1.00  0.00     0.029 C 
HETATM   13  C20 UNL     1      25.199   5.579  50.379  1.00  0.00     0.036 C 
HETATM   14  C19 UNL     1      23.864   4.904  50.607  1.00  0.00     0.176 C 
BRANCH   9  15
HETATM   15  O1  UNL     1      27.042   1.767  50.753  1.00  0.00    -0.358 OA
HETATM   16  H6  UNL     1      27.199   1.093  50.041  1.00  0.00     0.217 HD
ENDBRANCH   9  15
BRANCH  12  17
HETATM   17  C3  UNL     1      26.786   5.919  48.591  1.00  0.00     0.075 C 
BRANCH  17  18
HETATM   18  C2  UNL     1      28.063   5.605  48.421  1.00  0.00    -0.175 C 
HETATM   19  C1  UNL     1      29.354   5.566  48.128  1.00  0.00     0.091 C 
ENDBRANCH  17  18
ENDBRANCH  12  17
ENDBRANCH   1   7
BRANCH   6  20
HETATM   20  N3  UNL     1      25.076  -0.457  52.951  1.00  0.00    -0.340 N 
HETATM   21  H10 UNL     1      25.227  -0.949  52.028  1.00  0.00     0.167 HD
BRANCH  20  22
HETATM   22  C13 UNL     1      23.740  -0.531  53.418  1.00  0.00     0.035 A 
HETATM   23  C14 UNL     1      23.419  -1.018  54.684  1.00  0.00     0.029 A 
HETATM   24  C15 UNL     1      22.143  -1.099  55.158  1.00  0.00     0.004 A 
HETATM   25  C16 UNL     1      21.087  -0.694  54.390  1.00  0.00     0.024 A 
HETATM   26  C17 UNL     1      21.333  -0.208  53.143  1.00  0.00     0.036 A 
HETATM   27 CL1  UNL     1      19.975   0.310  52.161  1.00  0.00    -0.084 Cl
HETATM   28  C18 UNL     1      22.634  -0.142  52.699  1.00  0.00     0.053 A 
ENDBRANCH  20  22
ENDBRANCH   6  20
TORSDOF 6
ENDMDL
MODEL 3
REMARK VINA RESULT:      -7.5      3.520      7.241
REMARK  6 active torsions:
REMARK  status: ('A' for Active; 'I' for Inactive)
REMARK    1  A    between atoms: C2_2  and  C3_3 
REMARK    2  A    between atoms: C3_3  and  C4_4 
REMARK    3  A    between atoms: C6_6  and  O1_7 
REMARK    4  A    between atoms: C8_9  and  C9_10 
REMARK    5  A    between atoms: C12_15  and  N3_16 
REMARK    6  A    between atoms: N3_16  and  C13_17 
ROOT
HETATM    1  C9  UNL     1      21.567   2.727  51.449  1.00  0.00     0.030 A 
HETATM    2  C10 UNL     1      20.369   3.156  51.979  1.00  0.00     0.133 A 
HETATM    3  N1  UNL     1      19.663   4.154  51.421  1.00  0.00    -0.253 NA
HETATM    4  C11 UNL     1      20.142   4.750  50.317  1.00  0.00     0.234 A 
HETATM    5  N2  UNL     1      21.294   4.338  49.809  1.00  0.00    -0.224 NA
HETATM    6  C12 UNL     1      22.051   3.359  50.299  1.00  0.00     0.141 A 
ENDROOT
BRANCH   1   7
HETATM    7  C8  UNL     1      22.234   1.636  52.104  1.00  0.00     0.056 C 
HETATM    8  C7  UNL     1      23.328   1.446  52.786  1.00  0.00     0.102 C 
HETATM    9  C6  UNL     1      24.279   2.513  53.084  1.00  0.00     0.095 C 
HETATM   10  O2  UNL     1      23.587   0.139  53.249  1.00  0.00    -0.348 OA
HETATM   11  C5  UNL     1      25.583   2.471  53.387  1.00  0.00     0.019 C 
HETATM   12  C4  UNL     1      26.484   1.298  53.517  1.00  0.00     0.029 C 
HETATM   13  C20 UNL     1      25.922   0.195  52.636  1.00  0.00     0.036 C 
HETATM   14  C19 UNL     1      24.843  -0.517  53.421  1.00  0.00     0.176 C 
BRANCH   9  15
HETATM   15  O1  UNL     1      23.663   3.774  53.028  1.00  0.00    -0.358 OA
HETATM   16  H6  UNL     1      22.740   3.923  52.695  1.00  0.00     0.217 HD
ENDBRANCH   9  15
BRANCH  12  17
HETATM   17  C3  UNL     1      27.829   1.622  53.039  1.00  0.00     0.075 C 
BRANCH  17  18
HETATM   18  C2  UNL     1      28.890   0.916  53.404  1.00  0.00    -0.175 C 
HETATM   19  C1  UNL     1      29.841   0.009  53.572  1.00  0.00     0.091 C 
ENDBRANCH  17  18
ENDBRANCH  12  17
ENDBRANCH   1   7
BRANCH   6  20
HETATM   20  N3  UNL     1      23.285   2.905  49.763  1.00  0.00    -0.340 N 
HETATM   21  H10 UNL     1      23.369   1.881  49.514  1.00  0.00     0.167 HD
BRANCH  20  22
HETATM   22  C13 UNL     1      24.464   3.646  49.502  1.00  0.00     0.035 A 
HETATM   23  C14 UNL     1      25.737   3.116  49.701  1.00  0.00     0.029 A 
HETATM   24  C15 UNL     1      26.887   3.807  49.455  1.00  0.00     0.004 A 
HETATM   25  C16 UNL     1      26.843   5.091  48.989  1.00  0.00     0.024 A 
HETATM   26  C17 UNL     1      25.629   5.668  48.772  1.00  0.00     0.036 A 
HETATM   27 CL1  UNL     1      25.577   7.315  48.173  1.00  0.00    -0.084 Cl
HETATM   28  C18 UNL     1      24.491   4.939  49.031  1.00  0.00     0.053 A 
ENDBRANCH  20  22
ENDBRANCH   6  20
TORSDOF 6
ENDMDL
MODEL 4
REMARK VINA RESULT:      -7.4      3.057      6.141
REMARK  6 active torsions:
REMARK  status: ('A' for Active; 'I' for Inactive)
REMARK    1  A    between atoms: C2_2  and  C3_3 
REMARK    2  A    between atoms: C3_3  and  C4_4 
REMARK    3  A    between atoms: C6_6  and  O1_7 
REMARK    4  A    between atoms: C8_9  and  C9_10 
REMARK    5  A    between atoms: C12_15  and  N3_16 
REMARK    6  A    between atoms: N3_16  and  C13_17 
ROOT
HETATM    1  C9  UNL     1      22.926   2.531  50.915  1.00  0.00     0.030 A 
HETATM    2  C10 UNL     1      23.693   2.989  49.865  1.00  0.00     0.133 A 
HETATM    3  N1  UNL     1      23.341   4.068  49.146  1.00  0.00    -0.253 NA
HETATM    4  C11 UNL     1      22.207   4.715  49.459  1.00  0.00     0.234 A 
HETATM    5  N2  UNL     1      21.468   4.274  50.467  1.00  0.00    -0.224 NA
HETATM    6  C12 UNL     1      21.747   3.217  51.228  1.00  0.00     0.141 A 
ENDROOT
BRANCH   1   7
HETATM    7  C8  UNL     1      23.401   1.384  51.639  1.00  0.00     0.056 C 
HETATM    8  C7  UNL     1      24.290   1.124  52.554  1.00  0.00     0.102 C 
HETATM    9  C6  UNL     1      25.149   2.145  53.147  1.00  0.00     0.095 C 
HETATM   10  O2  UNL     1      24.415  -0.216  52.977  1.00  0.00    -0.348 OA
HETATM   11  C5  UNL     1      26.337   2.051  53.757  1.00  0.00     0.019 C 
HETATM   12  C4  UNL     1      27.168   0.850  54.025  1.00  0.00     0.029 C 
HETATM   13  C20 UNL     1      26.830  -0.181  52.961  1.00  0.00     0.036 C 
HETATM   14  C19 UNL     1      25.584  -0.914  53.408  1.00  0.00     0.176 C 
BRANCH   9  15
HETATM   15  O1  UNL     1      24.578   3.423  53.026  1.00  0.00    -0.358 OA
HETATM   16  H6  UNL     1      23.601   3.585  52.944  1.00  0.00     0.217 HD
ENDBRANCH   9  15
BRANCH  12  17
HETATM   17  C3  UNL     1      28.591   1.169  53.915  1.00  0.00     0.075 C 
BRANCH  17  18
HETATM   18  C2  UNL     1      29.516   0.222  53.826  1.00  0.00    -0.175 C 
HETATM   19  C1  UNL     1      30.202  -0.902  53.684  1.00  0.00     0.091 C 
ENDBRANCH  17  18
ENDBRANCH  12  17
ENDBRANCH   1   7
BRANCH   6  20
HETATM   20  N3  UNL     1      20.969   2.735  52.312  1.00  0.00    -0.340 N 
HETATM   21  H10 UNL     1      20.961   3.300  53.205  1.00  0.00     0.167 HD
BRANCH  20  22
HETATM   22  C13 UNL     1      20.167   1.568  52.378  1.00  0.00     0.035 A 
HETATM   23  C14 UNL     1      20.314   0.620  53.388  1.00  0.00     0.029 A 
HETATM   24  C15 UNL     1      19.556  -0.510  53.476  1.00  0.00     0.004 A 
HETATM   25  C16 UNL     1      18.587  -0.774  52.548  1.00  0.00     0.024 A 
HETATM   26  C17 UNL     1      18.393   0.114  51.535  1.00  0.00     0.036 A 
HETATM   27 CL1  UNL     1      17.149  -0.228  50.347  1.00  0.00    -0.084 Cl
HETATM   28  C18 UNL     1      19.178   1.243  51.480  1.00  0.00     0.053 A 
ENDBRANCH  20  22
ENDBRANCH   6  20
TORSDOF 6
ENDMDL
MODEL 5
REMARK VINA RESULT:      -7.4      2.962      5.407
REMARK  6 active torsions:
REMARK  status: ('A' for Active; 'I' for Inactive)
REMARK    1  A    between atoms: C2_2  and  C3_3 
REMARK    2  A    between atoms: C3_3  and  C4_4 
REMARK    3  A    between atoms: C6_6  and  O1_7 
REMARK    4  A    between atoms: C8_9  and  C9_10 
REMARK    5  A    between atoms: C12_15  and  N3_16 
REMARK    6  A    between atoms: N3_16  and  C13_17 
ROOT
HETATM    1  C9  UNL     1      21.168   0.855  53.161  1.00  0.00     0.030 A 
HETATM    2  C10 UNL     1      20.087   0.009  53.288  1.00  0.00     0.133 A 
HETATM    3  N1  UNL     1      20.206  -1.222  53.813  1.00  0.00    -0.253 NA
HETATM    4  C11 UNL     1      21.415  -1.638  54.223  1.00  0.00     0.234 A 
HETATM    5  N2  UNL     1      22.455  -0.826  54.099  1.00  0.00    -0.224 NA
HETATM    6  C12 UNL     1      22.420   0.405  53.593  1.00  0.00     0.141 A 
ENDROOT
BRANCH   1   7
HETATM    7  C8  UNL     1      20.934   2.161  52.610  1.00  0.00     0.056 C 
HETATM    8  C7  UNL     1      21.289   2.840  51.556  1.00  0.00     0.102 C 
HETATM    9  C6  UNL     1      22.165   2.303  50.518  1.00  0.00     0.095 C 
HETATM   10  O2  UNL     1      20.794   4.154  51.432  1.00  0.00    -0.348 OA
HETATM   11  C5  UNL     1      22.946   2.918  49.621  1.00  0.00     0.019 C 
HETATM   12  C4  UNL     1      23.167   4.369  49.399  1.00  0.00     0.029 C 
HETATM   13  C20 UNL     1      22.911   5.073  50.721  1.00  0.00     0.036 C 
HETATM   14  C19 UNL     1      21.420   5.295  50.844  1.00  0.00     0.176 C 
BRANCH   9  15
HETATM   15  O1  UNL     1      22.141   0.899  50.508  1.00  0.00    -0.358 OA
HETATM   16  H6  UNL     1      22.941   0.332  50.668  1.00  0.00     0.217 HD
ENDBRANCH   9  15
BRANCH  12  17
HETATM   17  C3  UNL     1      24.552   4.628  49.005  1.00  0.00     0.075 C 
BRANCH  17  18
HETATM   18  C2  UNL     1      25.575   4.056  49.625  1.00  0.00    -0.175 C 
HETATM   19  C1  UNL     1      26.616   3.322  49.989  1.00  0.00     0.091 C 
ENDBRANCH  17  18
ENDBRANCH  12  17
ENDBRANCH   1   7
BRANCH   6  20
HETATM   20  N3  UNL     1      23.524   1.287  53.458  1.00  0.00    -0.340 N 
HETATM   21  H10 UNL     1      23.342   2.324  53.548  1.00  0.00     0.167 HD
BRANCH  20  22
HETATM   22  C13 UNL     1      24.884   0.974  53.214  1.00  0.00     0.035 A 
HETATM   23  C14 UNL     1      25.279  -0.237  52.648  1.00  0.00     0.029 A 
HETATM   24  C15 UNL     1      26.581  -0.563  52.401  1.00  0.00     0.004 A 
HETATM   25  C16 UNL     1      27.588   0.308  52.705  1.00  0.00     0.024 A 
HETATM   26  C17 UNL     1      27.269   1.510  53.260  1.00  0.00     0.036 A 
HETATM   27 CL1  UNL     1      28.565   2.626  53.650  1.00  0.00    -0.084 Cl
HETATM   28  C18 UNL     1      25.945   1.803  53.495  1.00  0.00     0.053 A 
ENDBRANCH  20  22
ENDBRANCH   6  20
TORSDOF 6
ENDMDL
MODEL 6
REMARK VINA RESULT:      -7.4      2.947      4.935
REMARK  6 active torsions:
REMARK  status: ('A' for Active; 'I' for Inactive)
REMARK    1  A    between atoms: C2_2  and  C3_3 
REMARK    2  A    between atoms: C3_3  and  C4_4 
REMARK    3  A    between atoms: C6_6  and  O1_7 
REMARK    4  A    between atoms: C8_9  and  C9_10 
REMARK    5  A    between atoms: C12_15  and  N3_16 
REMARK    6  A    between atoms: N3_16  and  C13_17 
ROOT
HETATM    1  C9  UNL     1      25.190   4.257  49.170  1.00  0.00     0.030 A 
HETATM    2  C10 UNL     1      25.106   5.564  48.739  1.00  0.00     0.133 A 
HETATM    3  N1  UNL     1      26.198   6.328  48.570  1.00  0.00    -0.253 NA
HETATM    4  C11 UNL     1      27.405   5.801  48.833  1.00  0.00     0.234 A 
HETATM    5  N2  UNL     1      27.486   4.546  49.249  1.00  0.00    -0.224 NA
HETATM    6  C12 UNL     1      26.456   3.725  49.438  1.00  0.00     0.141 A 
ENDROOT
BRANCH   1   7
HETATM    7  C8  UNL     1      23.966   3.515  49.294  1.00  0.00     0.056 C 
HETATM    8  C7  UNL     1      23.211   3.057  50.252  1.00  0.00     0.102 C 
HETATM    9  C6  UNL     1      23.513   3.247  51.668  1.00  0.00     0.095 C 
HETATM   10  O2  UNL     1      22.051   2.345  49.882  1.00  0.00    -0.348 OA
HETATM   11  C5  UNL     1      23.132   2.556  52.750  1.00  0.00     0.019 C 
HETATM   12  C4  UNL     1      22.264   1.356  52.846  1.00  0.00     0.029 C 
HETATM   13  C20 UNL     1      22.378   0.609  51.528  1.00  0.00     0.036 C 
HETATM   14  C19 UNL     1      21.420   1.252  50.550  1.00  0.00     0.176 C 
BRANCH   9  15
HETATM   15  O1  UNL     1      24.349   4.359  51.865  1.00  0.00    -0.358 OA
HETATM   16  H6  UNL     1      25.122   4.365  52.488  1.00  0.00     0.217 HD
ENDBRANCH   9  15
BRANCH  12  17
HETATM   17  C3  UNL     1      22.723   0.468  53.915  1.00  0.00     0.075 C 
BRANCH  17  18
HETATM   18  C2  UNL     1      22.034  -0.605  54.278  1.00  0.00    -0.175 C 
HETATM   19  C1  UNL     1      21.506  -1.811  54.422  1.00  0.00     0.091 C 
ENDBRANCH  17  18
ENDBRANCH  12  17
ENDBRANCH   1   7
BRANCH   6  20
HETATM   20  N3  UNL     1      26.527   2.377  49.879  1.00  0.00    -0.340 N 
HETATM   21  H10 UNL     1      26.458   1.614  49.151  1.00  0.00     0.167 HD
BRANCH  20  22
HETATM   22  C13 UNL     1      26.685   1.884  51.199  1.00  0.00     0.035 A 
HETATM   23  C14 UNL     1      27.376   2.592  52.180  1.00  0.00     0.029 A 
HETATM   24  C15 UNL     1      27.540   2.141  53.457  1.00  0.00     0.004 A 
HETATM   25  C16 UNL     1      27.021   0.938  53.845  1.00  0.00     0.024 A 
HETATM   26  C17 UNL     1      26.334   0.197  52.933  1.00  0.00     0.036 A 
HETATM   27 CL1  UNL     1      25.668  -1.346  53.434  1.00  0.00    -0.084 Cl
HETATM   28  C18 UNL     1      26.188   0.685  51.654  1.00  0.00     0.053 A 
ENDBRANCH  20  22
ENDBRANCH   6  20
TORSDOF 6
ENDMDL
MODEL 7
REMARK VINA RESULT:      -7.2      3.565      6.254
REMARK  6 active torsions:
REMARK  status: ('A' for Active; 'I' for Inactive)
REMARK    1  A    between atoms: C2_2  and  C3_3 
REMARK    2  A    between atoms: C3_3  and  C4_4 
REMARK    3  A    between atoms: C6_6  and  O1_7 
REMARK    4  A    between atoms: C8_9  and  C9_10 
REMARK    5  A    between atoms: C12_15  and  N3_16 
REMARK    6  A    between atoms: N3_16  and  C13_17 
ROOT
HETATM    1  C9  UNL     1      19.287   1.800  50.949  1.00  0.00     0.030 A 
HETATM    2  C10 UNL     1      18.244   1.381  50.152  1.00  0.00     0.133 A 
HETATM    3  N1  UNL     1      17.560   0.254  50.411  1.00  0.00    -0.253 NA
HETATM    4  C11 UNL     1      17.906  -0.484  51.478  1.00  0.00     0.234 A 
HETATM    5  N2  UNL     1      18.910  -0.082  52.244  1.00  0.00    -0.224 NA
HETATM    6  C12 UNL     1      19.634   1.019  52.057  1.00  0.00     0.141 A 
ENDROOT
BRANCH   1   7
HETATM    7  C8  UNL     1      19.940   3.032  50.602  1.00  0.00     0.056 C 
HETATM    8  C7  UNL     1      21.027   3.407  49.990  1.00  0.00     0.102 C 
HETATM    9  C6  UNL     1      21.986   2.466  49.417  1.00  0.00     0.095 C 
HETATM   10  O2  UNL     1      21.272   4.792  49.887  1.00  0.00    -0.348 OA
HETATM   11  C5  UNL     1      23.287   2.600  49.130  1.00  0.00     0.019 C 
HETATM   12  C4  UNL     1      24.177   3.775  49.310  1.00  0.00     0.029 C 
HETATM   13  C20 UNL     1      23.611   4.600  50.453  1.00  0.00     0.036 C 
HETATM   14  C19 UNL     1      22.521   5.483  49.888  1.00  0.00     0.176 C 
BRANCH   9  15
HETATM   15  O1  UNL     1      21.381   1.228  49.141  1.00  0.00    -0.358 OA
HETATM   16  H6  UNL     1      20.749   0.773  49.756  1.00  0.00     0.217 HD
ENDBRANCH   9  15
BRANCH  12  17
HETATM   17  C3  UNL     1      25.528   3.350  49.679  1.00  0.00     0.075 C 
BRANCH  17  18
HETATM   18  C2  UNL     1      26.604   4.006  49.268  1.00  0.00    -0.175 C 
HETATM   19  C1  UNL     1      27.477   4.851  48.739  1.00  0.00     0.091 C 
ENDBRANCH  17  18
ENDBRANCH  12  17
ENDBRANCH   1   7
BRANCH   6  20
HETATM   20  N3  UNL     1      20.709   1.464  52.870  1.00  0.00    -0.340 N 
HETATM   21  H10 UNL     1      20.622   2.412  53.329  1.00  0.00     0.167 HD
BRANCH  20  22
HETATM   22  C13 UNL     1      21.925   0.802  53.173  1.00  0.00     0.035 A 
HETATM   23  C14 UNL     1      22.002  -0.216  54.122  1.00  0.00     0.029 A 
HETATM   24  C15 UNL     1      23.158  -0.871  54.430  1.00  0.00     0.004 A 
HETATM   25  C16 UNL     1      24.330  -0.550  53.805  1.00  0.00     0.024 A 
HETATM   26  C17 UNL     1      24.322   0.437  52.867  1.00  0.00     0.036 A 
HETATM   27 CL1  UNL     1      25.828   0.846  52.066  1.00  0.00    -0.084 Cl
HETATM   28  C18 UNL     1      23.136   1.074  52.582  1.00  0.00     0.053 A 
ENDBRANCH  20  22
ENDBRANCH   6  20
TORSDOF 6
ENDMDL
MODEL 8
REMARK VINA RESULT:      -7.1      4.098      5.858
REMARK  6 active torsions:
REMARK  status: ('A' for Active; 'I' for Inactive)
REMARK    1  A    between atoms: C2_2  and  C3_3 
REMARK    2  A    between atoms: C3_3  and  C4_4 
REMARK    3  A    between atoms: C6_6  and  O1_7 
REMARK    4  A    between atoms: C8_9  and  C9_10 
REMARK    5  A    between atoms: C12_15  and  N3_16 
REMARK    6  A    between atoms: N3_16  and  C13_17 
ROOT
HETATM    1  C9  UNL     1      25.009   3.323  49.963  1.00  0.00     0.030 A 
HETATM    2  C10 UNL     1      23.801   3.205  49.310  1.00  0.00     0.133 A 
HETATM    3  N1  UNL     1      22.797   2.459  49.802  1.00  0.00    -0.253 NA
HETATM    4  C11 UNL     1      22.980   1.809  50.962  1.00  0.00     0.234 A 
HETATM    5  N2  UNL     1      24.142   1.920  51.589  1.00  0.00    -0.224 NA
HETATM    6  C12 UNL     1      25.182   2.638  51.171  1.00  0.00     0.141 A 
ENDROOT
BRANCH   1   7
HETATM    7  C8  UNL     1      26.011   4.164  49.369  1.00  0.00     0.056 C 
HETATM    8  C7  UNL     1      26.316   5.431  49.350  1.00  0.00     0.102 C 
HETATM    9  C6  UNL     1      25.557   6.447  50.072  1.00  0.00     0.095 C 
HETATM   10  O2  UNL     1      27.438   5.817  48.587  1.00  0.00    -0.348 OA
HETATM   11  C5  UNL     1      25.444   7.767  49.876  1.00  0.00     0.019 C 
HETATM   12  C4  UNL     1      26.070   8.624  48.838  1.00  0.00     0.029 C 
HETATM   13  C20 UNL     1      26.343   7.745  47.629  1.00  0.00     0.036 C 
HETATM   14  C19 UNL     1      27.655   7.030  47.865  1.00  0.00     0.176 C 
BRANCH   9  15
HETATM   15  O1  UNL     1      24.845   5.884  51.145  1.00  0.00    -0.358 OA
HETATM   16  H6  UNL     1      24.252   5.093  51.059  1.00  0.00     0.217 HD
ENDBRANCH   9  15
BRANCH  12  17
HETATM   17  C3  UNL     1      25.160   9.693  48.429  1.00  0.00     0.075 C 
BRANCH  17  18
HETATM   18  C2  UNL     1      24.022   9.440  47.795  1.00  0.00    -0.175 C 
HETATM   19  C1  UNL     1      22.790   9.433  47.309  1.00  0.00     0.091 C 
ENDBRANCH  17  18
ENDBRANCH  12  17
ENDBRANCH   1   7
BRANCH   6  20
HETATM   20  N3  UNL     1      26.431   2.770  51.834  1.00  0.00    -0.340 N 
HETATM   21  H10 UNL     1      26.878   3.728  51.860  1.00  0.00     0.167 HD
BRANCH  20  22
HETATM   22  C13 UNL     1      27.194   1.774  52.492  1.00  0.00     0.035 A 
HETATM   23  C14 UNL     1      28.215   2.088  53.387  1.00  0.00     0.029 A 
HETATM   24  C15 UNL     1      28.963   1.150  54.034  1.00  0.00     0.004 A 
HETATM   25  C16 UNL     1      28.741  -0.183  53.830  1.00  0.00     0.024 A 
HETATM   26  C17 UNL     1      27.757  -0.557  52.967  1.00  0.00     0.036 A 
HETATM   27 CL1  UNL     1      27.474  -2.268  52.707  1.00  0.00    -0.084 Cl
HETATM   28  C18 UNL     1      27.023   0.419  52.332  1.00  0.00     0.053 A 
ENDBRANCH  20  22
ENDBRANCH   6  20
TORSDOF 6
ENDMDL
MODEL 9
REMARK VINA RESULT:      -7.0      3.404      5.050
REMARK  6 active torsions:
REMARK  status: ('A' for Active; 'I' for Inactive)
REMARK    1  A    between atoms: C2_2  and  C3_3 
REMARK    2  A    between atoms: C3_3  and  C4_4 
REMARK    3  A    between atoms: C6_6  and  O1_7 
REMARK    4  A    between atoms: C8_9  and  C9_10 
REMARK    5  A    between atoms: C12_15  and  N3_16 
REMARK    6  A    between atoms: N3_16  and  C13_17 
ROOT
HETATM    1  C9  UNL     1      23.400   1.873  50.946  1.00  0.00     0.030 A 
HETATM    2  C10 UNL     1      22.373   1.601  50.067  1.00  0.00     0.133 A 
HETATM    3  N1  UNL     1      21.361   0.779  50.389  1.00  0.00    -0.253 NA
HETATM    4  C11 UNL     1      21.352   0.204  51.603  1.00  0.00     0.234 A 
HETATM    5  N2  UNL     1      22.339   0.464  52.448  1.00  0.00    -0.224 NA
HETATM    6  C12 UNL     1      23.374   1.266  52.207  1.00  0.00     0.141 A 
ENDROOT
BRANCH   1   7
HETATM    7  C8  UNL     1      24.423   2.785  50.517  1.00  0.00     0.056 C 
HETATM    8  C7  UNL     1      24.683   4.058  50.618  1.00  0.00     0.102 C 
HETATM    9  C6  UNL     1      23.819   4.995  51.330  1.00  0.00     0.095 C 
HETATM   10  O2  UNL     1      25.859   4.533  50.001  1.00  0.00    -0.348 OA
HETATM   11  C5  UNL     1      23.678   6.322  51.217  1.00  0.00     0.019 C 
HETATM   12  C4  UNL     1      24.372   7.272  50.311  1.00  0.00     0.029 C 
HETATM   13  C20 UNL     1      24.794   6.493  49.077  1.00  0.00     0.036 C 
HETATM   14  C19 UNL     1      26.101   5.801  49.393  1.00  0.00     0.176 C 
BRANCH   9  15
HETATM   15  O1  UNL     1      23.027   4.334  52.283  1.00  0.00    -0.358 OA
HETATM   16  H6  UNL     1      23.281   3.474  52.712  1.00  0.00     0.217 HD
ENDBRANCH   9  15
BRANCH  12  17
HETATM   17  C3  UNL     1      23.467   8.341  49.889  1.00  0.00     0.075 C 
BRANCH  17  18
HETATM   18  C2  UNL     1      22.157   8.155  49.801  1.00  0.00    -0.175 C 
HETATM   19  C1  UNL     1      20.852   8.050  50.005  1.00  0.00     0.091 C 
ENDBRANCH  17  18
ENDBRANCH  12  17
ENDBRANCH   1   7
BRANCH   6  20
HETATM   20  N3  UNL     1      24.436   1.557  53.102  1.00  0.00    -0.340 N 
HETATM   21  H10 UNL     1      24.290   2.329  53.809  1.00  0.00     0.167 HD
BRANCH  20  22
HETATM   22  C13 UNL     1      25.710   0.942  53.196  1.00  0.00     0.035 A 
HETATM   23  C14 UNL     1      25.941  -0.361  52.760  1.00  0.00     0.029 A 
HETATM   24  C15 UNL     1      27.157  -0.976  52.837  1.00  0.00     0.004 A 
HETATM   25  C16 UNL     1      28.236  -0.323  53.362  1.00  0.00     0.024 A 
HETATM   26  C17 UNL     1      28.077   0.954  53.806  1.00  0.00     0.036 A 
HETATM   27 CL1  UNL     1      29.465   1.788  54.479  1.00  0.00    -0.084 Cl
HETATM   28  C18 UNL     1      26.836   1.541  53.712  1.00  0.00     0.053 A 
ENDBRANCH  20  22
ENDBRANCH   6  20
TORSDOF 6
ENDMDL
