MODEL 1
REMARK VINA RESULT:      -8.4      0.000      0.000
REMARK  6 active torsions:
REMARK  status: ('A' for Active; 'I' for Inactive)
REMARK    1  A    between atoms: O1_2  and  C2_3 
REMARK    2  A    between atoms: C6_9  and  C7_10 
REMARK    3  A    between atoms: C15_20  and  C16_21 
REMARK    4  A    between atoms: C16_21  and  C17_22 
REMARK    5  A    between atoms: C17_22  and  O2_23 
REMARK    6  A    between atoms: O2_23  and  O3_24 
ROOT
HETATM    1  C2  UNL     1      21.666   2.109  52.225  1.00  0.00     0.076 A 
HETATM    2  C3  UNL     1      22.231   2.967  51.313  1.00  0.00     0.069 A 
HETATM    3  C4  UNL     1      23.586   2.966  51.062  1.00  0.00     0.073 A 
HETATM    4  N1  UNL     1      24.220   3.776  50.198  1.00  0.00    -0.241 NA
HETATM    5  C5  UNL     1      25.560   3.722  50.011  1.00  0.00     0.234 A 
HETATM    6  N2  UNL     1      26.285   2.832  50.711  1.00  0.00    -0.240 NA
HETATM    7  C6  UNL     1      25.718   1.976  51.607  1.00  0.00     0.081 A 
HETATM    8  C13 UNL     1      24.354   2.066  51.765  1.00  0.00     0.023 A 
HETATM    9  C14 UNL     1      23.839   1.185  52.690  1.00  0.00     0.026 A 
HETATM   10  C15 UNL     1      22.481   1.208  52.922  1.00  0.00    -0.022 A 
ENDROOT
BRANCH   7  11
HETATM   11  C7  UNL     1      26.688   1.108  52.246  1.00  0.00    -0.005 A 
HETATM   12  C8  UNL     1      27.681   1.760  52.991  1.00  0.00     0.017 A 
HETATM   13  C9  UNL     1      28.712   1.136  53.668  1.00  0.00     0.045 A 
HETATM   14  C10 UNL     1      28.762  -0.240  53.601  1.00  0.00     0.138 A 
HETATM   15  F1  UNL     1      29.720  -0.992  54.218  1.00  0.00    -0.204 F 
HETATM   16  C11 UNL     1      27.814  -0.935  52.883  1.00  0.00     0.073 A 
HETATM   17 CL1  UNL     1      27.832  -2.682  52.766  1.00  0.00    -0.081 Cl
HETATM   18  C12 UNL     1      26.808  -0.263  52.227  1.00  0.00     0.041 A 
ENDBRANCH   7  11
BRANCH  10  19
HETATM   19  C16 UNL     1      21.880   0.274  53.911  1.00  0.00     0.071 C 
BRANCH  19  20
HETATM   20  C17 UNL     1      22.810  -0.861  54.250  1.00  0.00     0.214 C 
BRANCH  20  21
HETATM   21  O2  UNL     1      22.371  -1.564  55.372  1.00  0.00    -0.243 OA
BRANCH  21  22
HETATM   22  O3  UNL     1      23.363  -1.931  56.129  1.00  0.00    -0.251 OA
HETATM   23  H14 UNL     1      23.109  -2.565  56.844  1.00  0.00     0.253 HD
ENDBRANCH  21  22
ENDBRANCH  20  21
ENDBRANCH  19  20
ENDBRANCH  10  19
BRANCH   1  24
HETATM   24  O1  UNL     1      20.303   2.091  52.496  1.00  0.00    -0.355 OA
HETATM   25  C1  UNL     1      19.484   2.985  51.768  1.00  0.00     0.210 C 
ENDBRANCH   1  24
TORSDOF 6
ENDMDL
MODEL 2
REMARK VINA RESULT:      -8.3      3.103      4.305
REMARK  6 active torsions:
REMARK  status: ('A' for Active; 'I' for Inactive)
REMARK    1  A    between atoms: O1_2  and  C2_3 
REMARK    2  A    between atoms: C6_9  and  C7_10 
REMARK    3  A    between atoms: C15_20  and  C16_21 
REMARK    4  A    between atoms: C16_21  and  C17_22 
REMARK    5  A    between atoms: C17_22  and  O2_23 
REMARK    6  A    between atoms: O2_23  and  O3_24 
ROOT
HETATM    1  C2  UNL     1      22.066   1.432  51.982  1.00  0.00     0.076 A 
HETATM    2  C3  UNL     1      21.721   0.588  53.010  1.00  0.00     0.069 A 
HETATM    3  C4  UNL     1      22.676  -0.043  53.778  1.00  0.00     0.073 A 
HETATM    4  N1  UNL     1      22.427  -0.889  54.791  1.00  0.00    -0.241 NA
HETATM    5  C5  UNL     1      23.422  -1.480  55.496  1.00  0.00     0.234 A 
HETATM    6  N2  UNL     1      24.700  -1.216  55.176  1.00  0.00    -0.240 NA
HETATM    7  C6  UNL     1      25.036  -0.369  54.161  1.00  0.00     0.081 A 
HETATM    8  C13 UNL     1      23.994   0.207  53.472  1.00  0.00     0.023 A 
HETATM    9  C14 UNL     1      24.393   1.044  52.453  1.00  0.00     0.026 A 
HETATM   10  C15 UNL     1      23.418   1.662  51.700  1.00  0.00    -0.022 A 
ENDROOT
BRANCH   7  11
HETATM   11  C7  UNL     1      26.470  -0.235  53.993  1.00  0.00    -0.005 A 
HETATM   12  C8  UNL     1      27.099  -1.291  53.319  1.00  0.00     0.017 A 
HETATM   13  C9  UNL     1      28.453  -1.382  53.061  1.00  0.00     0.045 A 
HETATM   14  C10 UNL     1      29.246  -0.345  53.506  1.00  0.00     0.138 A 
HETATM   15  F1  UNL     1      30.598  -0.296  53.326  1.00  0.00    -0.204 F 
HETATM   16  C11 UNL     1      28.684   0.720  54.176  1.00  0.00     0.073 A 
HETATM   17 CL1  UNL     1      29.645   2.061  54.762  1.00  0.00    -0.081 Cl
HETATM   18  C12 UNL     1      27.328   0.759  54.406  1.00  0.00     0.041 A 
ENDBRANCH   7  11
BRANCH  10  19
HETATM   19  C16 UNL     1      23.802   2.573  50.590  1.00  0.00     0.071 C 
BRANCH  19  20
HETATM   20  C17 UNL     1      24.913   3.509  50.989  1.00  0.00     0.214 C 
BRANCH  20  21
HETATM   21  O2  UNL     1      26.112   3.178  50.358  1.00  0.00    -0.243 OA
BRANCH  21  22
HETATM   22  O3  UNL     1      27.125   3.274  51.168  1.00  0.00    -0.251 OA
HETATM   23  H14 UNL     1      27.946   3.627  50.743  1.00  0.00     0.253 HD
ENDBRANCH  21  22
ENDBRANCH  20  21
ENDBRANCH  19  20
ENDBRANCH  10  19
BRANCH   1  24
HETATM   24  O1  UNL     1      21.122   2.080  51.193  1.00  0.00    -0.355 OA
HETATM   25  C1  UNL     1      20.351   3.095  51.805  1.00  0.00     0.210 C 
ENDBRANCH   1  24
TORSDOF 6
ENDMDL
MODEL 3
REMARK VINA RESULT:      -8.0      4.609      7.087
REMARK  6 active torsions:
REMARK  status: ('A' for Active; 'I' for Inactive)
REMARK    1  A    between atoms: O1_2  and  C2_3 
REMARK    2  A    between atoms: C6_9  and  C7_10 
REMARK    3  A    between atoms: C15_20  and  C16_21 
REMARK    4  A    between atoms: C16_21  and  C17_22 
REMARK    5  A    between atoms: C17_22  and  O2_23 
REMARK    6  A    between atoms: O2_23  and  O3_24 
ROOT
HETATM    1  C2  UNL     1      26.130  -0.449  53.706  1.00  0.00     0.076 A 
HETATM    2  C3  UNL     1      25.153  -0.947  54.534  1.00  0.00     0.069 A 
HETATM    3  C4  UNL     1      23.818  -0.676  54.322  1.00  0.00     0.073 A 
HETATM    4  N1  UNL     1      22.803  -1.112  55.085  1.00  0.00    -0.241 NA
HETATM    5  C5  UNL     1      21.513  -0.794  54.817  1.00  0.00     0.234 A 
HETATM    6  N2  UNL     1      21.235  -0.018  53.756  1.00  0.00    -0.240 NA
HETATM    7  C6  UNL     1      22.208   0.464  52.932  1.00  0.00     0.081 A 
HETATM    8  C13 UNL     1      23.503   0.118  53.243  1.00  0.00     0.023 A 
HETATM    9  C14 UNL     1      24.443   0.642  52.383  1.00  0.00     0.026 A 
HETATM   10  C15 UNL     1      25.770   0.355  52.618  1.00  0.00    -0.022 A 
ENDROOT
BRANCH   7  11
HETATM   11  C7  UNL     1      21.679   1.279  51.855  1.00  0.00    -0.005 A 
HETATM   12  C8  UNL     1      21.349   0.585  50.682  1.00  0.00     0.017 A 
HETATM   13  C9  UNL     1      20.847   1.158  49.530  1.00  0.00     0.045 A 
HETATM   14  C10 UNL     1      20.656   2.524  49.540  1.00  0.00     0.138 A 
HETATM   15  F1  UNL     1      20.168   3.227  48.478  1.00  0.00    -0.204 F 
HETATM   16  C11 UNL     1      20.963   3.258  50.665  1.00  0.00     0.073 A 
HETATM   17 CL1  UNL     1      20.741   4.993  50.732  1.00  0.00    -0.081 Cl
HETATM   18  C12 UNL     1      21.462   2.636  51.787  1.00  0.00     0.041 A 
ENDBRANCH   7  11
BRANCH  10  19
HETATM   19  C16 UNL     1      26.819   0.899  51.717  1.00  0.00     0.071 C 
BRANCH  19  20
HETATM   20  C17 UNL     1      27.089   2.357  51.981  1.00  0.00     0.214 C 
BRANCH  20  21
HETATM   21  O2  UNL     1      28.260   2.535  52.718  1.00  0.00    -0.243 OA
BRANCH  21  22
HETATM   22  O3  UNL     1      28.009   2.934  53.930  1.00  0.00    -0.251 OA
HETATM   23  H14 UNL     1      28.679   3.566  54.291  1.00  0.00     0.253 HD
ENDBRANCH  21  22
ENDBRANCH  20  21
ENDBRANCH  19  20
ENDBRANCH  10  19
BRANCH   1  24
HETATM   24  O1  UNL     1      27.481  -0.709  53.899  1.00  0.00    -0.355 OA
HETATM   25  C1  UNL     1      28.115  -0.077  54.995  1.00  0.00     0.210 C 
ENDBRANCH   1  24
TORSDOF 6
ENDMDL
MODEL 4
REMARK VINA RESULT:      -7.9      3.671      6.003
REMARK  6 active torsions:
REMARK  status: ('A' for Active; 'I' for Inactive)
REMARK    1  A    between atoms: O1_2  and  C2_3 
REMARK    2  A    between atoms: C6_9  and  C7_10 
REMARK    3  A    between atoms: C15_20  and  C16_21 
REMARK    4  A    between atoms: C16_21  and  C17_22 
REMARK    5  A    between atoms: C17_22  and  O2_23 
REMARK    6  A    between atoms: O2_23  and  O3_24 
ROOT
HETATM    1  C2  UNL     1      26.426   0.373  53.434  1.00  0.00     0.076 A 
HETATM    2  C3  UNL     1      27.051   1.264  52.595  1.00  0.00     0.069 A 
HETATM    3  C4  UNL     1      26.346   1.995  51.662  1.00  0.00     0.073 A 
HETATM    4  N1  UNL     1      26.877   2.876  50.799  1.00  0.00    -0.241 NA
HETATM    5  C5  UNL     1      26.118   3.551  49.902  1.00  0.00     0.234 A 
HETATM    6  N2  UNL     1      24.792   3.337  49.870  1.00  0.00    -0.240 NA
HETATM    7  C6  UNL     1      24.176   2.459  50.713  1.00  0.00     0.081 A 
HETATM    8  C13 UNL     1      24.986   1.795  51.606  1.00  0.00     0.023 A 
HETATM    9  C14 UNL     1      24.311   0.915  52.423  1.00  0.00     0.026 A 
HETATM   10  C15 UNL     1      25.040   0.196  53.346  1.00  0.00    -0.022 A 
ENDROOT
BRANCH   7  11
HETATM   11  C7  UNL     1      22.744   2.387  50.500  1.00  0.00    -0.005 A 
HETATM   12  C8  UNL     1      22.336   1.605  49.410  1.00  0.00     0.017 A 
HETATM   13  C9  UNL     1      21.027   1.409  49.013  1.00  0.00     0.045 A 
HETATM   14  C10 UNL     1      20.047   2.036  49.752  1.00  0.00     0.138 A 
HETATM   15  F1  UNL     1      18.714   1.935  49.480  1.00  0.00    -0.204 F 
HETATM   16  C11 UNL     1      20.388   2.818  50.834  1.00  0.00     0.073 A 
HETATM   17 CL1  UNL     1      19.184   3.636  51.806  1.00  0.00    -0.081 Cl
HETATM   18  C12 UNL     1      21.709   2.980  51.186  1.00  0.00     0.041 A 
ENDBRANCH   7  11
BRANCH  10  19
HETATM   19  C16 UNL     1      24.354  -0.765  54.249  1.00  0.00     0.071 C 
BRANCH  19  20
HETATM   20  C17 UNL     1      22.855  -0.678  54.130  1.00  0.00     0.214 C 
BRANCH  20  21
HETATM   21  O2  UNL     1      22.221  -1.270  55.222  1.00  0.00    -0.243 OA
BRANCH  21  22
HETATM   22  O3  UNL     1      23.055  -1.950  55.953  1.00  0.00    -0.251 OA
HETATM   23  H14 UNL     1      22.826  -2.909  56.036  1.00  0.00     0.253 HD
ENDBRANCH  21  22
ENDBRANCH  20  21
ENDBRANCH  19  20
ENDBRANCH  10  19
BRANCH   1  24
HETATM   24  O1  UNL     1      27.114  -0.375  54.381  1.00  0.00    -0.355 OA
HETATM   25  C1  UNL     1      28.359   0.127  54.827  1.00  0.00     0.210 C 
ENDBRANCH   1  24
TORSDOF 6
ENDMDL
MODEL 5
REMARK VINA RESULT:      -7.8      4.534      7.187
REMARK  6 active torsions:
REMARK  status: ('A' for Active; 'I' for Inactive)
REMARK    1  A    between atoms: O1_2  and  C2_3 
REMARK    2  A    between atoms: C6_9  and  C7_10 
REMARK    3  A    between atoms: C15_20  and  C16_21 
REMARK    4  A    between atoms: C16_21  and  C17_22 
REMARK    5  A    between atoms: C17_22  and  O2_23 
REMARK    6  A    between atoms: O2_23  and  O3_24 
ROOT
HETATM    1  C2  UNL     1      27.062   0.732  53.313  1.00  0.00     0.076 A 
HETATM    2  C3  UNL     1      26.685  -0.039  54.386  1.00  0.00     0.069 A 
HETATM    3  C4  UNL     1      25.382  -0.454  54.555  1.00  0.00     0.073 A 
HETATM    4  N1  UNL     1      24.926  -1.197  55.577  1.00  0.00    -0.241 NA
HETATM    5  C5  UNL     1      23.625  -1.559  55.680  1.00  0.00     0.234 A 
HETATM    6  N2  UNL     1      22.756  -1.164  54.734  1.00  0.00    -0.240 NA
HETATM    7  C6  UNL     1      23.139  -0.408  53.666  1.00  0.00     0.081 A 
HETATM    8  C13 UNL     1      24.469  -0.063  53.602  1.00  0.00     0.023 A 
HETATM    9  C14 UNL     1      24.795   0.709  52.509  1.00  0.00     0.026 A 
HETATM   10  C15 UNL     1      26.105   1.111  52.364  1.00  0.00    -0.022 A 
ENDROOT
BRANCH   7  11
HETATM   11  C7  UNL     1      22.038  -0.098  52.774  1.00  0.00    -0.005 A 
HETATM   12  C8  UNL     1      20.757  -0.241  53.326  1.00  0.00     0.017 A 
HETATM   13  C9  UNL     1      19.569  -0.016  52.658  1.00  0.00     0.045 A 
HETATM   14  C10 UNL     1      19.657   0.382  51.341  1.00  0.00     0.138 A 
HETATM   15  F1  UNL     1      18.571   0.640  50.555  1.00  0.00    -0.204 F 
HETATM   16  C11 UNL     1      20.888   0.538  50.744  1.00  0.00     0.073 A 
HETATM   17 CL1  UNL     1      21.056   1.041  49.076  1.00  0.00    -0.081 Cl
HETATM   18  C12 UNL     1      22.042   0.301  51.457  1.00  0.00     0.041 A 
ENDBRANCH   7  11
BRANCH  10  19
HETATM   19  C16 UNL     1      26.503   1.944  51.199  1.00  0.00     0.071 C 
BRANCH  19  20
HETATM   20  C17 UNL     1      25.463   2.983  50.868  1.00  0.00     0.214 C 
BRANCH  20  21
HETATM   21  O2  UNL     1      25.988   3.993  50.062  1.00  0.00    -0.243 OA
BRANCH  21  22
HETATM   22  O3  UNL     1      27.288   4.010  50.096  1.00  0.00    -0.251 OA
HETATM   23  H14 UNL     1      27.663   4.234  50.984  1.00  0.00     0.253 HD
ENDBRANCH  21  22
ENDBRANCH  20  21
ENDBRANCH  19  20
ENDBRANCH  10  19
BRANCH   1  24
HETATM   24  O1  UNL     1      28.369   1.163  53.121  1.00  0.00    -0.355 OA
HETATM   25  C1  UNL     1      29.375   0.566  53.917  1.00  0.00     0.210 C 
ENDBRANCH   1  24
TORSDOF 6
ENDMDL
MODEL 6
REMARK VINA RESULT:      -7.7      3.387      5.174
REMARK  6 active torsions:
REMARK  status: ('A' for Active; 'I' for Inactive)
REMARK    1  A    between atoms: O1_2  and  C2_3 
REMARK    2  A    between atoms: C6_9  and  C7_10 
REMARK    3  A    between atoms: C15_20  and  C16_21 
REMARK    4  A    between atoms: C16_21  and  C17_22 
REMARK    5  A    between atoms: C17_22  and  O2_23 
REMARK    6  A    between atoms: O2_23  and  O3_24 
ROOT
HETATM    1  C2  UNL     1      19.736  -0.906  53.425  1.00  0.00     0.076 A 
HETATM    2  C3  UNL     1      20.531  -1.452  54.403  1.00  0.00     0.069 A 
HETATM    3  C4  UNL     1      21.880  -1.178  54.475  1.00  0.00     0.073 A 
HETATM    4  N1  UNL     1      22.730  -1.676  55.388  1.00  0.00    -0.241 NA
HETATM    5  C5  UNL     1      24.049  -1.367  55.388  1.00  0.00     0.234 A 
HETATM    6  N2  UNL     1      24.529  -0.538  54.446  1.00  0.00    -0.240 NA
HETATM    7  C6  UNL     1      23.733   0.009  53.484  1.00  0.00     0.081 A 
HETATM    8  C13 UNL     1      22.400  -0.333  53.521  1.00  0.00     0.023 A 
HETATM    9  C14 UNL     1      21.648   0.240  52.520  1.00  0.00     0.026 A 
HETATM   10  C15 UNL     1      20.302  -0.051  52.472  1.00  0.00    -0.022 A 
ENDROOT
BRANCH   7  11
HETATM   11  C7  UNL     1      24.463   0.869  52.573  1.00  0.00    -0.005 A 
HETATM   12  C8  UNL     1      25.834   0.602  52.460  1.00  0.00     0.017 A 
HETATM   13  C9  UNL     1      26.723   1.302  51.668  1.00  0.00     0.045 A 
HETATM   14  C10 UNL     1      26.213   2.349  50.929  1.00  0.00     0.138 A 
HETATM   15  F1  UNL     1      26.968   3.130  50.103  1.00  0.00    -0.204 F 
HETATM   16  C11 UNL     1      24.873   2.660  51.000  1.00  0.00     0.073 A 
HETATM   17 CL1  UNL     1      24.174   3.978  50.084  1.00  0.00    -0.081 Cl
HETATM   18  C12 UNL     1      24.031   1.928  51.807  1.00  0.00     0.041 A 
ENDBRANCH   7  11
BRANCH  10  19
HETATM   19  C16 UNL     1      19.450   0.545  51.409  1.00  0.00     0.071 C 
BRANCH  19  20
HETATM   20  C17 UNL     1      19.700   2.022  51.249  1.00  0.00     0.214 C 
BRANCH  20  21
HETATM   21  O2  UNL     1      19.210   2.744  52.337  1.00  0.00    -0.243 OA
BRANCH  21  22
HETATM   22  O3  UNL     1      18.520   3.779  51.956  1.00  0.00    -0.251 OA
HETATM   23  H14 UNL     1      18.887   4.643  52.268  1.00  0.00     0.253 HD
ENDBRANCH  21  22
ENDBRANCH  20  21
ENDBRANCH  19  20
ENDBRANCH  10  19
BRANCH   1  24
HETATM   24  O1  UNL     1      18.374  -1.166  53.332  1.00  0.00    -0.355 OA
HETATM   25  C1  UNL     1      17.941  -2.479  53.633  1.00  0.00     0.210 C 
ENDBRANCH   1  24
TORSDOF 6
ENDMDL
MODEL 7
REMARK VINA RESULT:      -7.6      3.862      5.748
REMARK  6 active torsions:
REMARK  status: ('A' for Active; 'I' for Inactive)
REMARK    1  A    between atoms: O1_2  and  C2_3 
REMARK    2  A    between atoms: C6_9  and  C7_10 
REMARK    3  A    between atoms: C15_20  and  C16_21 
REMARK    4  A    between atoms: C16_21  and  C17_22 
REMARK    5  A    between atoms: C17_22  and  O2_23 
REMARK    6  A    between atoms: O2_23  and  O3_24 
ROOT
HETATM    1  C2  UNL     1      24.808  -0.285  53.917  1.00  0.00     0.076 A 
HETATM    2  C3  UNL     1      23.582  -0.400  53.307  1.00  0.00     0.069 A 
HETATM    3  C4  UNL     1      23.161   0.502  52.354  1.00  0.00     0.073 A 
HETATM    4  N1  UNL     1      21.978   0.470  51.718  1.00  0.00    -0.241 NA
HETATM    5  C5  UNL     1      21.631   1.401  50.797  1.00  0.00     0.234 A 
HETATM    6  N2  UNL     1      22.492   2.391  50.506  1.00  0.00    -0.240 NA
HETATM    7  C6  UNL     1      23.712   2.494  51.108  1.00  0.00     0.081 A 
HETATM    8  C13 UNL     1      24.022   1.528  52.037  1.00  0.00     0.023 A 
HETATM    9  C14 UNL     1      25.260   1.689  52.618  1.00  0.00     0.026 A 
HETATM   10  C15 UNL     1      25.656   0.773  53.569  1.00  0.00    -0.022 A 
ENDROOT
BRANCH   7  11
HETATM   11  C7  UNL     1      24.472   3.638  50.643  1.00  0.00    -0.005 A 
HETATM   12  C8  UNL     1      23.963   4.890  51.014  1.00  0.00     0.017 A 
HETATM   13  C9  UNL     1      24.512   6.110  50.670  1.00  0.00     0.045 A 
HETATM   14  C10 UNL     1      25.655   6.087  49.900  1.00  0.00     0.138 A 
HETATM   15  F1  UNL     1      26.310   7.211  49.484  1.00  0.00    -0.204 F 
HETATM   16  C11 UNL     1      26.202   4.886  49.504  1.00  0.00     0.073 A 
HETATM   17 CL1  UNL     1      27.652   4.801  48.527  1.00  0.00    -0.081 Cl
HETATM   18  C12 UNL     1      25.613   3.699  49.875  1.00  0.00     0.041 A 
ENDBRANCH   7  11
BRANCH  10  19
HETATM   19  C16 UNL     1      26.985   0.906  54.222  1.00  0.00     0.071 C 
BRANCH  19  20
HETATM   20  C17 UNL     1      28.114   0.752  53.238  1.00  0.00     0.214 C 
BRANCH  20  21
HETATM   21  O2  UNL     1      28.775   1.962  53.025  1.00  0.00    -0.243 OA
BRANCH  21  22
HETATM   22  O3  UNL     1      28.747   2.719  54.082  1.00  0.00    -0.251 OA
HETATM   23  H14 UNL     1      29.597   3.193  54.259  1.00  0.00     0.253 HD
ENDBRANCH  21  22
ENDBRANCH  20  21
ENDBRANCH  19  20
ENDBRANCH  10  19
BRANCH   1  24
HETATM   24  O1  UNL     1      25.254  -1.182  54.880  1.00  0.00    -0.355 OA
HETATM   25  C1  UNL     1      24.552  -1.222  56.107  1.00  0.00     0.210 C 
ENDBRANCH   1  24
TORSDOF 6
ENDMDL
MODEL 8
REMARK VINA RESULT:      -7.5      3.053      4.298
REMARK  6 active torsions:
REMARK  status: ('A' for Active; 'I' for Inactive)
REMARK    1  A    between atoms: O1_2  and  C2_3 
REMARK    2  A    between atoms: C6_9  and  C7_10 
REMARK    3  A    between atoms: C15_20  and  C16_21 
REMARK    4  A    between atoms: C16_21  and  C17_22 
REMARK    5  A    between atoms: C17_22  and  O2_23 
REMARK    6  A    between atoms: O2_23  and  O3_24 
ROOT
HETATM    1  C2  UNL     1      22.263   2.373  50.464  1.00  0.00     0.076 A 
HETATM    2  C3  UNL     1      21.616   1.564  51.366  1.00  0.00     0.069 A 
HETATM    3  C4  UNL     1      22.309   0.814  52.291  1.00  0.00     0.073 A 
HETATM    4  N1  UNL     1      21.758  -0.009  53.199  1.00  0.00    -0.241 NA
HETATM    5  C5  UNL     1      22.508  -0.723  54.073  1.00  0.00     0.234 A 
HETATM    6  N2  UNL     1      23.847  -0.608  54.035  1.00  0.00    -0.240 NA
HETATM    7  C6  UNL     1      24.483   0.205  53.145  1.00  0.00     0.081 A 
HETATM    8  C13 UNL     1      23.682   0.910  52.276  1.00  0.00     0.023 A 
HETATM    9  C14 UNL     1      24.379   1.705  51.394  1.00  0.00     0.026 A 
HETATM   10  C15 UNL     1      23.662   2.444  50.478  1.00  0.00    -0.022 A 
ENDROOT
BRANCH   7  11
HETATM   11  C7  UNL     1      25.926   0.169  53.284  1.00  0.00    -0.005 A 
HETATM   12  C8  UNL     1      26.534   1.401  53.565  1.00  0.00     0.017 A 
HETATM   13  C9  UNL     1      27.892   1.604  53.721  1.00  0.00     0.045 A 
HETATM   14  C10 UNL     1      28.710   0.502  53.589  1.00  0.00     0.138 A 
HETATM   15  F1  UNL     1      30.068   0.549  53.717  1.00  0.00    -0.204 F 
HETATM   16  C11 UNL     1      28.169  -0.734  53.312  1.00  0.00     0.073 A 
HETATM   17 CL1  UNL     1      29.162  -2.165  53.136  1.00  0.00    -0.081 Cl
HETATM   18  C12 UNL     1      26.808  -0.881  53.166  1.00  0.00     0.041 A 
ENDBRANCH   7  11
BRANCH  10  19
HETATM   19  C16 UNL     1      24.371   3.318  49.507  1.00  0.00     0.071 C 
BRANCH  19  20
HETATM   20  C17 UNL     1      25.865   3.274  49.697  1.00  0.00     0.214 C 
BRANCH  20  21
HETATM   21  O2  UNL     1      26.418   4.554  49.700  1.00  0.00    -0.243 OA
BRANCH  21  22
HETATM   22  O3  UNL     1      27.681   4.533  49.388  1.00  0.00    -0.251 OA
HETATM   23  H14 UNL     1      28.164   3.739  49.725  1.00  0.00     0.253 HD
ENDBRANCH  21  22
ENDBRANCH  20  21
ENDBRANCH  19  20
ENDBRANCH  10  19
BRANCH   1  24
HETATM   24  O1  UNL     1      21.587   3.139  49.522  1.00  0.00    -0.355 OA
HETATM   25  C1  UNL     1      20.321   2.675  49.094  1.00  0.00     0.210 C 
ENDBRANCH   1  24
TORSDOF 6
ENDMDL
MODEL 9
REMARK VINA RESULT:      -7.5      4.077      5.693
REMARK  6 active torsions:
REMARK  status: ('A' for Active; 'I' for Inactive)
REMARK    1  A    between atoms: O1_2  and  C2_3 
REMARK    2  A    between atoms: C6_9  and  C7_10 
REMARK    3  A    between atoms: C15_20  and  C16_21 
REMARK    4  A    between atoms: C16_21  and  C17_22 
REMARK    5  A    between atoms: C17_22  and  O2_23 
REMARK    6  A    between atoms: O2_23  and  O3_24 
ROOT
HETATM    1  C2  UNL     1      24.056   0.418  53.345  1.00  0.00     0.076 A 
HETATM    2  C3  UNL     1      23.022   0.321  52.446  1.00  0.00     0.069 A 
HETATM    3  C4  UNL     1      22.928   1.163  51.358  1.00  0.00     0.073 A 
HETATM    4  N1  UNL     1      21.949   1.145  50.440  1.00  0.00    -0.241 NA
HETATM    5  C5  UNL     1      21.920   2.013  49.400  1.00  0.00     0.234 A 
HETATM    6  N2  UNL     1      22.900   2.925  49.280  1.00  0.00    -0.240 NA
HETATM    7  C6  UNL     1      23.929   3.009  50.170  1.00  0.00     0.081 A 
HETATM    8  C13 UNL     1      23.917   2.108  51.210  1.00  0.00     0.023 A 
HETATM    9  C14 UNL     1      24.975   2.247  52.081  1.00  0.00     0.026 A 
HETATM   10  C15 UNL     1      25.043   1.393  53.161  1.00  0.00    -0.022 A 
ENDROOT
BRANCH   7  11
HETATM   11  C7  UNL     1      24.868   4.066  49.845  1.00  0.00    -0.005 A 
HETATM   12  C8  UNL     1      26.085   3.642  49.294  1.00  0.00     0.017 A 
HETATM   13  C9  UNL     1      27.128   4.470  48.925  1.00  0.00     0.045 A 
HETATM   14  C10 UNL     1      26.950   5.824  49.117  1.00  0.00     0.138 A 
HETATM   15  F1  UNL     1      27.889   6.762  48.802  1.00  0.00    -0.204 F 
HETATM   16  C11 UNL     1      25.774   6.300  49.656  1.00  0.00     0.073 A 
HETATM   17 CL1  UNL     1      25.497   8.008  49.920  1.00  0.00    -0.081 Cl
HETATM   18  C12 UNL     1      24.767   5.429  50.006  1.00  0.00     0.041 A 
ENDBRANCH   7  11
BRANCH  10  19
HETATM   19  C16 UNL     1      26.167   1.505  54.128  1.00  0.00     0.071 C 
BRANCH  19  20
HETATM   20  C17 UNL     1      27.499   1.611  53.433  1.00  0.00     0.214 C 
BRANCH  20  21
HETATM   21  O2  UNL     1      28.300   2.597  54.010  1.00  0.00    -0.243 OA
BRANCH  21  22
HETATM   22  O3  UNL     1      29.232   2.997  53.196  1.00  0.00    -0.251 OA
HETATM   23  H14 UNL     1      29.294   3.980  53.110  1.00  0.00     0.253 HD
ENDBRANCH  21  22
ENDBRANCH  20  21
ENDBRANCH  19  20
ENDBRANCH  10  19
BRANCH   1  24
HETATM   24  O1  UNL     1      24.172  -0.420  54.448  1.00  0.00    -0.355 OA
HETATM   25  C1  UNL     1      22.998  -1.064  54.902  1.00  0.00     0.210 C 
ENDBRANCH   1  24
TORSDOF 6
ENDMDL
