MODEL 1
REMARK VINA RESULT:      -8.4      0.000      0.000
REMARK  5 active torsions:
REMARK  status: ('A' for Active; 'I' for Inactive)
REMARK    1  A    between atoms: C2_2  and  O1_3 
REMARK    2  A    between atoms: O1_3  and  C3_4 
REMARK    3  A    between atoms: C4_5  and  C5_6 
REMARK    4  A    between atoms: C6_8  and  C11_14 
REMARK    5  A    between atoms: N2_15  and  C12_16 
ROOT
HETATM    1  C3  UNL     1      21.861   0.523  53.338  1.00  0.00     0.085 A 
HETATM    2  C4  UNL     1      22.688  -0.581  53.584  1.00  0.00     0.025 A 
HETATM    3  C6  UNL     1      24.049  -0.486  53.389  1.00  0.00     0.135 A 
HETATM    4  C7  UNL     1      24.953   0.772  52.888  1.00  0.00     0.235 A 
HETATM    5  C8  UNL     1      26.229   0.429  52.655  1.00  0.00     0.275 A 
HETATM    6  C9  UNL     1      26.669  -0.227  53.758  1.00  0.00     0.091 A 
HETATM    7  C10 UNL     1      28.009  -0.737  53.768  1.00  0.00     0.097 C 
HETATM    8  N1  UNL     1      29.053  -1.148  53.787  1.00  0.00    -0.192 NA
HETATM    9  C11 UNL     1      25.446  -0.024  54.337  1.00  0.00     0.261 A 
HETATM   10  N2  UNL     1      25.179   0.643  53.000  1.00  0.00     0.010 N 
HETATM   11  C12 UNL     1      23.887   1.153  52.894  1.00  0.00     0.213 A 
HETATM   12  C13 UNL     1      22.646   1.557  52.913  1.00  0.00     0.019 A 
HETATM   13  C14 UNL     1      23.066   2.931  52.367  1.00  0.00     0.178 C 
HETATM   14 CL1  UNL     1      24.259   3.690  53.393  1.00  0.00    -0.113 Cl
HETATM   15  C15 UNL     1      23.785   2.532  51.052  1.00  0.00     0.114 C 
HETATM   16  F1  UNL     1      22.811   2.360  50.119  1.00  0.00    -0.209 F 
HETATM   17  C16 UNL     1      25.085   2.321  50.795  1.00  0.00     0.032 C 
HETATM   18  C17 UNL     1      26.442   2.293  51.280  1.00  0.00     0.147 C 
HETATM   19  N3  UNL     1      26.972   0.910  51.460  1.00  0.00    -0.381 N 
HETATM   20  H13 UNL     1      27.606   0.080  51.219  1.00  0.00     0.156 HD
ENDROOT
BRANCH   2  21
HETATM   21  C5  UNL     1      21.868  -1.668  54.029  1.00  0.00     0.269 C 
HETATM   22  O2  UNL     1      21.875  -2.024  55.212  1.00  0.00    -0.302 OA
ENDBRANCH   2  21
BRANCH   1  23
HETATM   23  O1  UNL     1      20.635   1.052  53.321  1.00  0.00    -0.350 OA
BRANCH  23  24
HETATM   24  C2  UNL     1      19.683   1.348  52.394  1.00  0.00     0.171 C 
HETATM   25  C1  UNL     1      19.547   0.419  51.227  1.00  0.00     0.034 C 
ENDBRANCH  23  24
ENDBRANCH   1  23
TORSDOF 5
ENDMDL
MODEL 2
REMARK VINA RESULT:      -7.9      2.840      5.441
REMARK  5 active torsions:
REMARK  status: ('A' for Active; 'I' for Inactive)
REMARK    1  A    between atoms: C2_2  and  O1_3 
REMARK    2  A    between atoms: O1_3  and  C3_4 
REMARK    3  A    between atoms: C4_5  and  C5_6 
REMARK    4  A    between atoms: C6_8  and  C11_14 
REMARK    5  A    between atoms: N2_15  and  C12_16 
ROOT
HETATM    1  C3  UNL     1      23.720  -0.148  53.516  1.00  0.00     0.085 A 
HETATM    2  C4  UNL     1      22.376  -0.453  53.769  1.00  0.00     0.025 A 
HETATM    3  C6  UNL     1      21.374   0.321  53.225  1.00  0.00     0.135 A 
HETATM    4  C7  UNL     1      21.464   1.630  52.261  1.00  0.00     0.235 A 
HETATM    5  C8  UNL     1      20.271   2.216  52.076  1.00  0.00     0.275 A 
HETATM    6  C9  UNL     1      19.408   1.243  51.692  1.00  0.00     0.091 A 
HETATM    7  C10 UNL     1      18.038   1.593  51.453  1.00  0.00     0.097 C 
HETATM    8  N1  UNL     1      16.962   1.850  51.269  1.00  0.00    -0.192 NA
HETATM    9  C11 UNL     1      20.436   0.342  51.748  1.00  0.00     0.261 A 
HETATM   10  N2  UNL     1      21.195   1.582  52.185  1.00  0.00     0.010 N 
HETATM   11  C12 UNL     1      22.537   1.330  52.461  1.00  0.00     0.213 A 
HETATM   12  C13 UNL     1      23.762   0.956  52.713  1.00  0.00     0.019 A 
HETATM   13  C14 UNL     1      24.310   2.143  51.905  1.00  0.00     0.178 C 
HETATM   14 CL1  UNL     1      23.704   2.139  50.267  1.00  0.00    -0.113 Cl
HETATM   15  C15 UNL     1      23.647   3.341  52.633  1.00  0.00     0.114 C 
HETATM   16  F1  UNL     1      24.420   3.608  53.719  1.00  0.00    -0.209 F 
HETATM   17  C16 UNL     1      22.517   4.012  52.361  1.00  0.00     0.032 C 
HETATM   18  C17 UNL     1      21.369   4.186  51.507  1.00  0.00     0.147 C 
HETATM   19  N3  UNL     1      20.102   3.693  52.120  1.00  0.00    -0.381 N 
HETATM   20  H13 UNL     1      19.129   3.812  52.554  1.00  0.00     0.156 HD
ENDROOT
BRANCH   2  21
HETATM   21  C5  UNL     1      22.328  -1.610  54.613  1.00  0.00     0.269 C 
HETATM   22  O2  UNL     1      22.794  -1.580  55.756  1.00  0.00    -0.302 OA
ENDBRANCH   2  21
BRANCH   1  23
HETATM   23  O1  UNL     1      25.012  -0.436  53.696  1.00  0.00    -0.350 OA
BRANCH  23  24
HETATM   24  C2  UNL     1      25.998  -1.086  53.020  1.00  0.00     0.171 C 
HETATM   25  C1  UNL     1      27.189  -0.281  52.598  1.00  0.00     0.034 C 
ENDBRANCH  23  24
ENDBRANCH   1  23
TORSDOF 5
ENDMDL
MODEL 3
REMARK VINA RESULT:      -7.7      2.246      3.718
REMARK  5 active torsions:
REMARK  status: ('A' for Active; 'I' for Inactive)
REMARK    1  A    between atoms: C2_2  and  O1_3 
REMARK    2  A    between atoms: O1_3  and  C3_4 
REMARK    3  A    between atoms: C4_5  and  C5_6 
REMARK    4  A    between atoms: C6_8  and  C11_14 
REMARK    5  A    between atoms: N2_15  and  C12_16 
ROOT
HETATM    1  C3  UNL     1      23.462   0.128  53.465  1.00  0.00     0.085 A 
HETATM    2  C4  UNL     1      24.759   0.229  52.945  1.00  0.00     0.025 A 
HETATM    3  C6  UNL     1      25.033   1.127  51.936  1.00  0.00     0.135 A 
HETATM    4  C7  UNL     1      24.056   2.183  51.174  1.00  0.00     0.235 A 
HETATM    5  C8  UNL     1      24.650   2.769  50.124  1.00  0.00     0.275 A 
HETATM    6  C9  UNL     1      25.837   3.258  50.564  1.00  0.00     0.091 A 
HETATM    7  C10 UNL     1      26.700   3.917  49.628  1.00  0.00     0.097 C 
HETATM    8  N1  UNL     1      27.389   4.428  48.905  1.00  0.00    -0.192 NA
HETATM    9  C11 UNL     1      25.533   2.800  51.817  1.00  0.00     0.261 A 
HETATM   10  N2  UNL     1      24.287   2.324  51.093  1.00  0.00     0.010 N 
HETATM   11  C12 UNL     1      23.396   1.651  51.925  1.00  0.00     0.213 A 
HETATM   12  C13 UNL     1      22.666   1.017  52.803  1.00  0.00     0.019 A 
HETATM   13  C14 UNL     1      21.414   1.779  52.337  1.00  0.00     0.178 C 
HETATM   14 CL1  UNL     1      21.635   3.507  52.453  1.00  0.00    -0.113 Cl
HETATM   15  C15 UNL     1      21.384   1.425  50.827  1.00  0.00     0.114 C 
HETATM   16  F1  UNL     1      20.788   0.206  50.730  1.00  0.00    -0.209 F 
HETATM   17  C16 UNL     1      21.865   2.087  49.764  1.00  0.00     0.032 C 
HETATM   18  C17 UNL     1      22.549   3.246  49.248  1.00  0.00     0.147 C 
HETATM   19  N3  UNL     1      23.951   2.960  48.825  1.00  0.00    -0.381 N 
HETATM   20  H13 UNL     1      24.737   2.839  48.107  1.00  0.00     0.156 HD
ENDROOT
BRANCH   2  21
HETATM   21  C5  UNL     1      25.597  -0.704  53.638  1.00  0.00     0.269 C 
HETATM   22  O2  UNL     1      26.050  -0.439  54.756  1.00  0.00    -0.302 OA
ENDBRANCH   2  21
BRANCH   1  23
HETATM   23  O1  UNL     1      22.617  -0.446  54.326  1.00  0.00    -0.350 OA
BRANCH  23  24
HETATM   24  C2  UNL     1      21.918  -1.611  54.420  1.00  0.00     0.171 C 
HETATM   25  C1  UNL     1      20.452  -1.560  54.115  1.00  0.00     0.034 C 
ENDBRANCH  23  24
ENDBRANCH   1  23
TORSDOF 5
ENDMDL
MODEL 4
REMARK VINA RESULT:      -7.7      2.890      5.266
REMARK  5 active torsions:
REMARK  status: ('A' for Active; 'I' for Inactive)
REMARK    1  A    between atoms: C2_2  and  O1_3 
REMARK    2  A    between atoms: O1_3  and  C3_4 
REMARK    3  A    between atoms: C4_5  and  C5_6 
REMARK    4  A    between atoms: C6_8  and  C11_14 
REMARK    5  A    between atoms: N2_15  and  C12_16 
ROOT
HETATM    1  C3  UNL     1      25.460   1.028  52.526  1.00  0.00     0.085 A 
HETATM    2  C4  UNL     1      24.688   0.158  53.308  1.00  0.00     0.025 A 
HETATM    3  C6  UNL     1      23.312   0.230  53.274  1.00  0.00     0.135 A 
HETATM    4  C7  UNL     1      22.332   1.213  52.423  1.00  0.00     0.235 A 
HETATM    5  C8  UNL     1      21.046   1.097  52.786  1.00  0.00     0.275 A 
HETATM    6  C9  UNL     1      20.745  -0.225  52.757  1.00  0.00     0.091 A 
HETATM    7  C10 UNL     1      19.425  -0.640  53.134  1.00  0.00     0.097 C 
HETATM    8  N1  UNL     1      18.399  -0.980  53.434  1.00  0.00    -0.192 NA
HETATM    9  C11 UNL     1      22.020  -0.481  52.332  1.00  0.00     0.261 A 
HETATM   10  N2  UNL     1      22.123   1.026  52.466  1.00  0.00     0.010 N 
HETATM   11  C12 UNL     1      23.385   1.518  52.137  1.00  0.00     0.213 A 
HETATM   12  C13 UNL     1      24.612   1.843  51.832  1.00  0.00     0.019 A 
HETATM   13  C14 UNL     1      24.104   2.975  50.924  1.00  0.00     0.178 C 
HETATM   14 CL1  UNL     1      23.017   2.374  49.697  1.00  0.00    -0.113 Cl
HETATM   15  C15 UNL     1      23.253   3.807  51.919  1.00  0.00     0.114 C 
HETATM   16  F1  UNL     1      24.121   4.612  52.588  1.00  0.00    -0.209 F 
HETATM   17  C16 UNL     1      21.937   3.778  52.180  1.00  0.00     0.032 C 
HETATM   18  C17 UNL     1      20.643   3.209  51.898  1.00  0.00     0.147 C 
HETATM   19  N3  UNL     1      20.166   2.282  52.965  1.00  0.00    -0.381 N 
HETATM   20  H13 UNL     1      19.526   1.988  53.774  1.00  0.00     0.156 HD
ENDROOT
BRANCH   2  21
HETATM   21  C5  UNL     1      25.575  -0.697  54.039  1.00  0.00     0.269 C 
HETATM   22  O2  UNL     1      25.447  -0.850  55.258  1.00  0.00    -0.302 OA
ENDBRANCH   2  21
BRANCH   1  23
HETATM   23  O1  UNL     1      26.666   1.446  52.132  1.00  0.00    -0.350 OA
BRANCH  23  24
HETATM   24  C2  UNL     1      27.706   2.147  52.660  1.00  0.00     0.171 C 
HETATM   25  C1  UNL     1      28.623   1.418  53.594  1.00  0.00     0.034 C 
ENDBRANCH  23  24
ENDBRANCH   1  23
TORSDOF 5
ENDMDL
MODEL 5
REMARK VINA RESULT:      -7.7      3.147      5.631
REMARK  5 active torsions:
REMARK  status: ('A' for Active; 'I' for Inactive)
REMARK    1  A    between atoms: C2_2  and  O1_3 
REMARK    2  A    between atoms: O1_3  and  C3_4 
REMARK    3  A    between atoms: C4_5  and  C5_6 
REMARK    4  A    between atoms: C6_8  and  C11_14 
REMARK    5  A    between atoms: N2_15  and  C12_16 
ROOT
HETATM    1  C3  UNL     1      24.768   3.026  49.956  1.00  0.00     0.085 A 
HETATM    2  C4  UNL     1      23.454   2.601  49.717  1.00  0.00     0.025 A 
HETATM    3  C6  UNL     1      22.811   1.791  50.628  1.00  0.00     0.135 A 
HETATM    4  C7  UNL     1      23.329   1.188  52.048  1.00  0.00     0.235 A 
HETATM    5  C8  UNL     1      22.474   0.297  52.572  1.00  0.00     0.275 A 
HETATM    6  C9  UNL     1      21.249   0.880  52.577  1.00  0.00     0.091 A 
HETATM    7  C10 UNL     1      20.130   0.127  53.064  1.00  0.00     0.097 C 
HETATM    8  N1  UNL     1      19.244  -0.452  53.434  1.00  0.00    -0.192 NA
HETATM    9  C11 UNL     1      21.812   2.009  52.048  1.00  0.00     0.261 A 
HETATM   10  N2  UNL     1      23.058   1.146  52.119  1.00  0.00     0.010 N 
HETATM   11  C12 UNL     1      24.197   1.793  51.644  1.00  0.00     0.213 A 
HETATM   12  C13 UNL     1      25.176   2.499  51.148  1.00  0.00     0.019 A 
HETATM   13  C14 UNL     1      26.076   2.118  52.335  1.00  0.00     0.178 C 
HETATM   14 CL1  UNL     1      25.349   2.563  53.859  1.00  0.00    -0.113 Cl
HETATM   15  C15 UNL     1      26.051   0.570  52.254  1.00  0.00     0.114 C 
HETATM   16  F1  UNL     1      26.978   0.218  51.323  1.00  0.00    -0.209 F 
HETATM   17  C16 UNL     1      25.278  -0.326  52.887  1.00  0.00     0.032 C 
HETATM   18  C17 UNL     1      24.220  -0.583  53.831  1.00  0.00     0.147 C 
HETATM   19  N3  UNL     1      22.937  -0.979  53.181  1.00  0.00    -0.381 N 
HETATM   20  H13 UNL     1      22.153  -1.665  52.929  1.00  0.00     0.156 HD
ENDROOT
BRANCH   2  21
HETATM   21  C5  UNL     1      23.023   3.152  48.467  1.00  0.00     0.269 C 
HETATM   22  O2  UNL     1      22.114   3.987  48.422  1.00  0.00    -0.302 OA
ENDBRANCH   2  21
BRANCH   1  23
HETATM   23  O1  UNL     1      25.836   3.722  49.556  1.00  0.00    -0.350 OA
BRANCH  23  24
HETATM   24  C2  UNL     1      26.137   5.016  49.263  1.00  0.00     0.171 C 
HETATM   25  C1  UNL     1      27.455   5.283  48.602  1.00  0.00     0.034 C 
ENDBRANCH  23  24
ENDBRANCH   1  23
TORSDOF 5
ENDMDL
MODEL 6
REMARK VINA RESULT:      -7.6      2.453      3.389
REMARK  5 active torsions:
REMARK  status: ('A' for Active; 'I' for Inactive)
REMARK    1  A    between atoms: C2_2  and  O1_3 
REMARK    2  A    between atoms: O1_3  and  C3_4 
REMARK    3  A    between atoms: C4_5  and  C5_6 
REMARK    4  A    between atoms: C6_8  and  C11_14 
REMARK    5  A    between atoms: N2_15  and  C12_16 
ROOT
HETATM    1  C3  UNL     1      20.490  -0.288  53.263  1.00  0.00     0.085 A 
HETATM    2  C4  UNL     1      21.866  -0.559  53.260  1.00  0.00     0.025 A 
HETATM    3  C6  UNL     1      22.730   0.250  52.554  1.00  0.00     0.135 A 
HETATM    4  C7  UNL     1      22.432   1.573  51.653  1.00  0.00     0.235 A 
HETATM    5  C8  UNL     1      23.515   1.991  50.979  1.00  0.00     0.275 A 
HETATM    6  C9  UNL     1      24.525   2.091  51.878  1.00  0.00     0.091 A 
HETATM    7  C10 UNL     1      25.821   2.495  51.416  1.00  0.00     0.097 C 
HETATM    8  N1  UNL     1      26.842   2.803  51.068  1.00  0.00    -0.192 NA
HETATM    9  C11 UNL     1      23.656   1.703  52.861  1.00  0.00     0.261 A 
HETATM   10  N2  UNL     1      22.706   1.642  51.680  1.00  0.00     0.010 N 
HETATM   11  C12 UNL     1      21.421   1.236  52.035  1.00  0.00     0.213 A 
HETATM   12  C13 UNL     1      20.272   0.819  52.494  1.00  0.00     0.019 A 
HETATM   13  C14 UNL     1      19.541   1.932  51.726  1.00  0.00     0.178 C 
HETATM   14 CL1  UNL     1      20.145   3.513  52.159  1.00  0.00    -0.113 Cl
HETATM   15  C15 UNL     1      20.000   1.652  50.271  1.00  0.00     0.114 C 
HETATM   16  F1  UNL     1      19.190   0.669  49.794  1.00  0.00    -0.209 F 
HETATM   17  C16 UNL     1      21.007   2.177  49.556  1.00  0.00     0.032 C 
HETATM   18  C17 UNL     1      22.114   3.098  49.488  1.00  0.00     0.147 C 
HETATM   19  N3  UNL     1      23.442   2.423  49.558  1.00  0.00    -0.381 N 
HETATM   20  H13 UNL     1      24.382   2.098  49.158  1.00  0.00     0.156 HD
ENDROOT
BRANCH   2  21
HETATM   21  C5  UNL     1      22.098  -1.721  54.065  1.00  0.00     0.269 C 
HETATM   22  O2  UNL     1      22.060  -1.654  55.298  1.00  0.00    -0.302 OA
ENDBRANCH   2  21
BRANCH   1  23
HETATM   23  O1  UNL     1      19.262  -0.614  53.674  1.00  0.00    -0.350 OA
BRANCH  23  24
HETATM   24  C2  UNL     1      18.155  -1.210  53.153  1.00  0.00     0.171 C 
HETATM   25  C1  UNL     1      17.812  -2.580  53.654  1.00  0.00     0.034 C 
ENDBRANCH  23  24
ENDBRANCH   1  23
TORSDOF 5
ENDMDL
MODEL 7
REMARK VINA RESULT:      -7.4      3.175      4.980
REMARK  5 active torsions:
REMARK  status: ('A' for Active; 'I' for Inactive)
REMARK    1  A    between atoms: C2_2  and  O1_3 
REMARK    2  A    between atoms: O1_3  and  C3_4 
REMARK    3  A    between atoms: C4_5  and  C5_6 
REMARK    4  A    between atoms: C6_8  and  C11_14 
REMARK    5  A    between atoms: N2_15  and  C12_16 
ROOT
HETATM    1  C3  UNL     1      23.622   0.774  53.105  1.00  0.00     0.085 A 
HETATM    2  C4  UNL     1      24.579   1.789  52.963  1.00  0.00     0.025 A 
HETATM    3  C6  UNL     1      24.262   2.952  52.296  1.00  0.00     0.135 A 
HETATM    4  C7  UNL     1      22.871   3.411  51.586  1.00  0.00     0.235 A 
HETATM    5  C8  UNL     1      23.000   4.549  50.887  1.00  0.00     0.275 A 
HETATM    6  C9  UNL     1      23.583   5.455  51.711  1.00  0.00     0.091 A 
HETATM    7  C10 UNL     1      23.868   6.765  51.202  1.00  0.00     0.097 C 
HETATM    8  N1  UNL     1      24.104   7.791  50.816  1.00  0.00    -0.192 NA
HETATM    9  C11 UNL     1      23.586   4.514  52.704  1.00  0.00     0.261 A 
HETATM   10  N2  UNL     1      22.962   3.679  51.601  1.00  0.00     0.010 N 
HETATM   11  C12 UNL     1      22.669   2.377  52.002  1.00  0.00     0.213 A 
HETATM   12  C13 UNL     1      22.472   1.184  52.495  1.00  0.00     0.019 A 
HETATM   13  C14 UNL     1      21.044   1.166  51.925  1.00  0.00     0.178 C 
HETATM   14 CL1  UNL     1      20.108   2.524  52.498  1.00  0.00    -0.113 Cl
HETATM   15  C15 UNL     1      21.313   1.402  50.416  1.00  0.00     0.114 C 
HETATM   16  F1  UNL     1      21.635   0.191  49.888  1.00  0.00    -0.209 F 
HETATM   17  C16 UNL     1      21.308   2.533  49.694  1.00  0.00     0.032 C 
HETATM   18  C17 UNL     1      21.118   3.961  49.653  1.00  0.00     0.147 C 
HETATM   19  N3  UNL     1      22.397   4.720  49.538  1.00  0.00    -0.381 N 
HETATM   20  H13 UNL     1      23.111   5.338  49.031  1.00  0.00     0.156 HD
ENDROOT
BRANCH   2  21
HETATM   21  C5  UNL     1      25.788   1.361  53.602  1.00  0.00     0.269 C 
HETATM   22  O2  UNL     1      26.427   2.130  54.327  1.00  0.00    -0.302 OA
ENDBRANCH   2  21
BRANCH   1  23
HETATM   23  O1  UNL     1      23.300  -0.437  53.568  1.00  0.00    -0.350 OA
BRANCH  23  24
HETATM   24  C2  UNL     1      22.694  -0.961  54.668  1.00  0.00     0.171 C 
HETATM   25  C1  UNL     1      21.381  -1.655  54.465  1.00  0.00     0.034 C 
ENDBRANCH  23  24
ENDBRANCH   1  23
TORSDOF 5
ENDMDL
MODEL 8
REMARK VINA RESULT:      -7.2      2.603      4.234
REMARK  5 active torsions:
REMARK  status: ('A' for Active; 'I' for Inactive)
REMARK    1  A    between atoms: C2_2  and  O1_3 
REMARK    2  A    between atoms: O1_3  and  C3_4 
REMARK    3  A    between atoms: C4_5  and  C5_6 
REMARK    4  A    between atoms: C6_8  and  C11_14 
REMARK    5  A    between atoms: N2_15  and  C12_16 
ROOT
HETATM    1  C3  UNL     1      22.377   2.795  49.719  1.00  0.00     0.085 A 
HETATM    2  C4  UNL     1      21.766   1.581  50.060  1.00  0.00     0.025 A 
HETATM    3  C6  UNL     1      22.172   0.890  51.181  1.00  0.00     0.135 A 
HETATM    4  C7  UNL     1      23.320   1.251  52.279  1.00  0.00     0.235 A 
HETATM    5  C8  UNL     1      23.543   0.245  53.139  1.00  0.00     0.275 A 
HETATM    6  C9  UNL     1      22.336  -0.129  53.631  1.00  0.00     0.091 A 
HETATM    7  C10 UNL     1      22.280  -1.218  54.562  1.00  0.00     0.097 C 
HETATM    8  N1  UNL     1      22.220  -2.073  55.286  1.00  0.00    -0.192 NA
HETATM    9  C11 UNL     1      21.752   0.854  52.880  1.00  0.00     0.261 A 
HETATM   10  N2  UNL     1      23.193   1.070  52.457  1.00  0.00     0.010 N 
HETATM   11  C12 UNL     1      23.341   2.102  51.532  1.00  0.00     0.213 A 
HETATM   12  C13 UNL     1      23.337   3.066  50.651  1.00  0.00     0.019 A 
HETATM   13  C14 UNL     1      24.510   3.751  51.371  1.00  0.00     0.178 C 
HETATM   14 CL1  UNL     1      24.131   4.080  53.044  1.00  0.00    -0.113 Cl
HETATM   15  C15 UNL     1      25.577   2.626  51.359  1.00  0.00     0.114 C 
HETATM   16  F1  UNL     1      26.178   2.679  50.140  1.00  0.00    -0.209 F 
HETATM   17  C16 UNL     1      25.887   1.705  52.284  1.00  0.00     0.032 C 
HETATM   18  C17 UNL     1      25.639   1.147  53.590  1.00  0.00     0.147 C 
HETATM   19  N3  UNL     1      24.917  -0.157  53.543  1.00  0.00    -0.381 N 
HETATM   20  H13 UNL     1      24.832  -1.219  53.661  1.00  0.00     0.156 HD
ENDROOT
BRANCH   2  21
HETATM   21  C5  UNL     1      20.758   1.294  49.083  1.00  0.00     0.269 C 
HETATM   22  O2  UNL     1      19.694   1.920  49.068  1.00  0.00    -0.302 OA
ENDBRANCH   2  21
BRANCH   1  23
HETATM   23  O1  UNL     1      22.463   3.838  48.889  1.00  0.00    -0.350 OA
BRANCH  23  24
HETATM   24  C2  UNL     1      22.532   4.048  47.546  1.00  0.00     0.171 C 
HETATM   25  C1  UNL     1      21.245   4.308  46.824  1.00  0.00     0.034 C 
ENDBRANCH  23  24
ENDBRANCH   1  23
TORSDOF 5
ENDMDL
MODEL 9
REMARK VINA RESULT:      -7.0      3.678      6.279
REMARK  5 active torsions:
REMARK  status: ('A' for Active; 'I' for Inactive)
REMARK    1  A    between atoms: C2_2  and  O1_3 
REMARK    2  A    between atoms: O1_3  and  C3_4 
REMARK    3  A    between atoms: C4_5  and  C5_6 
REMARK    4  A    between atoms: C6_8  and  C11_14 
REMARK    5  A    between atoms: N2_15  and  C12_16 
ROOT
HETATM    1  C3  UNL     1      24.976   2.638  51.950  1.00  0.00     0.085 A 
HETATM    2  C4  UNL     1      25.266   2.919  50.607  1.00  0.00     0.025 A 
HETATM    3  C6  UNL     1      24.266   2.878  49.659  1.00  0.00     0.135 A 
HETATM    4  C7  UNL     1      22.682   2.540  49.816  1.00  0.00     0.235 A 
HETATM    5  C8  UNL     1      22.059   2.432  48.632  1.00  0.00     0.275 A 
HETATM    6  C9  UNL     1      22.369   3.543  47.919  1.00  0.00     0.091 A 
HETATM    7  C10 UNL     1      21.853   3.673  46.588  1.00  0.00     0.097 C 
HETATM    8  N1  UNL     1      21.463   3.785  45.542  1.00  0.00    -0.192 NA
HETATM    9  C11 UNL     1      23.099   3.994  48.985  1.00  0.00     0.261 A 
HETATM   10  N2  UNL     1      22.639   2.670  49.568  1.00  0.00     0.010 N 
HETATM   11  C12 UNL     1      23.113   2.449  50.859  1.00  0.00     0.213 A 
HETATM   12  C13 UNL     1      23.644   2.352  52.047  1.00  0.00     0.019 A 
HETATM   13  C14 UNL     1      22.291   1.923  52.637  1.00  0.00     0.178 C 
HETATM   14 CL1  UNL     1      21.048   3.107  52.318  1.00  0.00    -0.113 Cl
HETATM   15  C15 UNL     1      21.963   0.676  51.775  1.00  0.00     0.114 C 
HETATM   16  F1  UNL     1      22.637  -0.365  52.333  1.00  0.00    -0.209 F 
HETATM   17  C16 UNL     1      21.224   0.552  50.662  1.00  0.00     0.032 C 
HETATM   18  C17 UNL     1      20.393   1.180  49.666  1.00  0.00     0.147 C 
HETATM   19  N3  UNL     1      21.079   1.348  48.352  1.00  0.00    -0.381 N 
HETATM   20  H13 UNL     1      21.242   1.139  47.314  1.00  0.00     0.156 HD
ENDROOT
BRANCH   2  21
HETATM   21  C5  UNL     1      26.662   3.219  50.501  1.00  0.00     0.269 C 
HETATM   22  O2  UNL     1      27.115   3.783  49.500  1.00  0.00    -0.302 OA
ENDBRANCH   2  21
BRANCH   1  23
HETATM   23  O1  UNL     1      25.402   2.514  53.210  1.00  0.00    -0.350 OA
BRANCH  23  24
HETATM   24  C2  UNL     1      26.083   1.599  53.952  1.00  0.00     0.171 C 
HETATM   25  C1  UNL     1      26.822   0.526  53.213  1.00  0.00     0.034 C 
ENDBRANCH  23  24
ENDBRANCH   1  23
TORSDOF 5
ENDMDL
