MODEL 1
REMARK VINA RESULT:      -7.8      0.000      0.000
REMARK  7 active torsions:
REMARK  status: ('A' for Active; 'I' for Inactive)
REMARK    1  A    between atoms: C8_11  and  N3_12 
REMARK    2  A    between atoms: N4_22  and  C18_23 
REMARK    3  A    between atoms: C18_23  and  C19_24 
REMARK    4  A    between atoms: C19_24  and  N5_25 
REMARK    5  A    between atoms: N5_25  and  C20_26 
REMARK    6  A    between atoms: C20_26  and  C21_27 
REMARK    7  A    between atoms: C21_27  and  O2_28 
ROOT
HETATM    1  C1  UNL     1      20.315   3.181  51.479  1.00  0.00     0.034 C 
HETATM    2  C2  UNL     1      21.232   2.235  50.861  1.00  0.00     0.099 C 
HETATM    3  C3  UNL     1      20.811   0.789  50.836  1.00  0.00     0.192 C 
HETATM    4  O1  UNL     1      21.119   0.090  51.935  1.00  0.00    -0.385 OA
HETATM    5  C4  UNL     1      20.510   0.519  53.090  1.00  0.00     0.197 C 
HETATM    6  C5  UNL     1      21.115  -0.398  54.130  1.00  0.00     0.032 C 
HETATM    7  C6  UNL     1      22.440  -0.423  54.341  1.00  0.00     0.070 A 
HETATM    8  N1  UNL     1      22.649  -1.335  55.298  1.00  0.00    -0.241 NA
HETATM    9  C7  UNL     1      23.796  -1.747  55.802  1.00  0.00     0.236 A 
HETATM   10  N2  UNL     1      24.904  -1.185  55.293  1.00  0.00    -0.223 NA
HETATM   11  C8  UNL     1      24.728  -0.244  54.310  1.00  0.00     0.144 A 
HETATM   12  C15 UNL     1      23.504   0.203  53.777  1.00  0.00     0.036 A 
HETATM   13  C16 UNL     1      23.861   1.256  53.011  1.00  0.00     0.010 C 
HETATM   14  C17 UNL     1      23.124   2.341  52.381  1.00  0.00     0.145 C 
HETATM   15  N4  UNL     1      22.622   2.278  51.100  1.00  0.00    -0.402 N 
ENDROOT
BRANCH  15  16
HETATM   16  C18 UNL     1      23.504   2.262  50.001  1.00  0.00     0.147 C 
BRANCH  16  17
HETATM   17  C19 UNL     1      23.643   3.612  49.318  1.00  0.00     0.289 C 
BRANCH  17  18
HETATM   18  N5  UNL     1      24.502   4.432  50.142  1.00  0.00     0.087 N 
HETATM   19  H26 UNL     1      24.770   3.864  50.989  1.00  0.00     0.316 HD
BRANCH  18  20
HETATM   20  C20 UNL     1      25.713   4.848  49.493  1.00  0.00     0.299 C 
BRANCH  20  21
HETATM   21  C21 UNL     1      26.723   3.721  49.419  1.00  0.00     0.245 C 
BRANCH  21  22
HETATM   22  O2  UNL     1      26.969   3.157  50.650  1.00  0.00    -0.197 OA
HETATM   23  F1  UNL     1      26.788   1.838  50.642  1.00  0.00    -0.048 F 
ENDBRANCH  21  22
ENDBRANCH  20  21
ENDBRANCH  18  20
ENDBRANCH  17  18
ENDBRANCH  16  17
ENDBRANCH  15  16
BRANCH  11  24
HETATM   24  N3  UNL     1      26.092   0.080  53.936  1.00  0.00    -0.333 N 
HETATM   25  C9  UNL     1      26.326   1.467  54.238  1.00  0.00     0.093 A 
HETATM   26  C10 UNL     1      27.498   2.029  53.935  1.00  0.00     0.017 A 
HETATM   27  C11 UNL     1      28.565   1.266  53.305  1.00  0.00    -0.001 A 
HETATM   28  C12 UNL     1      28.297  -0.008  53.062  1.00  0.00    -0.002 A 
HETATM   29  C13 UNL     1      27.074  -0.802  53.335  1.00  0.00     0.109 A 
HETATM   30  C14 UNL     1      26.631  -1.537  52.119  1.00  0.00     0.037 C 
ENDBRANCH  11  24
TORSDOF 7
ENDMDL
MODEL 2
REMARK VINA RESULT:      -7.5      2.077      6.982
REMARK  7 active torsions:
REMARK  status: ('A' for Active; 'I' for Inactive)
REMARK    1  A    between atoms: C8_11  and  N3_12 
REMARK    2  A    between atoms: N4_22  and  C18_23 
REMARK    3  A    between atoms: C18_23  and  C19_24 
REMARK    4  A    between atoms: C19_24  and  N5_25 
REMARK    5  A    between atoms: N5_25  and  C20_26 
REMARK    6  A    between atoms: C20_26  and  C21_27 
REMARK    7  A    between atoms: C21_27  and  O2_28 
ROOT
HETATM    1  C1  UNL     1      25.682  -0.165  55.363  1.00  0.00     0.034 C 
HETATM    2  C2  UNL     1      25.054  -0.693  54.160  1.00  0.00     0.099 C 
HETATM    3  C3  UNL     1      25.958  -1.017  53.000  1.00  0.00     0.192 C 
HETATM    4  O1  UNL     1      26.227   0.011  52.188  1.00  0.00    -0.385 OA
HETATM    5  C4  UNL     1      26.913   1.051  52.769  1.00  0.00     0.197 C 
HETATM    6  C5  UNL     1      26.983   2.057  51.642  1.00  0.00     0.032 C 
HETATM    7  C6  UNL     1      25.866   2.552  51.087  1.00  0.00     0.070 A 
HETATM    8  N1  UNL     1      26.267   3.391  50.124  1.00  0.00    -0.241 NA
HETATM    9  C7  UNL     1      25.528   4.073  49.272  1.00  0.00     0.236 A 
HETATM   10  N2  UNL     1      24.199   3.908  49.374  1.00  0.00    -0.223 NA
HETATM   11  C8  UNL     1      23.751   3.057  50.351  1.00  0.00     0.144 A 
HETATM   12  C15 UNL     1      24.539   2.333  51.267  1.00  0.00     0.036 A 
HETATM   13  C16 UNL     1      23.631   1.825  52.128  1.00  0.00     0.010 C 
HETATM   14  C17 UNL     1      23.723   1.208  53.443  1.00  0.00     0.145 C 
HETATM   15  N4  UNL     1      23.860  -0.147  53.641  1.00  0.00    -0.402 N 
ENDROOT
BRANCH  15  16
HETATM   16  C18 UNL     1      22.794  -1.014  53.328  1.00  0.00     0.147 C 
BRANCH  16  17
HETATM   17  C19 UNL     1      22.089  -1.571  54.554  1.00  0.00     0.289 C 
BRANCH  17  18
HETATM   18  N5  UNL     1      20.673  -1.330  54.391  1.00  0.00     0.087 N 
HETATM   19  H26 UNL     1      20.251  -1.236  55.352  1.00  0.00     0.316 HD
BRANCH  18  20
HETATM   20  C20 UNL     1      20.364  -0.134  53.658  1.00  0.00     0.299 C 
BRANCH  20  21
HETATM   21  C21 UNL     1      19.206  -0.348  52.704  1.00  0.00     0.245 C 
BRANCH  21  22
HETATM   22  O2  UNL     1      19.414   0.254  51.484  1.00  0.00    -0.197 OA
HETATM   23  F1  UNL     1      20.630   0.006  51.004  1.00  0.00    -0.048 F 
ENDBRANCH  21  22
ENDBRANCH  20  21
ENDBRANCH  18  20
ENDBRANCH  17  18
ENDBRANCH  16  17
ENDBRANCH  15  16
BRANCH  11  24
HETATM   24  N3  UNL     1      22.318   3.045  50.127  1.00  0.00    -0.333 N 
HETATM   25  C9  UNL     1      22.056   2.296  48.926  1.00  0.00     0.093 A 
HETATM   26  C10 UNL     1      20.807   2.182  48.470  1.00  0.00     0.017 A 
HETATM   27  C11 UNL     1      19.685   2.795  49.165  1.00  0.00    -0.001 A 
HETATM   28  C12 UNL     1      19.985   3.460  50.270  1.00  0.00    -0.002 A 
HETATM   29  C13 UNL     1      21.295   3.683  50.932  1.00  0.00     0.109 A 
HETATM   30  C14 UNL     1      21.506   5.126  51.229  1.00  0.00     0.037 C 
ENDBRANCH  11  24
TORSDOF 7
ENDMDL
MODEL 3
REMARK VINA RESULT:      -7.5      2.142      5.139
REMARK  7 active torsions:
REMARK  status: ('A' for Active; 'I' for Inactive)
REMARK    1  A    between atoms: C8_11  and  N3_12 
REMARK    2  A    between atoms: N4_22  and  C18_23 
REMARK    3  A    between atoms: C18_23  and  C19_24 
REMARK    4  A    between atoms: C19_24  and  N5_25 
REMARK    5  A    between atoms: N5_25  and  C20_26 
REMARK    6  A    between atoms: C20_26  and  C21_27 
REMARK    7  A    between atoms: C21_27  and  O2_28 
ROOT
HETATM    1  C1  UNL     1      27.840  -0.894  52.989  1.00  0.00     0.034 C 
HETATM    2  C2  UNL     1      27.348   0.444  53.279  1.00  0.00     0.099 C 
HETATM    3  C3  UNL     1      26.821   0.696  54.667  1.00  0.00     0.192 C 
HETATM    4  O1  UNL     1      25.533   0.381  54.849  1.00  0.00    -0.385 OA
HETATM    5  C4  UNL     1      25.229  -0.950  54.692  1.00  0.00     0.197 C 
HETATM    6  C5  UNL     1      23.727  -0.959  54.876  1.00  0.00     0.032 C 
HETATM    7  C6  UNL     1      22.928  -0.249  54.065  1.00  0.00     0.070 A 
HETATM    8  N1  UNL     1      21.678  -0.456  54.498  1.00  0.00    -0.241 NA
HETATM    9  C7  UNL     1      20.557   0.074  54.048  1.00  0.00     0.236 A 
HETATM   10  N2  UNL     1      20.676   0.936  53.025  1.00  0.00    -0.223 NA
HETATM   11  C8  UNL     1      21.943   1.171  52.554  1.00  0.00     0.144 A 
HETATM   12  C15 UNL     1      23.140   0.601  53.028  1.00  0.00     0.036 A 
HETATM   13  C16 UNL     1      24.055   0.988  52.114  1.00  0.00     0.010 C 
HETATM   14  C17 UNL     1      25.417   0.573  51.811  1.00  0.00     0.145 C 
HETATM   15  N4  UNL     1      26.533   1.153  52.370  1.00  0.00    -0.402 N 
ENDROOT
BRANCH  15  16
HETATM   16  C18 UNL     1      26.880   2.477  52.032  1.00  0.00     0.147 C 
BRANCH  16  17
HETATM   17  C19 UNL     1      26.667   2.800  50.562  1.00  0.00     0.289 C 
BRANCH  17  18
HETATM   18  N5  UNL     1      26.259   4.184  50.475  1.00  0.00     0.087 N 
HETATM   19  H26 UNL     1      26.568   4.550  49.536  1.00  0.00     0.316 HD
BRANCH  18  20
HETATM   20  C20 UNL     1      24.841   4.384  50.578  1.00  0.00     0.299 C 
BRANCH  20  21
HETATM   21  C21 UNL     1      24.482   5.856  50.557  1.00  0.00     0.245 C 
BRANCH  21  22
HETATM   22  O2  UNL     1      23.920   6.276  51.740  1.00  0.00    -0.197 OA
HETATM   23  F1  UNL     1      23.849   5.296  52.637  1.00  0.00    -0.048 F 
ENDBRANCH  21  22
ENDBRANCH  20  21
ENDBRANCH  18  20
ENDBRANCH  17  18
ENDBRANCH  16  17
ENDBRANCH  15  16
BRANCH  11  24
HETATM   24  N3  UNL     1      21.720   2.186  51.543  1.00  0.00    -0.333 N 
HETATM   25  C9  UNL     1      21.219   3.368  52.193  1.00  0.00     0.093 A 
HETATM   26  C10 UNL     1      20.881   4.437  51.469  1.00  0.00     0.017 A 
HETATM   27  C11 UNL     1      21.014   4.446  50.020  1.00  0.00    -0.001 A 
HETATM   28  C12 UNL     1      21.492   3.336  49.479  1.00  0.00    -0.002 A 
HETATM   29  C13 UNL     1      21.928   2.067  50.113  1.00  0.00     0.109 A 
HETATM   30  C14 UNL     1      21.288   0.894  49.458  1.00  0.00     0.037 C 
ENDBRANCH  11  24
TORSDOF 7
ENDMDL
MODEL 4
REMARK VINA RESULT:      -7.5      2.429      5.785
REMARK  7 active torsions:
REMARK  status: ('A' for Active; 'I' for Inactive)
REMARK    1  A    between atoms: C8_11  and  N3_12 
REMARK    2  A    between atoms: N4_22  and  C18_23 
REMARK    3  A    between atoms: C18_23  and  C19_24 
REMARK    4  A    between atoms: C19_24  and  N5_25 
REMARK    5  A    between atoms: N5_25  and  C20_26 
REMARK    6  A    between atoms: C20_26  and  C21_27 
REMARK    7  A    between atoms: C21_27  and  O2_28 
ROOT
HETATM    1  C1  UNL     1      26.338  -1.526  52.899  1.00  0.00     0.034 C 
HETATM    2  C2  UNL     1      25.987  -0.305  53.610  1.00  0.00     0.099 C 
HETATM    3  C3  UNL     1      24.787  -0.361  54.518  1.00  0.00     0.192 C 
HETATM    4  O1  UNL     1      23.613  -0.133  53.920  1.00  0.00    -0.385 OA
HETATM    5  C4  UNL     1      23.257  -1.052  52.961  1.00  0.00     0.197 C 
HETATM    6  C5  UNL     1      21.960  -0.479  52.434  1.00  0.00     0.032 C 
HETATM    7  C6  UNL     1      21.921   0.741  51.877  1.00  0.00     0.070 A 
HETATM    8  N1  UNL     1      20.644   0.954  51.534  1.00  0.00    -0.241 NA
HETATM    9  C7  UNL     1      20.108   2.035  51.002  1.00  0.00     0.236 A 
HETATM   10  N2  UNL     1      20.943   3.062  50.774  1.00  0.00    -0.223 NA
HETATM   11  C8  UNL     1      22.260   2.879  51.113  1.00  0.00     0.144 A 
HETATM   12  C15 UNL     1      22.836   1.723  51.674  1.00  0.00     0.036 A 
HETATM   13  C16 UNL     1      24.161   1.974  51.619  1.00  0.00     0.010 C 
HETATM   14  C17 UNL     1      25.351   1.151  51.773  1.00  0.00     0.145 C 
HETATM   15  N4  UNL     1      25.993   0.956  52.975  1.00  0.00    -0.402 N 
ENDROOT
BRANCH  15  16
HETATM   16  C18 UNL     1      26.674   2.025  53.590  1.00  0.00     0.147 C 
BRANCH  16  17
HETATM   17  C19 UNL     1      28.053   2.279  53.003  1.00  0.00     0.289 C 
BRANCH  17  18
HETATM   18  N5  UNL     1      29.008   2.207  54.086  1.00  0.00     0.087 N 
HETATM   19  H26 UNL     1      28.624   2.772  54.889  1.00  0.00     0.316 HD
BRANCH  18  20
HETATM   20  C20 UNL     1      29.253   0.876  54.563  1.00  0.00     0.299 C 
BRANCH  20  21
HETATM   21  C21 UNL     1      29.808  -0.015  53.470  1.00  0.00     0.245 C 
BRANCH  21  22
HETATM   22  O2  UNL     1      30.239  -1.229  53.952  1.00  0.00    -0.197 OA
HETATM   23  F1  UNL     1      29.529  -2.244  53.464  1.00  0.00    -0.048 F 
ENDBRANCH  21  22
ENDBRANCH  20  21
ENDBRANCH  18  20
ENDBRANCH  17  18
ENDBRANCH  16  17
ENDBRANCH  15  16
BRANCH  11  24
HETATM   24  N3  UNL     1      22.842   4.176  50.826  1.00  0.00    -0.333 N 
HETATM   25  C9  UNL     1      23.344   4.157  49.478  1.00  0.00     0.093 A 
HETATM   26  C10 UNL     1      23.980   5.223  48.986  1.00  0.00     0.017 A 
HETATM   27  C11 UNL     1      24.178   6.423  49.784  1.00  0.00    -0.001 A 
HETATM   28  C12 UNL     1      23.685   6.388  51.012  1.00  0.00    -0.002 A 
HETATM   29  C13 UNL     1      22.947   5.313  51.720  1.00  0.00     0.109 A 
HETATM   30  C14 UNL     1      23.548   5.039  53.054  1.00  0.00     0.037 C 
ENDBRANCH  11  24
TORSDOF 7
ENDMDL
MODEL 5
REMARK VINA RESULT:      -7.4      2.055      2.374
REMARK  7 active torsions:
REMARK  status: ('A' for Active; 'I' for Inactive)
REMARK    1  A    between atoms: C8_11  and  N3_12 
REMARK    2  A    between atoms: N4_22  and  C18_23 
REMARK    3  A    between atoms: C18_23  and  C19_24 
REMARK    4  A    between atoms: C19_24  and  N5_25 
REMARK    5  A    between atoms: N5_25  and  C20_26 
REMARK    6  A    between atoms: C20_26  and  C21_27 
REMARK    7  A    between atoms: C21_27  and  O2_28 
ROOT
HETATM    1  C1  UNL     1      22.223   5.612  51.496  1.00  0.00     0.034 C 
HETATM    2  C2  UNL     1      22.923   4.573  50.756  1.00  0.00     0.099 C 
HETATM    3  C3  UNL     1      22.086   3.464  50.173  1.00  0.00     0.192 C 
HETATM    4  O1  UNL     1      21.834   2.447  51.005  1.00  0.00    -0.385 OA
HETATM    5  C4  UNL     1      21.097   2.772  52.119  1.00  0.00     0.197 C 
HETATM    6  C5  UNL     1      21.060   1.461  52.872  1.00  0.00     0.032 C 
HETATM    7  C6  UNL     1      22.191   0.868  53.280  1.00  0.00     0.070 A 
HETATM    8  N1  UNL     1      21.820  -0.264  53.892  1.00  0.00    -0.241 NA
HETATM    9  C7  UNL     1      22.585  -1.204  54.410  1.00  0.00     0.236 A 
HETATM   10  N2  UNL     1      23.911  -1.011  54.314  1.00  0.00    -0.223 NA
HETATM   11  C8  UNL     1      24.328   0.139  53.694  1.00  0.00     0.144 A 
HETATM   12  C15 UNL     1      23.513   1.147  53.146  1.00  0.00     0.036 A 
HETATM   13  C16 UNL     1      24.387   2.134  52.854  1.00  0.00     0.010 C 
HETATM   14  C17 UNL     1      24.244   3.541  52.515  1.00  0.00     0.145 C 
HETATM   15  N4  UNL     1      24.128   4.007  51.224  1.00  0.00    -0.402 N 
ENDROOT
BRANCH  15  16
HETATM   16  C18 UNL     1      25.229   3.926  50.348  1.00  0.00     0.147 C 
BRANCH  16  17
HETATM   17  C19 UNL     1      25.294   5.073  49.353  1.00  0.00     0.289 C 
BRANCH  17  18
HETATM   18  N5  UNL     1      26.620   5.644  49.433  1.00  0.00     0.087 N 
HETATM   19  H26 UNL     1      26.912   5.634  50.445  1.00  0.00     0.316 HD
BRANCH  18  20
HETATM   20  C20 UNL     1      27.612   4.929  48.683  1.00  0.00     0.299 C 
BRANCH  20  21
HETATM   21  C21 UNL     1      28.767   5.826  48.286  1.00  0.00     0.245 C 
BRANCH  21  22
HETATM   22  O2  UNL     1      29.990   5.239  48.514  1.00  0.00    -0.197 OA
HETATM   23  F1  UNL     1      30.365   4.454  47.507  1.00  0.00    -0.048 F 
ENDBRANCH  21  22
ENDBRANCH  20  21
ENDBRANCH  18  20
ENDBRANCH  17  18
ENDBRANCH  16  17
ENDBRANCH  15  16
BRANCH  11  24
HETATM   24  N3  UNL     1      25.770  -0.014  53.684  1.00  0.00    -0.333 N 
HETATM   25  C9  UNL     1      26.261   0.252  55.010  1.00  0.00     0.093 A 
HETATM   26  C10 UNL     1      27.573   0.230  55.254  1.00  0.00     0.017 A 
HETATM   27  C11 UNL     1      28.536  -0.067  54.205  1.00  0.00    -0.001 A 
HETATM   28  C12 UNL     1      28.026  -0.316  53.009  1.00  0.00    -0.002 A 
HETATM   29  C13 UNL     1      26.614  -0.349  52.553  1.00  0.00     0.109 A 
HETATM   30  C14 UNL     1      26.426   0.480  51.332  1.00  0.00     0.037 C 
ENDBRANCH  11  24
TORSDOF 7
ENDMDL
MODEL 6
REMARK VINA RESULT:      -7.0      2.613      3.256
REMARK  7 active torsions:
REMARK  status: ('A' for Active; 'I' for Inactive)
REMARK    1  A    between atoms: C8_11  and  N3_12 
REMARK    2  A    between atoms: N4_22  and  C18_23 
REMARK    3  A    between atoms: C18_23  and  C19_24 
REMARK    4  A    between atoms: C19_24  and  N5_25 
REMARK    5  A    between atoms: N5_25  and  C20_26 
REMARK    6  A    between atoms: C20_26  and  C21_27 
REMARK    7  A    between atoms: C21_27  and  O2_28 
ROOT
HETATM    1  C1  UNL     1      22.016   5.923  51.266  1.00  0.00     0.034 C 
HETATM    2  C2  UNL     1      22.837   4.955  50.554  1.00  0.00     0.099 C 
HETATM    3  C3  UNL     1      22.118   3.895  49.763  1.00  0.00     0.192 C 
HETATM    4  O1  UNL     1      21.766   2.809  50.461  1.00  0.00    -0.385 OA
HETATM    5  C4  UNL     1      20.866   3.032  51.475  1.00  0.00     0.197 C 
HETATM    6  C5  UNL     1      20.745   1.661  52.103  1.00  0.00     0.032 C 
HETATM    7  C6  UNL     1      21.816   1.043  52.623  1.00  0.00     0.070 A 
HETATM    8  N1  UNL     1      21.381  -0.139  53.077  1.00  0.00    -0.241 NA
HETATM    9  C7  UNL     1      22.080  -1.115  53.623  1.00  0.00     0.236 A 
HETATM   10  N2  UNL     1      23.402  -0.905  53.740  1.00  0.00    -0.223 NA
HETATM   11  C8  UNL     1      23.883   0.297  53.287  1.00  0.00     0.144 A 
HETATM   12  C15 UNL     1      23.137   1.343  52.711  1.00  0.00     0.036 A 
HETATM   13  C16 UNL     1      24.025   2.357  52.635  1.00  0.00     0.010 C 
HETATM   14  C17 UNL     1      23.905   3.787  52.396  1.00  0.00     0.145 C 
HETATM   15  N4  UNL     1      23.972   4.360  51.146  1.00  0.00    -0.402 N 
ENDROOT
BRANCH  15  16
HETATM   16  C18 UNL     1      25.190   4.362  50.439  1.00  0.00     0.147 C 
BRANCH  16  17
HETATM   17  C19 UNL     1      25.350   5.557  49.513  1.00  0.00     0.289 C 
BRANCH  17  18
HETATM   18  N5  UNL     1      26.211   6.510  50.175  1.00  0.00     0.087 N 
HETATM   19  H26 UNL     1      27.113   6.018  50.408  1.00  0.00     0.316 HD
BRANCH  18  20
HETATM   20  C20 UNL     1      26.532   7.661  49.379  1.00  0.00     0.299 C 
BRANCH  20  21
HETATM   21  C21 UNL     1      25.698   8.863  49.773  1.00  0.00     0.245 C 
BRANCH  21  22
HETATM   22  O2  UNL     1      26.449   9.852  50.365  1.00  0.00    -0.197 OA
HETATM   23  F1  UNL     1      27.612   9.393  50.821  1.00  0.00    -0.048 F 
ENDBRANCH  21  22
ENDBRANCH  20  21
ENDBRANCH  18  20
ENDBRANCH  17  18
ENDBRANCH  16  17
ENDBRANCH  15  16
BRANCH  11  24
HETATM   24  N3  UNL     1      25.313   0.156  53.478  1.00  0.00    -0.333 N 
HETATM   25  C9  UNL     1      25.889  -0.315  52.246  1.00  0.00     0.093 A 
HETATM   26  C10 UNL     1      27.195  -0.578  52.177  1.00  0.00     0.017 A 
HETATM   27  C11 UNL     1      28.070  -0.393  53.325  1.00  0.00    -0.001 A 
HETATM   28  C12 UNL     1      27.488   0.054  54.427  1.00  0.00    -0.002 A 
HETATM   29  C13 UNL     1      26.070   0.409  54.689  1.00  0.00     0.109 A 
HETATM   30  C14 UNL     1      25.570  -0.258  55.921  1.00  0.00     0.037 C 
ENDBRANCH  11  24
TORSDOF 7
ENDMDL
MODEL 7
REMARK VINA RESULT:      -7.0      5.413      9.788
REMARK  7 active torsions:
REMARK  status: ('A' for Active; 'I' for Inactive)
REMARK    1  A    between atoms: C8_11  and  N3_12 
REMARK    2  A    between atoms: N4_22  and  C18_23 
REMARK    3  A    between atoms: C18_23  and  C19_24 
REMARK    4  A    between atoms: C19_24  and  N5_25 
REMARK    5  A    between atoms: N5_25  and  C20_26 
REMARK    6  A    between atoms: C20_26  and  C21_27 
REMARK    7  A    between atoms: C21_27  and  O2_28 
ROOT
HETATM    1  C1  UNL     1      24.629   7.144  48.117  1.00  0.00     0.034 C 
HETATM    2  C2  UNL     1      25.684   6.622  48.973  1.00  0.00     0.099 C 
HETATM    3  C3  UNL     1      25.988   7.390  50.233  1.00  0.00     0.192 C 
HETATM    4  O1  UNL     1      26.856   8.397  50.086  1.00  0.00    -0.385 OA
HETATM    5  C4  UNL     1      26.441   9.411  49.256  1.00  0.00     0.197 C 
HETATM    6  C5  UNL     1      27.646  10.324  49.239  1.00  0.00     0.032 C 
HETATM    7  C6  UNL     1      28.836   9.888  48.800  1.00  0.00     0.070 A 
HETATM    8  N1  UNL     1      29.682  10.917  48.927  1.00  0.00    -0.241 NA
HETATM    9  C7  UNL     1      30.976  10.952  48.673  1.00  0.00     0.236 A 
HETATM   10  N2  UNL     1      31.525   9.808  48.233  1.00  0.00    -0.223 NA
HETATM   11  C8  UNL     1      30.688   8.731  48.090  1.00  0.00     0.144 A 
HETATM   12  C15 UNL     1      29.305   8.695  48.352  1.00  0.00     0.036 A 
HETATM   13  C16 UNL     1      28.924   7.496  47.862  1.00  0.00     0.010 C 
HETATM   14  C17 UNL     1      27.634   6.897  47.552  1.00  0.00     0.145 C 
HETATM   15  N4  UNL     1      26.906   6.148  48.448  1.00  0.00    -0.402 N 
ENDROOT
BRANCH  15  16
HETATM   16  C18 UNL     1      27.377   4.883  48.853  1.00  0.00     0.147 C 
BRANCH  16  17
HETATM   17  C19 UNL     1      26.298   4.004  49.465  1.00  0.00     0.289 C 
BRANCH  17  18
HETATM   18  N5  UNL     1      26.758   3.597  50.773  1.00  0.00     0.087 N 
HETATM   19  H26 UNL     1      26.257   4.190  51.487  1.00  0.00     0.316 HD
BRANCH  18  20
HETATM   20  C20 UNL     1      26.494   2.221  51.084  1.00  0.00     0.299 C 
BRANCH  20  21
HETATM   21  C21 UNL     1      27.202   1.790  52.353  1.00  0.00     0.245 C 
BRANCH  21  22
HETATM   22  O2  UNL     1      28.376   2.478  52.559  1.00  0.00    -0.197 OA
HETATM   23  F1  UNL     1      28.499   2.894  53.817  1.00  0.00    -0.048 F 
ENDBRANCH  21  22
ENDBRANCH  20  21
ENDBRANCH  18  20
ENDBRANCH  17  18
ENDBRANCH  16  17
ENDBRANCH  15  16
BRANCH  11  24
HETATM   24  N3  UNL     1      31.599   7.673  47.696  1.00  0.00    -0.333 N 
HETATM   25  C9  UNL     1      31.545   7.542  46.264  1.00  0.00     0.093 A 
HETATM   26  C10 UNL     1      32.258   6.593  45.653  1.00  0.00     0.017 A 
HETATM   27  C11 UNL     1      33.105   5.678  46.403  1.00  0.00    -0.001 A 
HETATM   28  C12 UNL     1      33.125   5.855  47.715  1.00  0.00    -0.002 A 
HETATM   29  C13 UNL     1      32.419   6.849  48.562  1.00  0.00     0.109 A 
HETATM   30  C14 UNL     1      31.712   6.185  49.691  1.00  0.00     0.037 C 
ENDBRANCH  11  24
TORSDOF 7
ENDMDL
MODEL 8
REMARK VINA RESULT:      -6.8      3.303      7.025
REMARK  7 active torsions:
REMARK  status: ('A' for Active; 'I' for Inactive)
REMARK    1  A    between atoms: C8_11  and  N3_12 
REMARK    2  A    between atoms: N4_22  and  C18_23 
REMARK    3  A    between atoms: C18_23  and  C19_24 
REMARK    4  A    between atoms: C19_24  and  N5_25 
REMARK    5  A    between atoms: N5_25  and  C20_26 
REMARK    6  A    between atoms: C20_26  and  C21_27 
REMARK    7  A    between atoms: C21_27  and  O2_28 
ROOT
HETATM    1  C1  UNL     1      21.099   0.098  54.880  1.00  0.00     0.034 C 
HETATM    2  C2  UNL     1      21.119  -0.301  53.480  1.00  0.00     0.099 C 
HETATM    3  C3  UNL     1      22.258  -1.179  53.034  1.00  0.00     0.192 C 
HETATM    4  O1  UNL     1      23.369  -0.526  52.674  1.00  0.00    -0.385 OA
HETATM    5  C4  UNL     1      23.973   0.195  53.675  1.00  0.00     0.197 C 
HETATM    6  C5  UNL     1      25.118   0.861  52.944  1.00  0.00     0.032 C 
HETATM    7  C6  UNL     1      24.889   1.689  51.913  1.00  0.00     0.070 A 
HETATM    8  N1  UNL     1      26.092   2.092  51.484  1.00  0.00    -0.241 NA
HETATM    9  C7  UNL     1      26.377   2.871  50.459  1.00  0.00     0.236 A 
HETATM   10  N2  UNL     1      25.332   3.320  49.745  1.00  0.00    -0.223 NA
HETATM   11  C8  UNL     1      24.084   2.929  50.157  1.00  0.00     0.144 A 
HETATM   12  C15 UNL     1      23.776   2.104  51.256  1.00  0.00     0.036 A 
HETATM   13  C16 UNL     1      22.433   2.196  51.351  1.00  0.00     0.010 C 
HETATM   14  C17 UNL     1      21.467   1.836  52.379  1.00  0.00     0.145 C 
HETATM   15  N4  UNL     1      20.840   0.612  52.440  1.00  0.00    -0.402 N 
ENDROOT
BRANCH  15  16
HETATM   16  C18 UNL     1      19.898   0.255  51.454  1.00  0.00     0.147 C 
BRANCH  16  17
HETATM   17  C19 UNL     1      18.458   0.462  51.893  1.00  0.00     0.289 C 
BRANCH  17  18
HETATM   18  N5  UNL     1      17.827  -0.838  51.948  1.00  0.00     0.087 N 
HETATM   19  H26 UNL     1      18.526  -1.547  51.601  1.00  0.00     0.316 HD
BRANCH  18  20
HETATM   20  C20 UNL     1      17.418  -1.234  53.265  1.00  0.00     0.299 C 
BRANCH  20  21
HETATM   21  C21 UNL     1      18.000  -2.580  53.649  1.00  0.00     0.245 C 
BRANCH  21  22
HETATM   22  O2  UNL     1      17.058  -3.583  53.632  1.00  0.00    -0.197 OA
HETATM   23  F1  UNL     1      17.531  -4.707  53.099  1.00  0.00    -0.048 F 
ENDBRANCH  21  22
ENDBRANCH  20  21
ENDBRANCH  18  20
ENDBRANCH  17  18
ENDBRANCH  16  17
ENDBRANCH  15  16
BRANCH  11  24
HETATM   24  N3  UNL     1      23.222   3.502  49.141  1.00  0.00    -0.333 N 
HETATM   25  C9  UNL     1      22.923   4.859  49.517  1.00  0.00     0.093 A 
HETATM   26  C10 UNL     1      22.097   5.593  48.769  1.00  0.00     0.017 A 
HETATM   27  C11 UNL     1      21.488   5.058  47.561  1.00  0.00    -0.001 A 
HETATM   28  C12 UNL     1      21.809   3.809  47.258  1.00  0.00    -0.002 A 
HETATM   29  C13 UNL     1      22.706   2.852  47.952  1.00  0.00     0.109 A 
HETATM   30  C14 UNL     1      22.031   1.544  48.167  1.00  0.00     0.037 C 
ENDBRANCH  11  24
TORSDOF 7
ENDMDL
MODEL 9
REMARK VINA RESULT:      -6.8      2.170      5.318
REMARK  7 active torsions:
REMARK  status: ('A' for Active; 'I' for Inactive)
REMARK    1  A    between atoms: C8_11  and  N3_12 
REMARK    2  A    between atoms: N4_22  and  C18_23 
REMARK    3  A    between atoms: C18_23  and  C19_24 
REMARK    4  A    between atoms: C19_24  and  N5_25 
REMARK    5  A    between atoms: N5_25  and  C20_26 
REMARK    6  A    between atoms: C20_26  and  C21_27 
REMARK    7  A    between atoms: C21_27  and  O2_28 
ROOT
HETATM    1  C1  UNL     1      27.115   1.188  51.676  1.00  0.00     0.034 C 
HETATM    2  C2  UNL     1      26.186   2.140  52.267  1.00  0.00     0.099 C 
HETATM    3  C3  UNL     1      25.966   2.052  53.754  1.00  0.00     0.192 C 
HETATM    4  O1  UNL     1      25.028   1.178  54.136  1.00  0.00    -0.385 OA
HETATM    5  C4  UNL     1      25.294  -0.136  53.834  1.00  0.00     0.197 C 
HETATM    6  C5  UNL     1      24.040  -0.834  54.309  1.00  0.00     0.032 C 
HETATM    7  C6  UNL     1      22.840  -0.523  53.796  1.00  0.00     0.070 A 
HETATM    8  N1  UNL     1      21.950  -1.296  54.430  1.00  0.00    -0.241 NA
HETATM    9  C7  UNL     1      20.638  -1.310  54.302  1.00  0.00     0.236 A 
HETATM   10  N2  UNL     1      20.117  -0.436  53.426  1.00  0.00    -0.223 NA
HETATM   11  C8  UNL     1      21.000   0.373  52.756  1.00  0.00     0.144 A 
HETATM   12  C15 UNL     1      22.402   0.384  52.886  1.00  0.00     0.036 A 
HETATM   13  C16 UNL     1      22.803   1.191  51.882  1.00  0.00     0.010 C 
HETATM   14  C17 UNL     1      24.089   1.456  51.252  1.00  0.00     0.145 C 
HETATM   15  N4  UNL     1      24.949   2.449  51.663  1.00  0.00    -0.402 N 
ENDROOT
BRANCH  15  16
HETATM   16  C18 UNL     1      24.599   3.802  51.477  1.00  0.00     0.147 C 
BRANCH  16  17
HETATM   17  C19 UNL     1      24.831   4.296  50.058  1.00  0.00     0.289 C 
BRANCH  17  18
HETATM   18  N5  UNL     1      26.126   4.938  50.026  1.00  0.00     0.087 N 
HETATM   19  H26 UNL     1      26.852   4.188  49.882  1.00  0.00     0.316 HD
BRANCH  18  20
HETATM   20  C20 UNL     1      26.276   5.902  48.973  1.00  0.00     0.299 C 
BRANCH  20  21
HETATM   21  C21 UNL     1      27.709   5.978  48.486  1.00  0.00     0.245 C 
BRANCH  21  22
HETATM   22  O2  UNL     1      28.351   4.763  48.556  1.00  0.00    -0.197 OA
HETATM   23  F1  UNL     1      29.458   4.738  47.817  1.00  0.00    -0.048 F 
ENDBRANCH  21  22
ENDBRANCH  20  21
ENDBRANCH  18  20
ENDBRANCH  17  18
ENDBRANCH  16  17
ENDBRANCH  15  16
BRANCH  11  24
HETATM   24  N3  UNL     1      20.120   1.228  51.984  1.00  0.00    -0.333 N 
HETATM   25  C9  UNL     1      19.641   0.479  50.852  1.00  0.00     0.093 A 
HETATM   26  C10 UNL     1      18.851   1.063  49.950  1.00  0.00     0.017 A 
HETATM   27  C11 UNL     1      18.446   2.454  50.081  1.00  0.00    -0.001 A 
HETATM   28  C12 UNL     1      18.906   3.090  51.148  1.00  0.00    -0.002 A 
HETATM   29  C13 UNL     1      19.775   2.611  52.252  1.00  0.00     0.109 A 
HETATM   30  C14 UNL     1      20.919   3.536  52.474  1.00  0.00     0.037 C 
ENDBRANCH  11  24
TORSDOF 7
ENDMDL
