MODEL 1
REMARK VINA RESULT:      -9.4      0.000      0.000
REMARK  5 active torsions:
REMARK  status: ('A' for Active; 'I' for Inactive)
REMARK       I    between atoms: C1_2  and  N1_3 
REMARK    1  A    between atoms: C1_2  and  C17_23 
REMARK    2  A    between atoms: N1_3  and  C2_4 
REMARK    3  A    between atoms: C6_8  and  N2_9 
REMARK    4  A    between atoms: N2_9  and  C7_10 
REMARK    5  A    between atoms: C7_10  and  N3_11 
ROOT
HETATM    1  C2  UNL     1      23.104   1.783  51.186  1.00  0.00     0.037 A 
HETATM    2  C3  UNL     1      21.784   1.606  50.799  1.00  0.00     0.029 A 
HETATM    3  C4  UNL     1      21.049   0.606  51.402  1.00  0.00     0.004 A 
HETATM    4  C5  UNL     1      21.563  -0.235  52.378  1.00  0.00     0.029 A 
HETATM    5  C6  UNL     1      22.879  -0.040  52.747  1.00  0.00     0.031 A 
HETATM    6  C16 UNL     1      23.647   0.948  52.169  1.00  0.00     0.058 A 
ENDROOT
BRANCH   5   7
HETATM    7  N2  UNL     1      23.475  -0.864  53.742  1.00  0.00    -0.372 N 
HETATM    8  H5  UNL     1      23.052  -1.743  54.053  1.00  0.00     0.161 HD
BRANCH   7   9
HETATM    9  C7  UNL     1      24.732  -0.489  54.373  1.00  0.00     0.271 C 
BRANCH   9  10
HETATM   10  N3  UNL     1      25.886  -0.972  53.698  1.00  0.00    -0.270 NA
HETATM   11  C8  UNL     1      26.880  -0.211  53.287  1.00  0.00     0.054 C 
HETATM   12  C9  UNL     1      27.547  -1.426  52.763  1.00  0.00     0.040 C 
HETATM   13  C15 UNL     1      26.760   1.262  53.539  1.00  0.00     0.047 C 
HETATM   14  C10 UNL     1      28.735  -1.731  53.280  1.00  0.00    -0.026 C 
HETATM   15  C11 UNL     1      29.694  -0.803  53.242  1.00  0.00     0.139 A 
HETATM   16  N4  UNL     1      29.392  -0.601  54.595  1.00  0.00    -0.255 N 
HETATM   17  C13 UNL     1      29.009   0.499  53.535  1.00  0.00     0.371 A 
HETATM   18  C12 UNL     1      28.804   0.438  55.004  1.00  0.00     0.077 A 
HETATM   19  N5  UNL     1      28.451   1.373  52.739  1.00  0.00    -0.404 NA
HETATM   20  C14 UNL     1      27.550   2.346  53.302  1.00  0.00     0.076 C 
ENDBRANCH   9  10
ENDBRANCH   7   9
ENDBRANCH   5   7
BRANCH   1  21
HETATM   21  N1  UNL     1      23.976   2.772  50.651  1.00  0.00    -0.323 N 
HETATM   22  C1  UNL     1      24.355   4.082  51.027  1.00  0.00     0.256 C 
HETATM   23  O1  UNL     1      23.819   4.515  52.075  1.00  0.00    -0.267 OA
HETATM   24  H1  UNL     1      24.305   2.233  49.820  1.00  0.00     0.169 HD
BRANCH  22  25
HETATM   25  C17 UNL     1      25.312   4.774  50.169  1.00  0.00     0.032 A 
HETATM   26  C18 UNL     1      25.313   6.093  49.768  1.00  0.00     0.017 A 
HETATM   27  C19 UNL     1      26.323   6.549  48.946  1.00  0.00     0.001 A 
HETATM   28  C20 UNL     1      27.354   5.728  48.499  1.00  0.00     0.000 A 
HETATM   29  C21 UNL     1      27.376   4.406  48.886  1.00  0.00     0.001 A 
HETATM   30  C22 UNL     1      26.349   3.955  49.717  1.00  0.00     0.017 A 
ENDBRANCH  22  25
ENDBRANCH   1  21
TORSDOF 5
ENDMDL
MODEL 2
REMARK VINA RESULT:      -9.2      1.953      5.586
REMARK  5 active torsions:
REMARK  status: ('A' for Active; 'I' for Inactive)
REMARK       I    between atoms: C1_2  and  N1_3 
REMARK    1  A    between atoms: C1_2  and  C17_23 
REMARK    2  A    between atoms: N1_3  and  C2_4 
REMARK    3  A    between atoms: C6_8  and  N2_9 
REMARK    4  A    between atoms: N2_9  and  C7_10 
REMARK    5  A    between atoms: C7_10  and  N3_11 
ROOT
HETATM    1  C2  UNL     1      22.542   3.382  50.237  1.00  0.00     0.037 A 
HETATM    2  C3  UNL     1      22.173   4.442  49.422  1.00  0.00     0.029 A 
HETATM    3  C4  UNL     1      23.155   5.304  48.978  1.00  0.00     0.004 A 
HETATM    4  C5  UNL     1      24.496   5.167  49.307  1.00  0.00     0.029 A 
HETATM    5  C6  UNL     1      24.839   4.105  50.120  1.00  0.00     0.031 A 
HETATM    6  C16 UNL     1      23.887   3.221  50.584  1.00  0.00     0.058 A 
ENDROOT
BRANCH   5   7
HETATM    7  N2  UNL     1      26.194   3.899  50.499  1.00  0.00    -0.372 N 
HETATM    8  H5  UNL     1      26.858   4.671  50.603  1.00  0.00     0.161 HD
BRANCH   7   9
HETATM    9  C7  UNL     1      26.706   2.562  50.759  1.00  0.00     0.271 C 
BRANCH   9  10
HETATM   10  N3  UNL     1      27.455   2.452  51.962  1.00  0.00    -0.270 NA
HETATM   11  C8  UNL     1      27.087   1.734  53.004  1.00  0.00     0.054 C 
HETATM   12  C9  UNL     1      28.326   2.166  53.694  1.00  0.00     0.040 C 
HETATM   13  C15 UNL     1      25.780   1.007  52.904  1.00  0.00     0.047 C 
HETATM   14  C10 UNL     1      29.184   1.210  54.045  1.00  0.00    -0.026 C 
HETATM   15  C11 UNL     1      28.732   0.207  54.803  1.00  0.00     0.139 A 
HETATM   16  N4  UNL     1      28.719  -0.533  53.614  1.00  0.00    -0.255 N 
HETATM   17  C13 UNL     1      27.360  -0.106  54.285  1.00  0.00     0.371 A 
HETATM   18  C12 UNL     1      27.645  -0.866  53.043  1.00  0.00     0.077 A 
HETATM   19  N5  UNL     1      26.189   0.369  54.618  1.00  0.00    -0.404 NA
HETATM   20  C14 UNL     1      25.081   0.170  53.719  1.00  0.00     0.076 C 
ENDBRANCH   9  10
ENDBRANCH   7   9
ENDBRANCH   5   7
BRANCH   1  21
HETATM   21  N1  UNL     1      21.637   2.419  50.765  1.00  0.00    -0.323 N 
HETATM   22  C1  UNL     1      21.052   1.224  50.283  1.00  0.00     0.256 C 
HETATM   23  O1  UNL     1      21.381   0.900  49.116  1.00  0.00    -0.267 OA
HETATM   24  H1  UNL     1      21.496   2.858  51.701  1.00  0.00     0.169 HD
BRANCH  22  25
HETATM   25  C17 UNL     1      20.147   0.513  51.179  1.00  0.00     0.032 A 
HETATM   26  C18 UNL     1      18.821   0.187  50.984  1.00  0.00     0.017 A 
HETATM   27  C19 UNL     1      18.142  -0.497  51.972  1.00  0.00     0.001 A 
HETATM   28  C20 UNL     1      18.740  -0.878  53.168  1.00  0.00     0.000 A 
HETATM   29  C21 UNL     1      20.064  -0.565  53.387  1.00  0.00     0.001 A 
HETATM   30  C22 UNL     1      20.743   0.128  52.383  1.00  0.00     0.017 A 
ENDBRANCH  22  25
ENDBRANCH   1  21
TORSDOF 5
ENDMDL
MODEL 3
REMARK VINA RESULT:      -9.2      3.760      6.129
REMARK  5 active torsions:
REMARK  status: ('A' for Active; 'I' for Inactive)
REMARK       I    between atoms: C1_2  and  N1_3 
REMARK    1  A    between atoms: C1_2  and  C17_23 
REMARK    2  A    between atoms: N1_3  and  C2_4 
REMARK    3  A    between atoms: C6_8  and  N2_9 
REMARK    4  A    between atoms: N2_9  and  C7_10 
REMARK    5  A    between atoms: C7_10  and  N3_11 
ROOT
HETATM    1  C2  UNL     1      28.566   5.609  48.186  1.00  0.00     0.037 A 
HETATM    2  C3  UNL     1      27.956   6.794  47.806  1.00  0.00     0.029 A 
HETATM    3  C4  UNL     1      26.646   7.012  48.183  1.00  0.00     0.004 A 
HETATM    4  C5  UNL     1      25.906   6.103  48.925  1.00  0.00     0.029 A 
HETATM    5  C6  UNL     1      26.534   4.930  49.292  1.00  0.00     0.031 A 
HETATM    6  C16 UNL     1      27.842   4.675  48.935  1.00  0.00     0.058 A 
ENDROOT
BRANCH   5   7
HETATM    7  N2  UNL     1      25.839   3.951  50.054  1.00  0.00    -0.372 N 
HETATM    8  H5  UNL     1      24.909   4.119  50.446  1.00  0.00     0.161 HD
BRANCH   7   9
HETATM    9  C7  UNL     1      26.428   2.646  50.315  1.00  0.00     0.271 C 
BRANCH   9  10
HETATM   10  N3  UNL     1      27.148   2.569  51.538  1.00  0.00    -0.270 NA
HETATM   11  C8  UNL     1      26.764   1.866  52.584  1.00  0.00     0.054 C 
HETATM   12  C9  UNL     1      27.979   2.328  53.296  1.00  0.00     0.040 C 
HETATM   13  C15 UNL     1      25.470   1.118  52.466  1.00  0.00     0.047 C 
HETATM   14  C10 UNL     1      28.841   1.391  53.686  1.00  0.00    -0.026 C 
HETATM   15  C11 UNL     1      28.385   0.397  54.452  1.00  0.00     0.139 A 
HETATM   16  N4  UNL     1      28.411  -0.366  53.278  1.00  0.00    -0.255 N 
HETATM   17  C13 UNL     1      27.030   0.055  53.907  1.00  0.00     0.371 A 
HETATM   18  C12 UNL     1      27.356  -0.724  52.686  1.00  0.00     0.077 A 
HETATM   19  N5  UNL     1      25.844   0.519  54.201  1.00  0.00    -0.404 NA
HETATM   20  C14 UNL     1      24.762   0.288  53.280  1.00  0.00     0.076 C 
ENDBRANCH   9  10
ENDBRANCH   7   9
ENDBRANCH   5   7
BRANCH   1  21
HETATM   21  N1  UNL     1      29.907   5.254  47.868  1.00  0.00    -0.323 N 
HETATM   22  C1  UNL     1      31.185   5.655  48.324  1.00  0.00     0.256 C 
HETATM   23  O1  UNL     1      31.182   6.530  49.223  1.00  0.00    -0.267 OA
HETATM   24  H1  UNL     1      29.693   4.545  47.133  1.00  0.00     0.169 HD
BRANCH  22  25
HETATM   25  C17 UNL     1      32.345   5.017  47.711  1.00  0.00     0.032 A 
HETATM   26  C18 UNL     1      33.643   5.476  47.641  1.00  0.00     0.017 A 
HETATM   27  C19 UNL     1      34.598   4.707  47.008  1.00  0.00     0.001 A 
HETATM   28  C20 UNL     1      34.308   3.475  46.432  1.00  0.00     0.000 A 
HETATM   29  C21 UNL     1      33.018   2.993  46.489  1.00  0.00     0.001 A 
HETATM   30  C22 UNL     1      32.059   3.779  47.131  1.00  0.00     0.017 A 
ENDBRANCH  22  25
ENDBRANCH   1  21
TORSDOF 5
ENDMDL
MODEL 4
REMARK VINA RESULT:      -9.1      1.316      2.337
REMARK  5 active torsions:
REMARK  status: ('A' for Active; 'I' for Inactive)
REMARK       I    between atoms: C1_2  and  N1_3 
REMARK    1  A    between atoms: C1_2  and  C17_23 
REMARK    2  A    between atoms: N1_3  and  C2_4 
REMARK    3  A    between atoms: C6_8  and  N2_9 
REMARK    4  A    between atoms: N2_9  and  C7_10 
REMARK    5  A    between atoms: C7_10  and  N3_11 
ROOT
HETATM    1  C2  UNL     1      23.364   2.255  50.072  1.00  0.00     0.037 A 
HETATM    2  C3  UNL     1      22.320   1.854  49.252  1.00  0.00     0.029 A 
HETATM    3  C4  UNL     1      21.369   0.998  49.768  1.00  0.00     0.004 A 
HETATM    4  C5  UNL     1      21.403   0.513  51.068  1.00  0.00     0.029 A 
HETATM    5  C6  UNL     1      22.452   0.925  51.864  1.00  0.00     0.031 A 
HETATM    6  C16 UNL     1      23.423   1.781  51.387  1.00  0.00     0.058 A 
ENDROOT
BRANCH   5   7
HETATM    7  N2  UNL     1      22.554   0.471  53.209  1.00  0.00    -0.372 N 
HETATM    8  H5  UNL     1      22.005   0.881  53.970  1.00  0.00     0.161 HD
BRANCH   7   9
HETATM    9  C7  UNL     1      23.457  -0.612  53.569  1.00  0.00     0.271 C 
BRANCH   9  10
HETATM   10  N3  UNL     1      24.638  -0.184  54.234  1.00  0.00    -0.270 NA
HETATM   11  C8  UNL     1      25.850  -0.615  53.948  1.00  0.00     0.054 C 
HETATM   12  C9  UNL     1      26.377   0.267  55.016  1.00  0.00     0.040 C 
HETATM   13  C15 UNL     1      25.971  -1.637  52.857  1.00  0.00     0.047 C 
HETATM   14  C10 UNL     1      27.234   1.217  54.644  1.00  0.00    -0.026 C 
HETATM   15  C11 UNL     1      28.326   0.849  53.970  1.00  0.00     0.139 A 
HETATM   16  N4  UNL     1      27.644   1.315  52.838  1.00  0.00    -0.255 N 
HETATM   17  C13 UNL     1      27.877  -0.231  53.030  1.00  0.00     0.371 A 
HETATM   18  C12 UNL     1      27.191   0.532  51.959  1.00  0.00     0.077 A 
HETATM   19  N5  UNL     1      27.813  -1.527  53.181  1.00  0.00    -0.404 NA
HETATM   20  C14 UNL     1      27.007  -2.292  52.265  1.00  0.00     0.076 C 
ENDBRANCH   9  10
ENDBRANCH   7   9
ENDBRANCH   5   7
BRANCH   1  21
HETATM   21  N1  UNL     1      24.411   3.132  49.674  1.00  0.00    -0.323 N 
HETATM   22  C1  UNL     1      24.565   4.536  49.594  1.00  0.00     0.256 C 
HETATM   23  O1  UNL     1      23.566   5.205  49.949  1.00  0.00    -0.267 OA
HETATM   24  H1  UNL     1      25.117   2.404  49.428  1.00  0.00     0.169 HD
BRANCH  22  25
HETATM   25  C17 UNL     1      25.848   5.043  49.117  1.00  0.00     0.032 A 
HETATM   26  C18 UNL     1      27.053   4.379  49.017  1.00  0.00     0.017 A 
HETATM   27  C19 UNL     1      28.156   5.052  48.533  1.00  0.00     0.001 A 
HETATM   28  C20 UNL     1      28.108   6.385  48.136  1.00  0.00     0.000 A 
HETATM   29  C21 UNL     1      26.916   7.070  48.225  1.00  0.00     0.001 A 
HETATM   30  C22 UNL     1      25.805   6.380  48.716  1.00  0.00     0.017 A 
ENDBRANCH  22  25
ENDBRANCH   1  21
TORSDOF 5
ENDMDL
MODEL 5
REMARK VINA RESULT:      -8.9      2.052      6.222
REMARK  5 active torsions:
REMARK  status: ('A' for Active; 'I' for Inactive)
REMARK       I    between atoms: C1_2  and  N1_3 
REMARK    1  A    between atoms: C1_2  and  C17_23 
REMARK    2  A    between atoms: N1_3  and  C2_4 
REMARK    3  A    between atoms: C6_8  and  N2_9 
REMARK    4  A    between atoms: N2_9  and  C7_10 
REMARK    5  A    between atoms: C7_10  and  N3_11 
ROOT
HETATM    1  C2  UNL     1      23.476  -0.433  53.666  1.00  0.00     0.037 A 
HETATM    2  C3  UNL     1      22.721  -0.985  54.690  1.00  0.00     0.029 A 
HETATM    3  C4  UNL     1      21.346  -0.926  54.601  1.00  0.00     0.004 A 
HETATM    4  C5  UNL     1      20.675  -0.340  53.537  1.00  0.00     0.029 A 
HETATM    5  C6  UNL     1      21.447   0.204  52.530  1.00  0.00     0.031 A 
HETATM    6  C16 UNL     1      22.825   0.165  52.582  1.00  0.00     0.058 A 
ENDROOT
BRANCH   5   7
HETATM    7  N2  UNL     1      20.831   0.822  51.407  1.00  0.00    -0.372 N 
HETATM    8  H5  UNL     1      20.687   0.331  50.521  1.00  0.00     0.161 HD
BRANCH   7   9
HETATM    9  C7  UNL     1      20.372   2.202  51.467  1.00  0.00     0.271 C 
BRANCH   9  10
HETATM   10  N3  UNL     1      20.962   3.052  50.492  1.00  0.00    -0.270 NA
HETATM   11  C8  UNL     1      21.947   3.892  50.736  1.00  0.00     0.054 C 
HETATM   12  C9  UNL     1      21.907   4.296  49.311  1.00  0.00     0.040 C 
HETATM   13  C15 UNL     1      22.456   3.956  52.145  1.00  0.00     0.047 C 
HETATM   14  C10 UNL     1      23.011   4.087  48.595  1.00  0.00    -0.026 C 
HETATM   15  C11 UNL     1      24.157   4.607  49.039  1.00  0.00     0.139 A 
HETATM   16  N4  UNL     1      24.445   3.307  49.474  1.00  0.00    -0.255 N 
HETATM   17  C13 UNL     1      24.130   4.433  50.529  1.00  0.00     0.371 A 
HETATM   18  C12 UNL     1      24.449   2.993  50.696  1.00  0.00     0.077 A 
HETATM   19  N5  UNL     1      23.676   5.211  51.475  1.00  0.00    -0.404 NA
HETATM   20  C14 UNL     1      23.440   4.649  52.781  1.00  0.00     0.076 C 
ENDBRANCH   9  10
ENDBRANCH   7   9
ENDBRANCH   5   7
BRANCH   1  21
HETATM   21  N1  UNL     1      24.898  -0.424  53.628  1.00  0.00    -0.323 N 
HETATM   22  C1  UNL     1      25.895   0.579  53.677  1.00  0.00     0.256 C 
HETATM   23  O1  UNL     1      25.468   1.754  53.778  1.00  0.00    -0.267 OA
HETATM   24  H1  UNL     1      25.043  -1.454  53.546  1.00  0.00     0.169 HD
BRANCH  22  25
HETATM   25  C17 UNL     1      27.286   0.145  53.606  1.00  0.00     0.032 A 
HETATM   26  C18 UNL     1      28.428   0.860  53.898  1.00  0.00     0.017 A 
HETATM   27  C19 UNL     1      29.659   0.252  53.763  1.00  0.00     0.001 A 
HETATM   28  C20 UNL     1      29.803  -1.066  53.342  1.00  0.00     0.000 A 
HETATM   29  C21 UNL     1      28.677  -1.803  53.045  1.00  0.00     0.001 A 
HETATM   30  C22 UNL     1      27.436  -1.179  53.184  1.00  0.00     0.017 A 
ENDBRANCH  22  25
ENDBRANCH   1  21
TORSDOF 5
ENDMDL
MODEL 6
REMARK VINA RESULT:      -8.8      2.080      6.480
REMARK  5 active torsions:
REMARK  status: ('A' for Active; 'I' for Inactive)
REMARK       I    between atoms: C1_2  and  N1_3 
REMARK    1  A    between atoms: C1_2  and  C17_23 
REMARK    2  A    between atoms: N1_3  and  C2_4 
REMARK    3  A    between atoms: C6_8  and  N2_9 
REMARK    4  A    between atoms: N2_9  and  C7_10 
REMARK    5  A    between atoms: C7_10  and  N3_11 
ROOT
HETATM    1  C2  UNL     1      23.303  -0.581  53.668  1.00  0.00     0.037 A 
HETATM    2  C3  UNL     1      22.556  -0.990  54.762  1.00  0.00     0.029 A 
HETATM    3  C4  UNL     1      21.181  -0.916  54.687  1.00  0.00     0.004 A 
HETATM    4  C5  UNL     1      20.503  -0.449  53.569  1.00  0.00     0.029 A 
HETATM    5  C6  UNL     1      21.267  -0.047  52.493  1.00  0.00     0.031 A 
HETATM    6  C16 UNL     1      22.644  -0.106  52.528  1.00  0.00     0.058 A 
ENDROOT
BRANCH   5   7
HETATM    7  N2  UNL     1      20.643   0.443  51.312  1.00  0.00    -0.372 N 
HETATM    8  H5  UNL     1      19.723   0.117  51.002  1.00  0.00     0.161 HD
BRANCH   7   9
HETATM    9  C7  UNL     1      21.293   1.443  50.478  1.00  0.00     0.271 C 
BRANCH   9  10
HETATM   10  N3  UNL     1      21.446   2.709  51.106  1.00  0.00    -0.270 NA
HETATM   11  C8  UNL     1      22.569   3.397  51.127  1.00  0.00     0.054 C 
HETATM   12  C9  UNL     1      21.869   4.449  51.901  1.00  0.00     0.040 C 
HETATM   13  C15 UNL     1      23.760   2.780  50.456  1.00  0.00     0.047 C 
HETATM   14  C10 UNL     1      21.795   5.657  51.346  1.00  0.00    -0.026 C 
HETATM   15  C11 UNL     1      22.933   6.246  50.969  1.00  0.00     0.139 A 
HETATM   16  N4  UNL     1      22.568   5.859  49.673  1.00  0.00    -0.255 N 
HETATM   17  C13 UNL     1      23.781   5.154  50.388  1.00  0.00     0.371 A 
HETATM   18  C12 UNL     1      23.175   4.944  49.050  1.00  0.00     0.077 A 
HETATM   19  N5  UNL     1      24.650   4.354  50.948  1.00  0.00    -0.404 NA
HETATM   20  C14 UNL     1      25.049   3.163  50.242  1.00  0.00     0.076 C 
ENDBRANCH   9  10
ENDBRANCH   7   9
ENDBRANCH   5   7
BRANCH   1  21
HETATM   21  N1  UNL     1      24.725  -0.604  53.608  1.00  0.00    -0.323 N 
HETATM   22  C1  UNL     1      25.739   0.378  53.506  1.00  0.00     0.256 C 
HETATM   23  O1  UNL     1      25.333   1.563  53.453  1.00  0.00    -0.267 OA
HETATM   24  H1  UNL     1      24.850  -1.638  53.664  1.00  0.00     0.169 HD
BRANCH  22  25
HETATM   25  C17 UNL     1      27.121  -0.089  53.474  1.00  0.00     0.032 A 
HETATM   26  C18 UNL     1      27.605  -1.321  53.089  1.00  0.00     0.017 A 
HETATM   27  C19 UNL     1      28.964  -1.557  53.136  1.00  0.00     0.001 A 
HETATM   28  C20 UNL     1      29.878  -0.598  53.557  1.00  0.00     0.000 A 
HETATM   29  C21 UNL     1      29.420   0.642  53.947  1.00  0.00     0.001 A 
HETATM   30  C22 UNL     1      28.044   0.871  53.897  1.00  0.00     0.017 A 
ENDBRANCH  22  25
ENDBRANCH   1  21
TORSDOF 5
ENDMDL
MODEL 7
REMARK VINA RESULT:      -8.7      1.680      5.397
REMARK  5 active torsions:
REMARK  status: ('A' for Active; 'I' for Inactive)
REMARK       I    between atoms: C1_2  and  N1_3 
REMARK    1  A    between atoms: C1_2  and  C17_23 
REMARK    2  A    between atoms: N1_3  and  C2_4 
REMARK    3  A    between atoms: C6_8  and  N2_9 
REMARK    4  A    between atoms: N2_9  and  C7_10 
REMARK    5  A    between atoms: C7_10  and  N3_11 
ROOT
HETATM    1  C2  UNL     1      27.439   2.172  52.788  1.00  0.00     0.037 A 
HETATM    2  C3  UNL     1      28.662   2.136  53.439  1.00  0.00     0.029 A 
HETATM    3  C4  UNL     1      28.876   1.155  54.386  1.00  0.00     0.004 A 
HETATM    4  C5  UNL     1      27.927   0.201  54.724  1.00  0.00     0.029 A 
HETATM    5  C6  UNL     1      26.716   0.258  54.063  1.00  0.00     0.031 A 
HETATM    6  C16 UNL     1      26.464   1.221  53.109  1.00  0.00     0.058 A 
ENDROOT
BRANCH   5   7
HETATM    7  N2  UNL     1      25.694  -0.688  54.355  1.00  0.00    -0.372 N 
HETATM    8  H5  UNL     1      25.662  -1.207  55.236  1.00  0.00     0.161 HD
BRANCH   7   9
HETATM    9  C7  UNL     1      24.632  -0.964  53.399  1.00  0.00     0.271 C 
BRANCH   9  10
HETATM   10  N3  UNL     1      23.342  -0.548  53.830  1.00  0.00    -0.270 NA
HETATM   11  C8  UNL     1      22.709   0.510  53.366  1.00  0.00     0.054 C 
HETATM   12  C9  UNL     1      21.585   0.194  54.278  1.00  0.00     0.040 C 
HETATM   13  C15 UNL     1      23.418   1.329  52.329  1.00  0.00     0.047 C 
HETATM   14  C10 UNL     1      20.406  -0.063  53.714  1.00  0.00    -0.026 C 
HETATM   15  C11 UNL     1      19.893   0.850  52.886  1.00  0.00     0.139 A 
HETATM   16  N4  UNL     1      20.332  -0.001  51.862  1.00  0.00    -0.255 N 
HETATM   17  C13 UNL     1      21.055   1.378  52.097  1.00  0.00     0.371 A 
HETATM   18  C12 UNL     1      21.307   0.292  51.117  1.00  0.00     0.077 A 
HETATM   19  N5  UNL     1      21.865   2.377  52.328  1.00  0.00    -0.404 NA
HETATM   20  C14 UNL     1      23.110   2.441  51.606  1.00  0.00     0.076 C 
ENDBRANCH   9  10
ENDBRANCH   7   9
ENDBRANCH   5   7
BRANCH   1  21
HETATM   21  N1  UNL     1      27.083   3.124  51.792  1.00  0.00    -0.323 N 
HETATM   22  C1  UNL     1      26.635   3.052  50.452  1.00  0.00     0.256 C 
HETATM   23  O1  UNL     1      26.507   1.892  49.992  1.00  0.00    -0.267 OA
HETATM   24  H1  UNL     1      27.252   3.986  52.356  1.00  0.00     0.169 HD
BRANCH  22  25
HETATM   25  C17 UNL     1      26.375   4.312  49.764  1.00  0.00     0.032 A 
HETATM   26  C18 UNL     1      25.231   5.082  49.780  1.00  0.00     0.017 A 
HETATM   27  C19 UNL     1      25.195   6.253  49.051  1.00  0.00     0.001 A 
HETATM   28  C20 UNL     1      26.272   6.698  48.293  1.00  0.00     0.000 A 
HETATM   29  C21 UNL     1      27.427   5.947  48.260  1.00  0.00     0.001 A 
HETATM   30  C22 UNL     1      27.454   4.764  49.001  1.00  0.00     0.017 A 
ENDBRANCH  22  25
ENDBRANCH   1  21
TORSDOF 5
ENDMDL
MODEL 8
REMARK VINA RESULT:      -8.4      2.394      4.367
REMARK  5 active torsions:
REMARK  status: ('A' for Active; 'I' for Inactive)
REMARK       I    between atoms: C1_2  and  N1_3 
REMARK    1  A    between atoms: C1_2  and  C17_23 
REMARK    2  A    between atoms: N1_3  and  C2_4 
REMARK    3  A    between atoms: C6_8  and  N2_9 
REMARK    4  A    between atoms: N2_9  and  C7_10 
REMARK    5  A    between atoms: C7_10  and  N3_11 
ROOT
HETATM    1  C2  UNL     1      25.970   5.590  49.761  1.00  0.00     0.037 A 
HETATM    2  C3  UNL     1      25.210   6.562  50.393  1.00  0.00     0.029 A 
HETATM    3  C4  UNL     1      24.050   6.177  51.034  1.00  0.00     0.004 A 
HETATM    4  C5  UNL     1      23.603   4.864  51.078  1.00  0.00     0.029 A 
HETATM    5  C6  UNL     1      24.377   3.915  50.441  1.00  0.00     0.031 A 
HETATM    6  C16 UNL     1      25.542   4.258  49.790  1.00  0.00     0.058 A 
ENDROOT
BRANCH   5   7
HETATM    7  N2  UNL     1      23.983   2.548  50.444  1.00  0.00    -0.372 N 
HETATM    8  H5  UNL     1      23.600   2.085  49.615  1.00  0.00     0.161 HD
BRANCH   7   9
HETATM    9  C7  UNL     1      24.108   1.733  51.643  1.00  0.00     0.271 C 
BRANCH   9  10
HETATM   10  N3  UNL     1      25.259   2.024  52.425  1.00  0.00    -0.270 NA
HETATM   11  C8  UNL     1      25.675   1.292  53.438  1.00  0.00     0.054 C 
HETATM   12  C9  UNL     1      26.797   2.242  53.619  1.00  0.00     0.040 C 
HETATM   13  C15 UNL     1      24.858   0.084  53.787  1.00  0.00     0.047 C 
HETATM   14  C10 UNL     1      28.028   1.753  53.485  1.00  0.00    -0.026 C 
HETATM   15  C11 UNL     1      28.374   0.708  54.242  1.00  0.00     0.139 A 
HETATM   16  N4  UNL     1      28.173  -0.051  53.081  1.00  0.00    -0.255 N 
HETATM   17  C13 UNL     1      27.165  -0.179  54.284  1.00  0.00     0.371 A 
HETATM   18  C12 UNL     1      27.194  -0.836  52.954  1.00  0.00     0.077 A 
HETATM   19  N5  UNL     1      26.152  -0.209  55.109  1.00  0.00    -0.404 NA
HETATM   20  C14 UNL     1      24.957  -0.909  54.713  1.00  0.00     0.076 C 
ENDBRANCH   9  10
ENDBRANCH   7   9
ENDBRANCH   5   7
BRANCH   1  21
HETATM   21  N1  UNL     1      27.185   5.844  49.064  1.00  0.00    -0.323 N 
HETATM   22  C1  UNL     1      27.625   6.822  48.141  1.00  0.00     0.256 C 
HETATM   23  O1  UNL     1      26.774   7.691  47.836  1.00  0.00    -0.267 OA
HETATM   24  H1  UNL     1      27.734   5.043  49.444  1.00  0.00     0.169 HD
BRANCH  22  25
HETATM   25  C17 UNL     1      28.997   6.714  47.654  1.00  0.00     0.032 A 
HETATM   26  C18 UNL     1      29.684   7.570  46.820  1.00  0.00     0.017 A 
HETATM   27  C19 UNL     1      30.989   7.278  46.480  1.00  0.00     0.001 A 
HETATM   28  C20 UNL     1      31.651   6.147  46.948  1.00  0.00     0.000 A 
HETATM   29  C21 UNL     1      30.987   5.277  47.784  1.00  0.00     0.001 A 
HETATM   30  C22 UNL     1      29.666   5.581  48.121  1.00  0.00     0.017 A 
ENDBRANCH  22  25
ENDBRANCH   1  21
TORSDOF 5
ENDMDL
MODEL 9
REMARK VINA RESULT:      -8.3      2.285      6.274
REMARK  5 active torsions:
REMARK  status: ('A' for Active; 'I' for Inactive)
REMARK       I    between atoms: C1_2  and  N1_3 
REMARK    1  A    between atoms: C1_2  and  C17_23 
REMARK    2  A    between atoms: N1_3  and  C2_4 
REMARK    3  A    between atoms: C6_8  and  N2_9 
REMARK    4  A    between atoms: N2_9  and  C7_10 
REMARK    5  A    between atoms: C7_10  and  N3_11 
ROOT
HETATM    1  C2  UNL     1      26.090   2.004  51.602  1.00  0.00     0.037 A 
HETATM    2  C3  UNL     1      27.000   1.011  51.934  1.00  0.00     0.029 A 
HETATM    3  C4  UNL     1      26.576  -0.031  52.734  1.00  0.00     0.004 A 
HETATM    4  C5  UNL     1      25.283  -0.137  53.226  1.00  0.00     0.029 A 
HETATM    5  C6  UNL     1      24.396   0.864  52.883  1.00  0.00     0.031 A 
HETATM    6  C16 UNL     1      24.780   1.921  52.086  1.00  0.00     0.058 A 
ENDROOT
BRANCH   5   7
HETATM    7  N2  UNL     1      23.053   0.823  53.350  1.00  0.00    -0.372 N 
HETATM    8  H5  UNL     1      22.741   1.349  54.171  1.00  0.00     0.161 HD
BRANCH   7   9
HETATM    9  C7  UNL     1      22.046   0.020  52.673  1.00  0.00     0.271 C 
BRANCH   9  10
HETATM   10  N3  UNL     1      21.816   0.398  51.322  1.00  0.00    -0.270 NA
HETATM   11  C8  UNL     1      20.623   0.512  50.775  1.00  0.00     0.054 C 
HETATM   12  C9  UNL     1      21.281   0.899  49.505  1.00  0.00     0.040 C 
HETATM   13  C15 UNL     1      19.441   0.202  51.644  1.00  0.00     0.047 C 
HETATM   14  C10 UNL     1      21.000   2.109  49.025  1.00  0.00    -0.026 C 
HETATM   15  C11 UNL     1      19.718   2.424  48.825  1.00  0.00     0.139 A 
HETATM   16  N4  UNL     1      19.831   3.153  50.016  1.00  0.00    -0.255 N 
HETATM   17  C13 UNL     1      18.971   1.834  49.985  1.00  0.00     0.371 A 
HETATM   18  C12 UNL     1      19.273   2.783  51.085  1.00  0.00     0.077 A 
HETATM   19  N5  UNL     1      18.420   0.660  50.142  1.00  0.00    -0.404 NA
HETATM   20  C14 UNL     1      18.091   0.222  51.474  1.00  0.00     0.076 C 
ENDBRANCH   9  10
ENDBRANCH   7   9
ENDBRANCH   5   7
BRANCH   1  21
HETATM   21  N1  UNL     1      26.389   3.132  50.788  1.00  0.00    -0.323 N 
HETATM   22  C1  UNL     1      25.774   3.757  49.677  1.00  0.00     0.256 C 
HETATM   23  O1  UNL     1      24.710   3.221  49.284  1.00  0.00    -0.267 OA
HETATM   24  H1  UNL     1      27.272   3.418  51.264  1.00  0.00     0.169 HD
BRANCH  22  25
HETATM   25  C17 UNL     1      26.433   4.934  49.122  1.00  0.00     0.032 A 
HETATM   26  C18 UNL     1      25.919   6.200  48.934  1.00  0.00     0.017 A 
HETATM   27  C19 UNL     1      26.722   7.180  48.388  1.00  0.00     0.001 A 
HETATM   28  C20 UNL     1      28.042   6.947  48.014  1.00  0.00     0.000 A 
HETATM   29  C21 UNL     1      28.579   5.691  48.192  1.00  0.00     0.001 A 
HETATM   30  C22 UNL     1      27.758   4.706  48.745  1.00  0.00     0.017 A 
ENDBRANCH  22  25
ENDBRANCH   1  21
TORSDOF 5
ENDMDL
