MODEL 1
REMARK VINA RESULT:      -9.6      0.000      0.000
REMARK  2 active torsions:
REMARK  status: ('A' for Active; 'I' for Inactive)
REMARK    1  A    between atoms: C8_10  and  N3_11 
REMARK    2  A    between atoms: N3_11  and  C9_12 
ROOT
HETATM    1  C1  UNL     1      17.724  -0.032  50.938  1.00  0.00     0.045 C 
HETATM    2  C2  UNL     1      18.977   0.463  51.615  1.00  0.00    -0.064 C 
HETATM    3  C3  UNL     1      19.937  -0.412  52.002  1.00  0.00     0.036 C 
HETATM    4  C4  UNL     1      21.267  -0.351  52.688  1.00  0.00     0.065 A 
HETATM    5  N1  UNL     1      21.034  -1.146  53.747  1.00  0.00    -0.259 NA
HETATM    6  C5  UNL     1      21.904  -1.429  54.732  1.00  0.00     0.142 A 
HETATM    7  C6  UNL     1      23.145  -0.845  54.635  1.00  0.00     0.089 A 
HETATM    8  C7  UNL     1      24.115  -1.114  55.662  1.00  0.00     0.103 C 
HETATM    9  N2  UNL     1      24.903  -1.326  56.484  1.00  0.00    -0.191 NA
HETATM   10  C8  UNL     1      23.373  -0.033  53.545  1.00  0.00     0.064 A 
HETATM   11  C15 UNL     1      22.488   0.261  52.535  1.00  0.00     0.003 A 
HETATM   12  C16 UNL     1      23.072   1.153  51.535  1.00  0.00     0.088 C 
HETATM   13  C17 UNL     1      22.934   2.582  51.888  1.00  0.00     0.025 C 
HETATM   14  C18 UNL     1      23.382   3.763  52.183  1.00  0.00     0.097 C 
HETATM   15 CL2  UNL     1      23.068   5.421  52.592  1.00  0.00    -0.096 Cl
HETATM   16  C19 UNL     1      21.530   3.025  51.890  1.00  0.00     0.248 C 
HETATM   17  O1  UNL     1      20.978   4.145  52.057  1.00  0.00    -0.268 OA
HETATM   18  N4  UNL     1      20.223   2.484  51.722  1.00  0.00    -0.353 N 
HETATM   19  C20 UNL     1      18.890   1.948  51.554  1.00  0.00     0.156 C 
HETATM   20  H13 UNL     1      20.800   1.653  51.559  1.00  0.00     0.163 HD
ENDROOT
BRANCH  10  21
HETATM   21  N3  UNL     1      24.697   0.507  53.553  1.00  0.00    -0.354 N 
HETATM   22  H6  UNL     1      24.488   1.538  53.665  1.00  0.00     0.166 HD
BRANCH  21  23
HETATM   23  C9  UNL     1      26.015   0.058  53.462  1.00  0.00     0.034 A 
HETATM   24  C10 UNL     1      26.301  -1.149  52.855  1.00  0.00     0.032 A 
HETATM   25  C11 UNL     1      27.634  -1.475  52.839  1.00  0.00     0.046 A 
HETATM   26  C12 UNL     1      28.686  -0.744  53.351  1.00  0.00     0.138 A 
HETATM   27  F1  UNL     1      29.962  -1.205  53.257  1.00  0.00    -0.204 F 
HETATM   28  C13 UNL     1      28.354   0.454  53.949  1.00  0.00     0.074 A 
HETATM   29 CL1  UNL     1      29.670   1.404  54.609  1.00  0.00    -0.081 Cl
HETATM   30  C14 UNL     1      27.036   0.846  54.002  1.00  0.00     0.056 A 
ENDBRANCH  21  23
ENDBRANCH  10  21
TORSDOF 2
ENDMDL
MODEL 2
REMARK VINA RESULT:      -9.3      3.679      6.025
REMARK  2 active torsions:
REMARK  status: ('A' for Active; 'I' for Inactive)
REMARK    1  A    between atoms: C8_10  and  N3_11 
REMARK    2  A    between atoms: N3_11  and  C9_12 
ROOT
HETATM    1  C1  UNL     1      20.814  -1.482  54.209  1.00  0.00     0.045 C 
HETATM    2  C2  UNL     1      21.784  -0.603  53.462  1.00  0.00    -0.064 C 
HETATM    3  C3  UNL     1      21.345   0.502  52.811  1.00  0.00     0.036 C 
HETATM    4  C4  UNL     1      21.939   1.593  51.974  1.00  0.00     0.065 A 
HETATM    5  N1  UNL     1      21.234   1.442  50.838  1.00  0.00    -0.259 NA
HETATM    6  C5  UNL     1      21.381   2.163  49.713  1.00  0.00     0.142 A 
HETATM    7  C6  UNL     1      22.345   3.144  49.739  1.00  0.00     0.089 A 
HETATM    8  C7  UNL     1      22.545   3.945  48.562  1.00  0.00     0.103 C 
HETATM    9  N2  UNL     1      22.711   4.596  47.619  1.00  0.00    -0.191 NA
HETATM   10  C8  UNL     1      23.061   3.289  50.908  1.00  0.00     0.064 A 
HETATM   11  C15 UNL     1      22.915   2.555  52.061  1.00  0.00     0.003 A 
HETATM   12  C16 UNL     1      23.839   2.989  53.108  1.00  0.00     0.088 C 
HETATM   13  C17 UNL     1      25.161   2.334  53.017  1.00  0.00     0.025 C 
HETATM   14  C18 UNL     1      26.449   2.313  52.864  1.00  0.00     0.097 C 
HETATM   15 CL2  UNL     1      27.929   1.409  52.780  1.00  0.00    -0.096 Cl
HETATM   16  C19 UNL     1      25.086   0.886  53.276  1.00  0.00     0.248 C 
HETATM   17  O1  UNL     1      25.957  -0.020  53.371  1.00  0.00    -0.268 OA
HETATM   18  N4  UNL     1      24.111  -0.121  53.524  1.00  0.00    -0.353 N 
HETATM   19  C20 UNL     1      23.130  -1.154  53.778  1.00  0.00     0.156 C 
HETATM   20  H13 UNL     1      23.519   0.714  53.470  1.00  0.00     0.163 HD
ENDROOT
BRANCH  10  21
HETATM   21  N3  UNL     1      24.024   4.341  50.813  1.00  0.00    -0.354 N 
HETATM   22  H6  UNL     1      23.663   5.005  51.553  1.00  0.00     0.166 HD
BRANCH  21  23
HETATM   23  C9  UNL     1      25.167   4.655  50.077  1.00  0.00     0.034 A 
HETATM   24  C10 UNL     1      26.052   3.662  49.704  1.00  0.00     0.032 A 
HETATM   25  C11 UNL     1      27.137   4.107  48.991  1.00  0.00     0.046 A 
HETATM   26  C12 UNL     1      27.428   5.404  48.621  1.00  0.00     0.138 A 
HETATM   27  F1  UNL     1      28.552   5.688  47.910  1.00  0.00    -0.204 F 
HETATM   28  C13 UNL     1      26.518   6.363  49.016  1.00  0.00     0.074 A 
HETATM   29 CL1  UNL     1      26.862   8.019  48.561  1.00  0.00    -0.081 Cl
HETATM   30  C14 UNL     1      25.405   5.990  49.734  1.00  0.00     0.056 A 
ENDBRANCH  21  23
ENDBRANCH  10  21
TORSDOF 2
ENDMDL
MODEL 3
REMARK VINA RESULT:      -9.2      2.958      4.565
REMARK  2 active torsions:
REMARK  status: ('A' for Active; 'I' for Inactive)
REMARK    1  A    between atoms: C8_10  and  N3_11 
REMARK    2  A    between atoms: N3_11  and  C9_12 
ROOT
HETATM    1  C1  UNL     1      16.179  -1.438  52.346  1.00  0.00     0.045 C 
HETATM    2  C2  UNL     1      17.639  -1.069  52.408  1.00  0.00    -0.064 C 
HETATM    3  C3  UNL     1      18.090   0.047  51.785  1.00  0.00     0.036 C 
HETATM    4  C4  UNL     1      19.402   0.743  51.590  1.00  0.00     0.065 A 
HETATM    5  N1  UNL     1      19.478   0.751  50.247  1.00  0.00    -0.259 NA
HETATM    6  C5  UNL     1      20.492   1.245  49.514  1.00  0.00     0.142 A 
HETATM    7  C6  UNL     1      21.542   1.789  50.217  1.00  0.00     0.089 A 
HETATM    8  C7  UNL     1      22.653   2.332  49.482  1.00  0.00     0.103 C 
HETATM    9  N2  UNL     1      23.551   2.773  48.899  1.00  0.00    -0.191 NA
HETATM   10  C8  UNL     1      21.452   1.776  51.591  1.00  0.00     0.064 A 
HETATM   11  C15 UNL     1      20.419   1.272  52.346  1.00  0.00     0.003 A 
HETATM   12  C16 UNL     1      20.657   1.434  53.779  1.00  0.00     0.088 C 
HETATM   13  C17 UNL     1      21.443   0.325  54.361  1.00  0.00     0.025 C 
HETATM   14  C18 UNL     1      22.470  -0.193  54.960  1.00  0.00     0.097 C 
HETATM   15 CL2  UNL     1      23.278  -1.589  55.602  1.00  0.00    -0.096 Cl
HETATM   16  C19 UNL     1      20.715  -0.954  54.328  1.00  0.00     0.248 C 
HETATM   17  O1  UNL     1      20.971  -2.105  54.771  1.00  0.00    -0.268 OA
HETATM   18  N4  UNL     1      19.489  -1.491  53.840  1.00  0.00    -0.353 N 
HETATM   19  C20 UNL     1      18.248  -2.049  53.349  1.00  0.00     0.156 C 
HETATM   20  H13 UNL     1      19.388  -0.505  53.577  1.00  0.00     0.163 HD
ENDROOT
BRANCH  10  21
HETATM   21  N3  UNL     1      22.597   2.374  52.204  1.00  0.00    -0.354 N 
HETATM   22  H6  UNL     1      22.251   3.365  52.340  1.00  0.00     0.166 HD
BRANCH  21  23
HETATM   23  C9  UNL     1      23.882   2.011  52.607  1.00  0.00     0.034 A 
HETATM   24  C10 UNL     1      24.629   2.858  53.403  1.00  0.00     0.032 A 
HETATM   25  C11 UNL     1      25.877   2.384  53.722  1.00  0.00     0.046 A 
HETATM   26  C12 UNL     1      26.446   1.186  53.341  1.00  0.00     0.138 A 
HETATM   27  F1  UNL     1      27.703   0.856  53.741  1.00  0.00    -0.204 F 
HETATM   28  C13 UNL     1      25.665   0.373  52.546  1.00  0.00     0.074 A 
HETATM   29 CL1  UNL     1      26.362  -1.155  52.046  1.00  0.00    -0.081 Cl
HETATM   30  C14 UNL     1      24.402   0.783  52.186  1.00  0.00     0.056 A 
ENDBRANCH  21  23
ENDBRANCH  10  21
TORSDOF 2
ENDMDL
MODEL 4
REMARK VINA RESULT:      -9.0      3.246      4.262
REMARK  2 active torsions:
REMARK  status: ('A' for Active; 'I' for Inactive)
REMARK    1  A    between atoms: C8_10  and  N3_11 
REMARK    2  A    between atoms: N3_11  and  C9_12 
ROOT
HETATM    1  C1  UNL     1      21.501   3.872  44.923  1.00  0.00     0.045 C 
HETATM    2  C2  UNL     1      21.846   3.894  46.391  1.00  0.00    -0.064 C 
HETATM    3  C3  UNL     1      22.044   2.734  47.064  1.00  0.00     0.036 C 
HETATM    4  C4  UNL     1      22.374   2.319  48.465  1.00  0.00     0.065 A 
HETATM    5  N1  UNL     1      21.313   1.542  48.747  1.00  0.00    -0.259 NA
HETATM    6  C5  UNL     1      21.077   0.916  49.914  1.00  0.00     0.142 A 
HETATM    7  C6  UNL     1      22.017   1.096  50.902  1.00  0.00     0.089 A 
HETATM    8  C7  UNL     1      21.814   0.449  52.170  1.00  0.00     0.103 C 
HETATM    9  N2  UNL     1      21.661  -0.069  53.194  1.00  0.00    -0.191 NA
HETATM   10  C8  UNL     1      23.100   1.893  50.601  1.00  0.00     0.064 A 
HETATM   11  C15 UNL     1      23.346   2.535  49.411  1.00  0.00     0.003 A 
HETATM   12  C16 UNL     1      24.598   3.290  49.443  1.00  0.00     0.088 C 
HETATM   13  C17 UNL     1      24.434   4.654  49.990  1.00  0.00     0.025 C 
HETATM   14  C18 UNL     1      24.652   5.607  50.842  1.00  0.00     0.097 C 
HETATM   15 CL2  UNL     1      24.364   7.237  51.367  1.00  0.00    -0.096 Cl
HETATM   16  C19 UNL     1      23.601   5.506  49.126  1.00  0.00     0.248 C 
HETATM   17  O1  UNL     1      23.274   6.722  49.169  1.00  0.00    -0.268 OA
HETATM   18  N4  UNL     1      22.827   5.413  47.934  1.00  0.00    -0.353 N 
HETATM   19  C20 UNL     1      22.037   5.332  46.724  1.00  0.00     0.156 C 
HETATM   20  H13 UNL     1      23.205   4.462  47.995  1.00  0.00     0.163 HD
ENDROOT
BRANCH  10  21
HETATM   21  N3  UNL     1      24.006   1.994  51.702  1.00  0.00    -0.354 N 
HETATM   22  H6  UNL     1      23.551   2.770  52.260  1.00  0.00     0.166 HD
BRANCH  21  23
HETATM   23  C9  UNL     1      25.184   1.396  52.152  1.00  0.00     0.034 A 
HETATM   24  C10 UNL     1      25.300   0.020  52.185  1.00  0.00     0.032 A 
HETATM   25  C11 UNL     1      26.505  -0.437  52.655  1.00  0.00     0.046 A 
HETATM   26  C12 UNL     1      27.581   0.313  53.084  1.00  0.00     0.138 A 
HETATM   27  F1  UNL     1      28.717  -0.292  53.525  1.00  0.00    -0.204 F 
HETATM   28  C13 UNL     1      27.421   1.682  53.034  1.00  0.00     0.074 A 
HETATM   29 CL1  UNL     1      28.771   2.660  53.574  1.00  0.00    -0.081 Cl
HETATM   30  C14 UNL     1      26.238   2.213  52.574  1.00  0.00     0.056 A 
ENDBRANCH  21  23
ENDBRANCH  10  21
TORSDOF 2
ENDMDL
MODEL 5
REMARK VINA RESULT:      -8.5      3.576      6.919
REMARK  2 active torsions:
REMARK  status: ('A' for Active; 'I' for Inactive)
REMARK    1  A    between atoms: C8_10  and  N3_11 
REMARK    2  A    between atoms: N3_11  and  C9_12 
ROOT
HETATM    1  C1  UNL     1      28.189  -0.157  54.610  1.00  0.00     0.045 C 
HETATM    2  C2  UNL     1      27.111   0.403  53.718  1.00  0.00    -0.064 C 
HETATM    3  C3  UNL     1      25.808   0.315  54.082  1.00  0.00     0.036 C 
HETATM    4  C4  UNL     1      24.479   0.708  53.513  1.00  0.00     0.065 A 
HETATM    5  N1  UNL     1      23.870  -0.490  53.462  1.00  0.00    -0.259 NA
HETATM    6  C5  UNL     1      22.631  -0.729  52.995  1.00  0.00     0.142 A 
HETATM    7  C6  UNL     1      21.934   0.361  52.530  1.00  0.00     0.089 A 
HETATM    8  C7  UNL     1      20.605   0.161  52.019  1.00  0.00     0.103 C 
HETATM    9  N2  UNL     1      19.533   0.010  51.607  1.00  0.00    -0.191 NA
HETATM   10  C8  UNL     1      22.569   1.583  52.587  1.00  0.00     0.064 A 
HETATM   11  C15 UNL     1      23.834   1.834  53.063  1.00  0.00     0.003 A 
HETATM   12  C16 UNL     1      24.180   3.252  52.978  1.00  0.00     0.088 C 
HETATM   13  C17 UNL     1      24.745   3.630  51.665  1.00  0.00     0.025 C 
HETATM   14  C18 UNL     1      24.763   4.278  50.542  1.00  0.00     0.097 C 
HETATM   15 CL2  UNL     1      25.541   4.624  49.029  1.00  0.00    -0.096 Cl
HETATM   16  C19 UNL     1      26.049   2.995  51.414  1.00  0.00     0.248 C 
HETATM   17  O1  UNL     1      26.892   3.094  50.482  1.00  0.00    -0.268 OA
HETATM   18  N4  UNL     1      26.932   2.056  52.019  1.00  0.00    -0.353 N 
HETATM   19  C20 UNL     1      27.837   1.102  52.623  1.00  0.00     0.156 C 
HETATM   20  H13 UNL     1      26.190   2.108  52.724  1.00  0.00     0.163 HD
ENDROOT
BRANCH  10  21
HETATM   21  N3  UNL     1      21.742   2.634  52.083  1.00  0.00    -0.354 N 
HETATM   22  H6  UNL     1      21.255   2.944  52.970  1.00  0.00     0.166 HD
BRANCH  21  23
HETATM   23  C9  UNL     1      21.464   3.261  50.868  1.00  0.00     0.034 A 
HETATM   24  C10 UNL     1      21.668   2.595  49.675  1.00  0.00     0.032 A 
HETATM   25  C11 UNL     1      21.362   3.327  48.556  1.00  0.00     0.046 A 
HETATM   26  C12 UNL     1      20.886   4.621  48.500  1.00  0.00     0.138 A 
HETATM   27  F1  UNL     1      20.629   5.215  47.304  1.00  0.00    -0.204 F 
HETATM   28  C13 UNL     1      20.698   5.249  49.714  1.00  0.00     0.074 A 
HETATM   29 CL1  UNL     1      20.094   6.893  49.674  1.00  0.00    -0.081 Cl
HETATM   30  C14 UNL     1      20.984   4.575  50.880  1.00  0.00     0.056 A 
ENDBRANCH  21  23
ENDBRANCH  10  21
TORSDOF 2
ENDMDL
MODEL 6
REMARK VINA RESULT:      -8.5      3.995      6.774
REMARK  2 active torsions:
REMARK  status: ('A' for Active; 'I' for Inactive)
REMARK    1  A    between atoms: C8_10  and  N3_11 
REMARK    2  A    between atoms: N3_11  and  C9_12 
ROOT
HETATM    1  C1  UNL     1      20.821  -1.623  54.551  1.00  0.00     0.045 C 
HETATM    2  C2  UNL     1      21.733  -0.852  53.631  1.00  0.00    -0.064 C 
HETATM    3  C3  UNL     1      21.219   0.025  52.735  1.00  0.00     0.036 C 
HETATM    4  C4  UNL     1      21.740   0.944  51.673  1.00  0.00     0.065 A 
HETATM    5  N1  UNL     1      21.091   0.467  50.595  1.00  0.00    -0.259 NA
HETATM    6  C5  UNL     1      21.211   0.918  49.334  1.00  0.00     0.142 A 
HETATM    7  C6  UNL     1      22.081   1.966  49.142  1.00  0.00     0.089 A 
HETATM    8  C7  UNL     1      22.247   2.487  47.812  1.00  0.00     0.103 C 
HETATM    9  N2  UNL     1      22.387   2.915  46.746  1.00  0.00    -0.191 NA
HETATM   10  C8  UNL     1      22.740   2.446  50.253  1.00  0.00     0.064 A 
HETATM   11  C15 UNL     1      22.622   1.989  51.544  1.00  0.00     0.003 A 
HETATM   12  C16 UNL     1      23.466   2.740  52.471  1.00  0.00     0.088 C 
HETATM   13  C17 UNL     1      24.845   2.211  52.553  1.00  0.00     0.025 C 
HETATM   14  C18 UNL     1      26.133   2.279  52.425  1.00  0.00     0.097 C 
HETATM   15 CL2  UNL     1      27.691   1.526  52.573  1.00  0.00    -0.096 Cl
HETATM   16  C19 UNL     1      24.892   0.862  53.142  1.00  0.00     0.248 C 
HETATM   17  O1  UNL     1      25.837   0.091  53.458  1.00  0.00    -0.268 OA
HETATM   18  N4  UNL     1      24.004  -0.148  53.608  1.00  0.00    -0.353 N 
HETATM   19  C20 UNL     1      23.112  -1.183  54.084  1.00  0.00     0.156 C 
HETATM   20  H13 UNL     1      23.341   0.591  53.352  1.00  0.00     0.163 HD
ENDROOT
BRANCH  10  21
HETATM   21  N3  UNL     1      23.607   3.534  49.926  1.00  0.00    -0.354 N 
HETATM   22  H6  UNL     1      24.523   3.023  49.791  1.00  0.00     0.166 HD
BRANCH  21  23
HETATM   23  C9  UNL     1      23.539   4.919  49.766  1.00  0.00     0.034 A 
HETATM   24  C10 UNL     1      22.630   5.663  50.492  1.00  0.00     0.032 A 
HETATM   25  C11 UNL     1      22.664   7.010  50.234  1.00  0.00     0.046 A 
HETATM   26  C12 UNL     1      23.486   7.679  49.350  1.00  0.00     0.138 A 
HETATM   27  F1  UNL     1      23.398   9.028  49.204  1.00  0.00    -0.204 F 
HETATM   28  C13 UNL     1      24.377   6.896  48.645  1.00  0.00     0.074 A 
HETATM   29 CL1  UNL     1      25.434   7.718  47.515  1.00  0.00    -0.081 Cl
HETATM   30  C14 UNL     1      24.400   5.536  48.853  1.00  0.00     0.056 A 
ENDBRANCH  21  23
ENDBRANCH  10  21
TORSDOF 2
ENDMDL
MODEL 7
REMARK VINA RESULT:      -8.4      4.430      7.725
REMARK  2 active torsions:
REMARK  status: ('A' for Active; 'I' for Inactive)
REMARK    1  A    between atoms: C8_10  and  N3_11 
REMARK    2  A    between atoms: N3_11  and  C9_12 
ROOT
HETATM    1  C1  UNL     1      25.281  -0.798  54.419  1.00  0.00     0.045 C 
HETATM    2  C2  UNL     1      24.131  -0.041  53.805  1.00  0.00    -0.064 C 
HETATM    3  C3  UNL     1      24.365   1.039  53.020  1.00  0.00     0.036 C 
HETATM    4  C4  UNL     1      23.553   2.041  52.258  1.00  0.00     0.065 A 
HETATM    5  N1  UNL     1      23.972   3.184  52.832  1.00  0.00    -0.259 NA
HETATM    6  C5  UNL     1      23.537   4.422  52.541  1.00  0.00     0.142 A 
HETATM    7  C6  UNL     1      22.574   4.516  51.563  1.00  0.00     0.089 A 
HETATM    8  C7  UNL     1      22.074   5.817  51.212  1.00  0.00     0.103 C 
HETATM    9  N2  UNL     1      21.666   6.861  50.921  1.00  0.00    -0.191 NA
HETATM   10  C8  UNL     1      22.154   3.339  50.982  1.00  0.00     0.064 A 
HETATM   11  C15 UNL     1      22.594   2.070  51.275  1.00  0.00     0.003 A 
HETATM   12  C16 UNL     1      21.933   1.057  50.455  1.00  0.00     0.088 C 
HETATM   13  C17 UNL     1      20.650   0.599  51.030  1.00  0.00     0.025 C 
HETATM   14  C18 UNL     1      19.364   0.428  51.033  1.00  0.00     0.097 C 
HETATM   15 CL2  UNL     1      17.938  -0.161  51.830  1.00  0.00    -0.096 Cl
HETATM   16  C19 UNL     1      20.832  -0.125  52.299  1.00  0.00     0.248 C 
HETATM   17  O1  UNL     1      20.040  -0.734  53.067  1.00  0.00    -0.268 OA
HETATM   18  N4  UNL     1      21.872  -0.475  53.207  1.00  0.00    -0.353 N 
HETATM   19  C20 UNL     1      22.919  -0.837  54.138  1.00  0.00     0.156 C 
HETATM   20  H13 UNL     1      22.406   0.006  52.476  1.00  0.00     0.163 HD
ENDROOT
BRANCH  10  21
HETATM   21  N3  UNL     1      21.162   3.568  49.979  1.00  0.00    -0.354 N 
HETATM   22  H6  UNL     1      20.298   3.685  50.579  1.00  0.00     0.166 HD
BRANCH  21  23
HETATM   23  C9  UNL     1      21.075   3.661  48.589  1.00  0.00     0.034 A 
HETATM   24  C10 UNL     1      22.185   4.000  47.841  1.00  0.00     0.032 A 
HETATM   25  C11 UNL     1      21.961   4.063  46.488  1.00  0.00     0.046 A 
HETATM   26  C12 UNL     1      20.778   3.830  45.819  1.00  0.00     0.138 A 
HETATM   27  F1  UNL     1      20.715   3.933  44.464  1.00  0.00    -0.204 F 
HETATM   28  C13 UNL     1      19.695   3.495  46.605  1.00  0.00     0.074 A 
HETATM   29 CL1  UNL     1      18.178   3.194  45.782  1.00  0.00    -0.081 Cl
HETATM   30  C14 UNL     1      19.845   3.413  47.971  1.00  0.00     0.056 A 
ENDBRANCH  21  23
ENDBRANCH  10  21
TORSDOF 2
ENDMDL
MODEL 8
REMARK VINA RESULT:      -8.3      4.377      8.223
REMARK  2 active torsions:
REMARK  status: ('A' for Active; 'I' for Inactive)
REMARK    1  A    between atoms: C8_10  and  N3_11 
REMARK    2  A    between atoms: N3_11  and  C9_12 
ROOT
HETATM    1  C1  UNL     1      26.131   3.251  49.770  1.00  0.00     0.045 C 
HETATM    2  C2  UNL     1      24.926   2.812  50.564  1.00  0.00    -0.064 C 
HETATM    3  C3  UNL     1      23.677   3.029  50.086  1.00  0.00     0.036 C 
HETATM    4  C4  UNL     1      22.269   2.779  50.535  1.00  0.00     0.065 A 
HETATM    5  N1  UNL     1      21.784   4.034  50.531  1.00  0.00    -0.259 NA
HETATM    6  C5  UNL     1      20.541   4.403  50.887  1.00  0.00     0.142 A 
HETATM    7  C6  UNL     1      19.697   3.394  51.289  1.00  0.00     0.089 A 
HETATM    8  C7  UNL     1      18.356   3.734  51.680  1.00  0.00     0.103 C 
HETATM    9  N2  UNL     1      17.273   3.998  51.995  1.00  0.00    -0.191 NA
HETATM   10  C8  UNL     1      20.205   2.114  51.288  1.00  0.00     0.064 A 
HETATM   11  C15 UNL     1      21.475   1.730  50.927  1.00  0.00     0.003 A 
HETATM   12  C16 UNL     1      21.665   0.285  51.041  1.00  0.00     0.088 C 
HETATM   13  C17 UNL     1      22.069  -0.137  52.400  1.00  0.00     0.025 C 
HETATM   14  C18 UNL     1      21.922  -0.773  53.520  1.00  0.00     0.097 C 
HETATM   15 CL2  UNL     1      22.524  -1.183  55.096  1.00  0.00    -0.096 Cl
HETATM   16  C19 UNL     1      23.405   0.363  52.765  1.00  0.00     0.248 C 
HETATM   17  O1  UNL     1      24.148   0.187  53.767  1.00  0.00    -0.268 OA
HETATM   18  N4  UNL     1      24.429   1.202  52.240  1.00  0.00    -0.353 N 
HETATM   19  C20 UNL     1      25.477   2.052  51.718  1.00  0.00     0.156 C 
HETATM   20  H13 UNL     1      23.751   1.219  51.472  1.00  0.00     0.163 HD
ENDROOT
BRANCH  10  21
HETATM   21  N3  UNL     1      19.233   1.157  51.717  1.00  0.00    -0.354 N 
HETATM   22  H6  UNL     1      19.520   1.025  52.727  1.00  0.00     0.166 HD
BRANCH  21  23
HETATM   23  C9  UNL     1      18.147   0.456  51.192  1.00  0.00     0.034 A 
HETATM   24  C10 UNL     1      17.782   0.620  49.870  1.00  0.00     0.032 A 
HETATM   25  C11 UNL     1      16.695  -0.122  49.485  1.00  0.00     0.046 A 
HETATM   26  C12 UNL     1      15.949  -0.989  50.257  1.00  0.00     0.138 A 
HETATM   27  F1  UNL     1      14.891  -1.657  49.726  1.00  0.00    -0.204 F 
HETATM   28  C13 UNL     1      16.348  -1.122  51.571  1.00  0.00     0.074 A 
HETATM   29 CL1  UNL     1      15.420  -2.216  52.577  1.00  0.00    -0.081 Cl
HETATM   30  C14 UNL     1      17.433  -0.408  52.029  1.00  0.00     0.056 A 
ENDBRANCH  21  23
ENDBRANCH  10  21
TORSDOF 2
ENDMDL
MODEL 9
REMARK VINA RESULT:      -8.2      3.685      4.826
REMARK  2 active torsions:
REMARK  status: ('A' for Active; 'I' for Inactive)
REMARK    1  A    between atoms: C8_10  and  N3_11 
REMARK    2  A    between atoms: N3_11  and  C9_12 
ROOT
HETATM    1  C1  UNL     1      17.421  -0.160  50.538  1.00  0.00     0.045 C 
HETATM    2  C2  UNL     1      18.611   0.766  50.527  1.00  0.00    -0.064 C 
HETATM    3  C3  UNL     1      19.820   0.329  50.956  1.00  0.00     0.036 C 
HETATM    4  C4  UNL     1      21.198   0.894  51.120  1.00  0.00     0.065 A 
HETATM    5  N1  UNL     1      21.389   0.698  52.437  1.00  0.00    -0.259 NA
HETATM    6  C5  UNL     1      22.478   1.053  53.141  1.00  0.00     0.142 A 
HETATM    7  C6  UNL     1      23.483   1.674  52.436  1.00  0.00     0.089 A 
HETATM    8  C7  UNL     1      24.671   2.075  53.141  1.00  0.00     0.103 C 
HETATM    9  N2  UNL     1      25.632   2.399  53.699  1.00  0.00    -0.191 NA
HETATM   10  C8  UNL     1      23.277   1.869  51.088  1.00  0.00     0.064 A 
HETATM   11  C15 UNL     1      22.166   1.508  50.363  1.00  0.00     0.003 A 
HETATM   12  C16 UNL     1      22.293   1.864  48.951  1.00  0.00     0.088 C 
HETATM   13  C17 UNL     1      21.865   3.250  48.665  1.00  0.00     0.025 C 
HETATM   14  C18 UNL     1      22.043   4.471  48.266  1.00  0.00     0.097 C 
HETATM   15 CL2  UNL     1      21.399   6.057  47.979  1.00  0.00    -0.096 Cl
HETATM   16  C19 UNL     1      20.422   3.445  48.886  1.00  0.00     0.248 C 
HETATM   17  O1  UNL     1      19.644   4.419  48.699  1.00  0.00    -0.268 OA
HETATM   18  N4  UNL     1      19.292   2.724  49.365  1.00  0.00    -0.353 N 
HETATM   19  C20 UNL     1      18.135   2.002  49.850  1.00  0.00     0.156 C 
HETATM   20  H13 UNL     1      20.020   2.005  49.421  1.00  0.00     0.163 HD
ENDROOT
BRANCH  10  21
HETATM   21  N3  UNL     1      24.392   2.513  50.469  1.00  0.00    -0.354 N 
HETATM   22  H6  UNL     1      24.922   1.676  50.098  1.00  0.00     0.166 HD
BRANCH  21  23
HETATM   23  C9  UNL     1      24.879   3.805  50.265  1.00  0.00     0.034 A 
HETATM   24  C10 UNL     1      24.235   4.890  50.826  1.00  0.00     0.032 A 
HETATM   25  C11 UNL     1      24.812   6.102  50.542  1.00  0.00     0.046 A 
HETATM   26  C12 UNL     1      25.935   6.342  49.777  1.00  0.00     0.138 A 
HETATM   27  F1  UNL     1      26.388   7.610  49.587  1.00  0.00    -0.204 F 
HETATM   28  C13 UNL     1      26.546   5.230  49.236  1.00  0.00     0.074 A 
HETATM   29 CL1  UNL     1      27.974   5.503  48.260  1.00  0.00    -0.081 Cl
HETATM   30  C14 UNL     1      26.022   3.980  49.479  1.00  0.00     0.056 A 
ENDBRANCH  21  23
ENDBRANCH  10  21
TORSDOF 2
ENDMDL
