MODEL 1
REMARK VINA RESULT:      -7.6      0.000      0.000
REMARK  3 active torsions:
REMARK  status: ('A' for Active; 'I' for Inactive)
REMARK    1  A    between atoms: O1_2  and  C2_3 
REMARK    2  A    between atoms: C6_9  and  N3_10 
REMARK    3  A    between atoms: N3_10  and  C7_11 
ROOT
HETATM    1  C2  UNL     1      21.133   0.555  52.487  1.00  0.00     0.087 A 
HETATM    2  C3  UNL     1      21.295  -0.151  53.667  1.00  0.00     0.070 A 
HETATM    3  C4  UNL     1      22.556  -0.462  54.138  1.00  0.00     0.075 A 
HETATM    4  N1  UNL     1      22.724  -1.147  55.283  1.00  0.00    -0.241 NA
HETATM    5  C5  UNL     1      23.972  -1.425  55.699  1.00  0.00     0.236 A 
HETATM    6  N2  UNL     1      25.043  -1.032  54.991  1.00  0.00    -0.224 NA
HETATM    7  C6  UNL     1      24.879  -0.347  53.845  1.00  0.00     0.141 A 
HETATM    8  C12 UNL     1      23.628  -0.027  53.360  1.00  0.00     0.040 A 
HETATM    9  C13 UNL     1      23.484   0.677  52.182  1.00  0.00     0.039 A 
HETATM   10  C14 UNL     1      22.212   0.975  51.734  1.00  0.00     0.045 A 
HETATM   11 BR1  UNL     1      22.065   1.950  50.102  1.00  0.00    -0.048 Br
ENDROOT
BRANCH   7  12
HETATM   12  N3  UNL     1      26.058   0.017  53.184  1.00  0.00    -0.342 N 
HETATM   13  H6  UNL     1      26.336   0.873  52.656  1.00  0.00     0.167 HD
BRANCH  12  14
HETATM   14  C7  UNL     1      27.177  -0.826  53.130  1.00  0.00     0.033 A 
HETATM   15  C8  UNL     1      27.328  -2.101  52.784  1.00  0.00     0.026 A 
HETATM   16  C9  UNL     1      28.727  -2.530  52.897  1.00  0.00    -0.000 A 
HETATM   17  C10 UNL     1      29.383  -1.461  53.321  1.00  0.00    -0.001 A 
HETATM   18  C11 UNL     1      28.489  -0.285  53.511  1.00  0.00     0.154 A 
HETATM   19 CL1  UNL     1      28.559   0.149  55.226  1.00  0.00    -0.114 Cl
ENDBRANCH  12  14
ENDBRANCH   7  12
BRANCH   1  20
HETATM   20  O1  UNL     1      19.887   0.886  51.984  1.00  0.00    -0.355 OA
HETATM   21  C1  UNL     1      18.875  -0.107  51.927  1.00  0.00     0.210 C 
ENDBRANCH   1  20
TORSDOF 3
ENDMDL
MODEL 2
REMARK VINA RESULT:      -7.6      2.276      3.316
REMARK  3 active torsions:
REMARK  status: ('A' for Active; 'I' for Inactive)
REMARK    1  A    between atoms: O1_2  and  C2_3 
REMARK    2  A    between atoms: C6_9  and  N3_10 
REMARK    3  A    between atoms: N3_10  and  C7_11 
ROOT
HETATM    1  C2  UNL     1      21.913   0.336  52.213  1.00  0.00     0.087 A 
HETATM    2  C3  UNL     1      22.487   1.217  51.312  1.00  0.00     0.070 A 
HETATM    3  C4  UNL     1      23.776   1.679  51.498  1.00  0.00     0.075 A 
HETATM    4  N1  UNL     1      24.342   2.534  50.629  1.00  0.00    -0.241 NA
HETATM    5  C5  UNL     1      25.599   2.955  50.855  1.00  0.00     0.236 A 
HETATM    6  N2  UNL     1      26.290   2.537  51.927  1.00  0.00    -0.224 NA
HETATM    7  C6  UNL     1      25.726   1.681  52.799  1.00  0.00     0.141 A 
HETATM    8  C12 UNL     1      24.441   1.209  52.630  1.00  0.00     0.040 A 
HETATM    9  C13 UNL     1      23.883   0.331  53.537  1.00  0.00     0.039 A 
HETATM   10  C14 UNL     1      22.593  -0.115  53.327  1.00  0.00     0.045 A 
HETATM   11 BR1  UNL     1      21.867  -1.327  54.608  1.00  0.00    -0.048 Br
ENDROOT
BRANCH   7  12
HETATM   12  N3  UNL     1      26.529   1.306  53.882  1.00  0.00    -0.342 N 
HETATM   13  H6  UNL     1      26.431   1.438  54.913  1.00  0.00     0.167 HD
BRANCH  12  14
HETATM   14  C7  UNL     1      27.734   0.610  53.716  1.00  0.00     0.033 A 
HETATM   15  C8  UNL     1      29.000   1.008  53.629  1.00  0.00     0.026 A 
HETATM   16  C9  UNL     1      29.914  -0.126  53.456  1.00  0.00    -0.000 A 
HETATM   17  C10 UNL     1      29.137  -1.197  53.444  1.00  0.00    -0.001 A 
HETATM   18  C11 UNL     1      27.696  -0.855  53.604  1.00  0.00     0.154 A 
HETATM   19 CL1  UNL     1      26.867  -1.391  52.135  1.00  0.00    -0.114 Cl
ENDBRANCH  12  14
ENDBRANCH   7  12
BRANCH   1  20
HETATM   20  O1  UNL     1      20.626  -0.149  52.061  1.00  0.00    -0.355 OA
HETATM   21  C1  UNL     1      19.681   0.608  51.322  1.00  0.00     0.210 C 
ENDBRANCH   1  20
TORSDOF 3
ENDMDL
MODEL 3
REMARK VINA RESULT:      -7.5      1.255      1.754
REMARK  3 active torsions:
REMARK  status: ('A' for Active; 'I' for Inactive)
REMARK    1  A    between atoms: O1_2  and  C2_3 
REMARK    2  A    between atoms: C6_9  and  N3_10 
REMARK    3  A    between atoms: N3_10  and  C7_11 
ROOT
HETATM    1  C2  UNL     1      21.358   0.679  52.565  1.00  0.00     0.087 A 
HETATM    2  C3  UNL     1      21.563   0.005  53.758  1.00  0.00     0.070 A 
HETATM    3  C4  UNL     1      22.831  -0.389  54.137  1.00  0.00     0.075 A 
HETATM    4  N1  UNL     1      23.041  -1.044  55.293  1.00  0.00    -0.241 NA
HETATM    5  C5  UNL     1      24.294  -1.407  55.618  1.00  0.00     0.236 A 
HETATM    6  N2  UNL     1      25.330  -1.126  54.811  1.00  0.00    -0.224 NA
HETATM    7  C6  UNL     1      25.124  -0.472  53.654  1.00  0.00     0.141 A 
HETATM    8  C12 UNL     1      23.864  -0.070  53.258  1.00  0.00     0.040 A 
HETATM    9  C13 UNL     1      23.677   0.601  52.067  1.00  0.00     0.039 A 
HETATM   10  C14 UNL     1      22.399   0.984  51.711  1.00  0.00     0.045 A 
HETATM   11 BR1  UNL     1      22.191   1.909  50.056  1.00  0.00    -0.048 Br
ENDROOT
BRANCH   7  12
HETATM   12  N3  UNL     1      26.267  -0.227  52.886  1.00  0.00    -0.342 N 
HETATM   13  H6  UNL     1      26.599  -0.607  51.972  1.00  0.00     0.167 HD
BRANCH  12  14
HETATM   14  C7  UNL     1      27.260   0.678  53.287  1.00  0.00     0.033 A 
HETATM   15  C8  UNL     1      27.455   1.969  53.035  1.00  0.00     0.026 A 
HETATM   16  C9  UNL     1      28.662   2.474  53.700  1.00  0.00    -0.000 A 
HETATM   17  C10 UNL     1      29.162   1.432  54.345  1.00  0.00    -0.001 A 
HETATM   18  C11 UNL     1      28.343   0.202  54.158  1.00  0.00     0.154 A 
HETATM   19 CL1  UNL     1      29.372  -0.991  53.351  1.00  0.00    -0.114 Cl
ENDBRANCH  12  14
ENDBRANCH   7  12
BRANCH   1  20
HETATM   20  O1  UNL     1      20.103   1.091  52.151  1.00  0.00    -0.355 OA
HETATM   21  C1  UNL     1      19.092   0.121  51.929  1.00  0.00     0.210 C 
ENDBRANCH   1  20
TORSDOF 3
ENDMDL
MODEL 4
REMARK VINA RESULT:      -7.1      3.810      6.103
REMARK  3 active torsions:
REMARK  status: ('A' for Active; 'I' for Inactive)
REMARK    1  A    between atoms: O1_2  and  C2_3 
REMARK    2  A    between atoms: C6_9  and  N3_10 
REMARK    3  A    between atoms: N3_10  and  C7_11 
ROOT
HETATM    1  C2  UNL     1      26.928   0.028  54.151  1.00  0.00     0.087 A 
HETATM    2  C3  UNL     1      25.757  -0.708  54.219  1.00  0.00     0.070 A 
HETATM    3  C4  UNL     1      24.567  -0.189  53.750  1.00  0.00     0.075 A 
HETATM    4  N1  UNL     1      23.425  -0.896  53.811  1.00  0.00    -0.241 NA
HETATM    5  C5  UNL     1      22.291  -0.347  53.341  1.00  0.00     0.236 A 
HETATM    6  N2  UNL     1      22.285   0.889  52.815  1.00  0.00    -0.224 NA
HETATM    7  C6  UNL     1      23.425   1.600  52.752  1.00  0.00     0.141 A 
HETATM    8  C12 UNL     1      24.624   1.097  53.216  1.00  0.00     0.040 A 
HETATM    9  C13 UNL     1      25.782   1.845  53.140  1.00  0.00     0.039 A 
HETATM   10  C14 UNL     1      26.959   1.301  53.617  1.00  0.00     0.045 A 
HETATM   11 BR1  UNL     1      28.531   2.373  53.490  1.00  0.00    -0.048 Br
ENDROOT
BRANCH   7  12
HETATM   12  N3  UNL     1      23.313   2.874  52.186  1.00  0.00    -0.342 N 
HETATM   13  H6  UNL     1      23.269   3.830  52.602  1.00  0.00     0.167 HD
BRANCH  12  14
HETATM   14  C7  UNL     1      23.231   3.075  50.801  1.00  0.00     0.033 A 
HETATM   15  C8  UNL     1      22.653   2.383  49.823  1.00  0.00     0.026 A 
HETATM   16  C9  UNL     1      22.855   3.019  48.517  1.00  0.00    -0.000 A 
HETATM   17  C10 UNL     1      23.571   4.103  48.768  1.00  0.00    -0.001 A 
HETATM   18  C11 UNL     1      23.883   4.255  50.216  1.00  0.00     0.154 A 
HETATM   19 CL1  UNL     1      25.644   4.194  50.379  1.00  0.00    -0.114 Cl
ENDBRANCH  12  14
ENDBRANCH   7  12
BRANCH   1  20
HETATM   20  O1  UNL     1      28.140  -0.457  54.610  1.00  0.00    -0.355 OA
HETATM   21  C1  UNL     1      29.023  -1.094  53.701  1.00  0.00     0.210 C 
ENDBRANCH   1  20
TORSDOF 3
ENDMDL
MODEL 5
REMARK VINA RESULT:      -7.1      2.423      3.133
REMARK  3 active torsions:
REMARK  status: ('A' for Active; 'I' for Inactive)
REMARK    1  A    between atoms: O1_2  and  C2_3 
REMARK    2  A    between atoms: C6_9  and  N3_10 
REMARK    3  A    between atoms: N3_10  and  C7_11 
ROOT
HETATM    1  C2  UNL     1      22.777   3.367  51.122  1.00  0.00     0.087 A 
HETATM    2  C3  UNL     1      22.225   2.459  52.010  1.00  0.00     0.070 A 
HETATM    3  C4  UNL     1      22.986   1.433  52.535  1.00  0.00     0.075 A 
HETATM    4  N1  UNL     1      22.461   0.546  53.398  1.00  0.00    -0.241 NA
HETATM    5  C5  UNL     1      23.243  -0.436  53.881  1.00  0.00     0.236 A 
HETATM    6  N2  UNL     1      24.530  -0.541  53.515  1.00  0.00    -0.224 NA
HETATM    7  C6  UNL     1      25.060   0.344  52.652  1.00  0.00     0.141 A 
HETATM    8  C12 UNL     1      24.315   1.376  52.117  1.00  0.00     0.040 A 
HETATM    9  C13 UNL     1      24.880   2.273  51.233  1.00  0.00     0.039 A 
HETATM   10  C14 UNL     1      24.096   3.289  50.723  1.00  0.00     0.045 A 
HETATM   11 BR1  UNL     1      24.922   4.503  49.506  1.00  0.00    -0.048 Br
ENDROOT
BRANCH   7  12
HETATM   12  N3  UNL     1      26.408   0.148  52.335  1.00  0.00    -0.342 N 
HETATM   13  H6  UNL     1      26.886  -0.407  51.592  1.00  0.00     0.167 HD
BRANCH  12  14
HETATM   14  C7  UNL     1      27.444   0.746  53.067  1.00  0.00     0.033 A 
HETATM   15  C8  UNL     1      27.940   1.979  53.083  1.00  0.00     0.026 A 
HETATM   16  C9  UNL     1      29.043   2.107  54.042  1.00  0.00    -0.000 A 
HETATM   17  C10 UNL     1      29.172   0.906  54.583  1.00  0.00    -0.001 A 
HETATM   18  C11 UNL     1      28.191  -0.071  54.034  1.00  0.00     0.154 A 
HETATM   19 CL1  UNL     1      29.120  -1.355  53.247  1.00  0.00    -0.114 Cl
ENDBRANCH  12  14
ENDBRANCH   7  12
BRANCH   1  20
HETATM   20  O1  UNL     1      22.047   4.409  50.575  1.00  0.00    -0.355 OA
HETATM   21  C1  UNL     1      21.721   5.528  51.383  1.00  0.00     0.210 C 
ENDBRANCH   1  20
TORSDOF 3
ENDMDL
MODEL 6
REMARK VINA RESULT:      -7.1      1.551      1.909
REMARK  3 active torsions:
REMARK  status: ('A' for Active; 'I' for Inactive)
REMARK    1  A    between atoms: O1_2  and  C2_3 
REMARK    2  A    between atoms: C6_9  and  N3_10 
REMARK    3  A    between atoms: N3_10  and  C7_11 
ROOT
HETATM    1  C2  UNL     1      20.551   0.440  52.529  1.00  0.00     0.087 A 
HETATM    2  C3  UNL     1      20.792  -0.129  53.769  1.00  0.00     0.070 A 
HETATM    3  C4  UNL     1      22.073  -0.479  54.148  1.00  0.00     0.075 A 
HETATM    4  N1  UNL     1      22.319  -1.032  55.349  1.00  0.00    -0.241 NA
HETATM    5  C5  UNL     1      23.584  -1.355  55.672  1.00  0.00     0.236 A 
HETATM    6  N2  UNL     1      24.596  -1.134  54.818  1.00  0.00    -0.224 NA
HETATM    7  C6  UNL     1      24.355  -0.582  53.615  1.00  0.00     0.141 A 
HETATM    8  C12 UNL     1      23.081  -0.226  53.219  1.00  0.00     0.040 A 
HETATM    9  C13 UNL     1      22.858   0.341  51.980  1.00  0.00     0.039 A 
HETATM   10  C14 UNL     1      21.567   0.681  51.626  1.00  0.00     0.045 A 
HETATM   11 BR1  UNL     1      21.309   1.460  49.905  1.00  0.00    -0.048 Br
ENDROOT
BRANCH   7  12
HETATM   12  N3  UNL     1      25.476  -0.393  52.800  1.00  0.00    -0.342 N 
HETATM   13  H6  UNL     1      25.719  -0.732  51.844  1.00  0.00     0.167 HD
BRANCH  12  14
HETATM   14  C7  UNL     1      26.575   0.377  53.205  1.00  0.00     0.033 A 
HETATM   15  C8  UNL     1      27.680   0.083  53.885  1.00  0.00     0.026 A 
HETATM   16  C9  UNL     1      28.540   1.260  54.055  1.00  0.00    -0.000 A 
HETATM   17  C10 UNL     1      27.897   2.247  53.453  1.00  0.00    -0.001 A 
HETATM   18  C11 UNL     1      26.605   1.805  52.859  1.00  0.00     0.154 A 
HETATM   19 CL1  UNL     1      25.322   2.716  53.669  1.00  0.00    -0.114 Cl
ENDBRANCH  12  14
ENDBRANCH   7  12
BRANCH   1  20
HETATM   20  O1  UNL     1      19.282   0.804  52.113  1.00  0.00    -0.355 OA
HETATM   21  C1  UNL     1      18.367  -0.204  51.713  1.00  0.00     0.210 C 
ENDBRANCH   1  20
TORSDOF 3
ENDMDL
MODEL 7
REMARK VINA RESULT:      -7.1      4.251      6.381
REMARK  3 active torsions:
REMARK  status: ('A' for Active; 'I' for Inactive)
REMARK    1  A    between atoms: O1_2  and  C2_3 
REMARK    2  A    between atoms: C6_9  and  N3_10 
REMARK    3  A    between atoms: N3_10  and  C7_11 
ROOT
HETATM    1  C2  UNL     1      27.137   0.052  53.934  1.00  0.00     0.087 A 
HETATM    2  C3  UNL     1      25.870  -0.473  53.742  1.00  0.00     0.070 A 
HETATM    3  C4  UNL     1      24.835   0.324  53.292  1.00  0.00     0.075 A 
HETATM    4  N1  UNL     1      23.602  -0.176  53.103  1.00  0.00    -0.241 NA
HETATM    5  C5  UNL     1      22.628   0.640  52.662  1.00  0.00     0.236 A 
HETATM    6  N2  UNL     1      22.870   1.937  52.412  1.00  0.00    -0.224 NA
HETATM    7  C6  UNL     1      24.102   2.441  52.601  1.00  0.00     0.141 A 
HETATM    8  C12 UNL     1      25.148   1.660  53.050  1.00  0.00     0.040 A 
HETATM    9  C13 UNL     1      26.405   2.199  53.236  1.00  0.00     0.039 A 
HETATM   10  C14 UNL     1      27.421   1.380  53.687  1.00  0.00     0.045 A 
HETATM   11 BR1  UNL     1      29.140   2.171  53.928  1.00  0.00    -0.048 Br
ENDROOT
BRANCH   7  12
HETATM   12  N3  UNL     1      24.250   3.802  52.311  1.00  0.00    -0.342 N 
HETATM   13  H6  UNL     1      24.454   4.633  52.908  1.00  0.00     0.167 HD
BRANCH  12  14
HETATM   14  C7  UNL     1      24.129   4.308  51.009  1.00  0.00     0.033 A 
HETATM   15  C8  UNL     1      23.079   4.531  50.224  1.00  0.00     0.026 A 
HETATM   16  C9  UNL     1      23.482   5.081  48.924  1.00  0.00    -0.000 A 
HETATM   17  C10 UNL     1      24.802   5.168  48.981  1.00  0.00    -0.001 A 
HETATM   18  C11 UNL     1      25.347   4.697  50.284  1.00  0.00     0.154 A 
HETATM   19 CL1  UNL     1      26.391   3.310  49.941  1.00  0.00    -0.114 Cl
ENDBRANCH  12  14
ENDBRANCH   7  12
BRANCH   1  20
HETATM   20  O1  UNL     1      28.198  -0.714  54.384  1.00  0.00    -0.355 OA
HETATM   21  C1  UNL     1      28.981  -1.435  53.446  1.00  0.00     0.210 C 
ENDBRANCH   1  20
TORSDOF 3
ENDMDL
MODEL 8
REMARK VINA RESULT:      -6.9      2.011      2.498
REMARK  3 active torsions:
REMARK  status: ('A' for Active; 'I' for Inactive)
REMARK    1  A    between atoms: O1_2  and  C2_3 
REMARK    2  A    between atoms: C6_9  and  N3_10 
REMARK    3  A    between atoms: N3_10  and  C7_11 
ROOT
HETATM    1  C2  UNL     1      21.317   2.655  51.554  1.00  0.00     0.087 A 
HETATM    2  C3  UNL     1      20.774   2.005  52.649  1.00  0.00     0.070 A 
HETATM    3  C4  UNL     1      21.454   0.976  53.270  1.00  0.00     0.075 A 
HETATM    4  N1  UNL     1      20.935   0.339  54.334  1.00  0.00    -0.241 NA
HETATM    5  C5  UNL     1      21.637  -0.657  54.904  1.00  0.00     0.236 A 
HETATM    6  N2  UNL     1      22.839  -1.020  54.428  1.00  0.00    -0.224 NA
HETATM    7  C6  UNL     1      23.361  -0.385  53.363  1.00  0.00     0.141 A 
HETATM    8  C12 UNL     1      22.696   0.645  52.730  1.00  0.00     0.040 A 
HETATM    9  C13 UNL     1      23.252   1.282  51.639  1.00  0.00     0.039 A 
HETATM   10  C14 UNL     1      22.550   2.308  51.037  1.00  0.00     0.045 A 
HETATM   11 BR1  UNL     1      23.359   3.157  49.534  1.00  0.00    -0.048 Br
ENDROOT
BRANCH   7  12
HETATM   12  N3  UNL     1      24.618  -0.838  52.946  1.00  0.00    -0.342 N 
HETATM   13  H6  UNL     1      24.915  -1.524  52.217  1.00  0.00     0.167 HD
BRANCH  12  14
HETATM   14  C7  UNL     1      25.810  -0.376  53.521  1.00  0.00     0.033 A 
HETATM   15  C8  UNL     1      26.151  -0.084  54.773  1.00  0.00     0.026 A 
HETATM   16  C9  UNL     1      27.544   0.369  54.862  1.00  0.00    -0.000 A 
HETATM   17  C10 UNL     1      27.999   0.332  53.620  1.00  0.00    -0.001 A 
HETATM   18  C11 UNL     1      26.969  -0.136  52.652  1.00  0.00     0.154 A 
HETATM   19 CL1  UNL     1      26.686   1.189  51.513  1.00  0.00    -0.114 Cl
ENDBRANCH  12  14
ENDBRANCH   7  12
BRANCH   1  20
HETATM   20  O1  UNL     1      20.666   3.689  50.905  1.00  0.00    -0.355 OA
HETATM   21  C1  UNL     1      19.546   3.399  50.084  1.00  0.00     0.210 C 
ENDBRANCH   1  20
TORSDOF 3
ENDMDL
MODEL 9
REMARK VINA RESULT:      -6.9      3.176      6.362
REMARK  3 active torsions:
REMARK  status: ('A' for Active; 'I' for Inactive)
REMARK    1  A    between atoms: O1_2  and  C2_3 
REMARK    2  A    between atoms: C6_9  and  N3_10 
REMARK    3  A    between atoms: N3_10  and  C7_11 
ROOT
HETATM    1  C2  UNL     1      26.144   0.321  52.842  1.00  0.00     0.087 A 
HETATM    2  C3  UNL     1      25.511  -0.526  53.737  1.00  0.00     0.070 A 
HETATM    3  C4  UNL     1      24.150  -0.435  53.954  1.00  0.00     0.075 A 
HETATM    4  N1  UNL     1      23.526  -1.252  54.821  1.00  0.00    -0.241 NA
HETATM    5  C5  UNL     1      22.199  -1.125  54.997  1.00  0.00     0.236 A 
HETATM    6  N2  UNL     1      21.495  -0.200  54.324  1.00  0.00    -0.224 NA
HETATM    7  C6  UNL     1      22.115   0.619  53.456  1.00  0.00     0.141 A 
HETATM    8  C12 UNL     1      23.474   0.544  53.227  1.00  0.00     0.040 A 
HETATM    9  C13 UNL     1      24.090   1.394  52.331  1.00  0.00     0.039 A 
HETATM   10  C14 UNL     1      25.452   1.283  52.134  1.00  0.00     0.045 A 
HETATM   11 BR1  UNL     1      26.256   2.481  50.886  1.00  0.00    -0.048 Br
ENDROOT
BRANCH   7  12
HETATM   12  N3  UNL     1      21.293   1.546  52.806  1.00  0.00    -0.342 N 
HETATM   13  H6  UNL     1      21.270   2.589  52.803  1.00  0.00     0.167 HD
BRANCH  12  14
HETATM   14  C7  UNL     1      20.249   1.155  51.957  1.00  0.00     0.033 A 
HETATM   15  C8  UNL     1      19.158   0.419  52.151  1.00  0.00     0.026 A 
HETATM   16  C9  UNL     1      18.362   0.297  50.925  1.00  0.00    -0.000 A 
HETATM   17  C10 UNL     1      19.027   0.986  50.011  1.00  0.00    -0.001 A 
HETATM   18  C11 UNL     1      20.273   1.594  50.555  1.00  0.00     0.154 A 
HETATM   19 CL1  UNL     1      21.629   0.892  49.660  1.00  0.00    -0.114 Cl
ENDBRANCH  12  14
ENDBRANCH   7  12
BRANCH   1  20
HETATM   20  O1  UNL     1      27.505   0.261  52.598  1.00  0.00    -0.355 OA
HETATM   21  C1  UNL     1      28.358  -0.334  53.563  1.00  0.00     0.210 C 
ENDBRANCH   1  20
TORSDOF 3
ENDMDL
