MODEL 1
REMARK VINA RESULT:      -8.7      0.000      0.000
REMARK  6 active torsions:
REMARK  status: ('A' for Active; 'I' for Inactive)
REMARK    1  A    between atoms: O1_2  and  C2_3 
REMARK    2  A    between atoms: C4_5  and  C5_6 
REMARK    3  A    between atoms: C5_6  and  N1_7 
REMARK    4  A    between atoms: N1_7  and  C6_8 
REMARK    5  A    between atoms: C6_8  and  C7_9 
REMARK    6  A    between atoms: C14_17  and  O2_18 
ROOT
HETATM    1  C2  UNL     1      20.106   3.450  51.910  1.00  0.00     0.098 C 
HETATM    2  C3  UNL     1      21.357   3.767  52.167  1.00  0.00     0.029 C 
HETATM    3  C4  UNL     1      22.881   3.829  52.097  1.00  0.00     0.036 A 
HETATM    4  C13 UNL     1      23.397   4.791  53.040  1.00  0.00     0.022 A 
HETATM    5  C14 UNL     1      23.744   5.576  52.090  1.00  0.00     0.046 A 
HETATM    6  C15 UNL     1      23.271   4.704  51.049  1.00  0.00     0.060 A 
HETATM    7  C16 UNL     1      24.375   4.470  50.078  1.00  0.00     0.013 C 
HETATM    8  C17 UNL     1      23.805   4.103  48.713  1.00  0.00     0.001 C 
HETATM    9  C18 UNL     1      23.040   2.851  48.901  1.00  0.00     0.000 C 
HETATM   10  C19 UNL     1      22.284   2.158  47.861  1.00  0.00     0.006 C 
HETATM   11  C20 UNL     1      21.669   0.899  48.498  1.00  0.00     0.072 C 
HETATM   12  C21 UNL     1      20.738   1.120  49.603  1.00  0.00     0.217 A 
HETATM   13  O3  UNL     1      20.357   2.248  49.957  1.00  0.00     0.000 OA
HETATM   14  N2  UNL     1      19.826   1.324  50.683  1.00  0.00     0.338 N 
HETATM   15  O4  UNL     1      19.463   2.638  51.012  1.00  0.00     0.000 OA
HETATM   16  H27 UNL     1      19.483   0.428  51.175  1.00  0.00     0.366 HD
ENDROOT
BRANCH   3  17
HETATM   17  C5  UNL     1      23.375   2.423  52.231  1.00  0.00     0.288 C 
BRANCH  17  18
HETATM   18  N1  UNL     1      24.659   2.230  52.782  1.00  0.00     0.088 N 
HETATM   19  H7  UNL     1      24.640   1.652  53.664  1.00  0.00     0.316 HD
BRANCH  18  20
HETATM   20  C6  UNL     1      25.474   1.492  51.835  1.00  0.00     0.308 C 
BRANCH  20  21
HETATM   21  C7  UNL     1      26.691   0.903  52.451  1.00  0.00    -0.030 A 
HETATM   22  C8  UNL     1      27.748   1.636  52.984  1.00  0.00     0.012 A 
HETATM   23  C9  UNL     1      28.823   0.970  53.529  1.00  0.00     0.043 A 
HETATM   24  C10 UNL     1      28.879  -0.395  53.561  1.00  0.00     0.116 A 
HETATM   25  F1  UNL     1      29.992  -0.929  54.124  1.00  0.00    -0.206 F 
HETATM   26  C11 UNL     1      27.835  -1.148  53.034  1.00  0.00     0.043 A 
HETATM   27  C12 UNL     1      26.769  -0.475  52.493  1.00  0.00     0.012 A 
ENDBRANCH  20  21
ENDBRANCH  18  20
ENDBRANCH  17  18
ENDBRANCH   3  17
BRANCH   1  28
HETATM   28  O1  UNL     1      18.728   3.501  52.099  1.00  0.00    -0.353 OA
HETATM   29  C1  UNL     1      17.995   4.246  51.141  1.00  0.00     0.210 C 
ENDBRANCH   1  28
BRANCH   5  30
HETATM   30  O2  UNL     1      24.372   6.840  52.175  1.00  0.00    -0.365 OA
HETATM   31  H15 UNL     1      25.091   6.962  52.879  1.00  0.00     0.217 HD
ENDBRANCH   5  30
TORSDOF 6
ENDMDL
MODEL 2
REMARK VINA RESULT:      -8.5      3.343      6.172
REMARK  6 active torsions:
REMARK  status: ('A' for Active; 'I' for Inactive)
REMARK    1  A    between atoms: O1_2  and  C2_3 
REMARK    2  A    between atoms: C4_5  and  C5_6 
REMARK    3  A    between atoms: C5_6  and  N1_7 
REMARK    4  A    between atoms: N1_7  and  C6_8 
REMARK    5  A    between atoms: C6_8  and  C7_9 
REMARK    6  A    between atoms: C14_17  and  O2_18 
ROOT
HETATM    1  C2  UNL     1      26.333   4.240  49.312  1.00  0.00     0.098 C 
HETATM    2  C3  UNL     1      25.062   4.503  49.090  1.00  0.00     0.029 C 
HETATM    3  C4  UNL     1      23.540   4.503  49.203  1.00  0.00     0.036 A 
HETATM    4  C13 UNL     1      22.958   5.436  48.270  1.00  0.00     0.022 A 
HETATM    5  C14 UNL     1      22.606   6.212  49.225  1.00  0.00     0.046 A 
HETATM    6  C15 UNL     1      23.144   5.367  50.257  1.00  0.00     0.060 A 
HETATM    7  C16 UNL     1      22.079   5.095  51.261  1.00  0.00     0.013 C 
HETATM    8  C17 UNL     1      22.703   4.760  52.611  1.00  0.00     0.001 C 
HETATM    9  C18 UNL     1      23.513   3.540  52.408  1.00  0.00     0.000 C 
HETATM   10  C19 UNL     1      24.326   2.886  53.430  1.00  0.00     0.006 C 
HETATM   11  C20 UNL     1      24.974   1.649  52.782  1.00  0.00     0.072 C 
HETATM   12  C21 UNL     1      25.864   1.901  51.650  1.00  0.00     0.217 A 
HETATM   13  O3  UNL     1      26.188   3.041  51.278  1.00  0.00     0.000 OA
HETATM   14  N2  UNL     1      26.735   2.136  50.542  1.00  0.00     0.338 N 
HETATM   15  O4  UNL     1      27.034   3.461  50.196  1.00  0.00     0.000 OA
HETATM   16  H27 UNL     1      27.101   1.251  50.046  1.00  0.00     0.366 HD
ENDROOT
BRANCH   3  17
HETATM   17  C5  UNL     1      23.101   3.076  49.091  1.00  0.00     0.288 C 
BRANCH  17  18
HETATM   18  N1  UNL     1      21.772   2.830  48.690  1.00  0.00     0.088 N 
HETATM   19  H7  UNL     1      21.646   2.881  47.645  1.00  0.00     0.316 HD
BRANCH  18  20
HETATM   20  C6  UNL     1      21.404   1.479  49.073  1.00  0.00     0.308 C 
BRANCH  20  21
HETATM   21  C7  UNL     1      21.139   1.339  50.528  1.00  0.00    -0.030 A 
HETATM   22  C8  UNL     1      20.255   2.131  51.255  1.00  0.00     0.012 A 
HETATM   23  C9  UNL     1      20.096   1.900  52.604  1.00  0.00     0.043 A 
HETATM   24  C10 UNL     1      20.784   0.910  53.247  1.00  0.00     0.116 A 
HETATM   25  F1  UNL     1      20.539   0.784  54.576  1.00  0.00    -0.206 F 
HETATM   26  C11 UNL     1      21.673   0.106  52.540  1.00  0.00     0.043 A 
HETATM   27  C12 UNL     1      21.824   0.345  51.198  1.00  0.00     0.012 A 
ENDBRANCH  20  21
ENDBRANCH  18  20
ENDBRANCH  17  18
ENDBRANCH   3  17
BRANCH   1  28
HETATM   28  O1  UNL     1      27.701   4.346  49.083  1.00  0.00    -0.353 OA
HETATM   29  C1  UNL     1      28.123   5.486  48.352  1.00  0.00     0.210 C 
ENDBRANCH   1  28
BRANCH   5  30
HETATM   30  O2  UNL     1      21.924   7.449  49.152  1.00  0.00    -0.365 OA
HETATM   31  H15 UNL     1      20.920   7.442  49.298  1.00  0.00     0.217 HD
ENDBRANCH   5  30
TORSDOF 6
ENDMDL
MODEL 3
REMARK VINA RESULT:      -8.2      3.270      5.871
REMARK  6 active torsions:
REMARK  status: ('A' for Active; 'I' for Inactive)
REMARK    1  A    between atoms: O1_2  and  C2_3 
REMARK    2  A    between atoms: C4_5  and  C5_6 
REMARK    3  A    between atoms: C5_6  and  N1_7 
REMARK    4  A    between atoms: N1_7  and  C6_8 
REMARK    5  A    between atoms: C6_8  and  C7_9 
REMARK    6  A    between atoms: C14_17  and  O2_18 
ROOT
HETATM    1  C2  UNL     1      22.338   1.446  50.144  1.00  0.00     0.098 C 
HETATM    2  C3  UNL     1      23.412   1.640  50.881  1.00  0.00     0.029 C 
HETATM    3  C4  UNL     1      24.340   1.762  52.086  1.00  0.00     0.036 A 
HETATM    4  C13 UNL     1      25.695   2.022  51.662  1.00  0.00     0.022 A 
HETATM    5  C14 UNL     1      26.062   0.853  52.032  1.00  0.00     0.046 A 
HETATM    6  C15 UNL     1      24.757   0.469  52.495  1.00  0.00     0.060 A 
HETATM    7  C16 UNL     1      24.866  -0.014  53.899  1.00  0.00     0.013 C 
HETATM    8  C17 UNL     1      23.720  -0.967  54.218  1.00  0.00     0.001 C 
HETATM    9  C18 UNL     1      22.472  -0.189  54.059  1.00  0.00     0.000 C 
HETATM   10  C19 UNL     1      21.121  -0.718  54.224  1.00  0.00     0.006 C 
HETATM   11  C20 UNL     1      20.138   0.443  53.985  1.00  0.00     0.072 C 
HETATM   12  C21 UNL     1      20.177   1.063  52.662  1.00  0.00     0.217 A 
HETATM   13  O3  UNL     1      20.871   0.630  51.726  1.00  0.00     0.000 OA
HETATM   14  N2  UNL     1      20.207   1.676  51.371  1.00  0.00     0.338 N 
HETATM   15  O4  UNL     1      21.029   1.116  50.383  1.00  0.00     0.000 OA
HETATM   16  H27 UNL     1      19.580   2.546  51.258  1.00  0.00     0.366 HD
ENDROOT
BRANCH   3  17
HETATM   17  C5  UNL     1      23.719   2.764  53.008  1.00  0.00     0.288 C 
BRANCH  17  18
HETATM   18  N1  UNL     1      24.322   4.036  53.094  1.00  0.00     0.088 N 
HETATM   19  H7  UNL     1      25.166   4.130  52.470  1.00  0.00     0.316 HD
BRANCH  18  20
HETATM   20  C6  UNL     1      23.376   5.040  52.641  1.00  0.00     0.308 C 
BRANCH  20  21
HETATM   21  C7  UNL     1      23.315   5.157  51.162  1.00  0.00    -0.030 A 
HETATM   22  C8  UNL     1      24.423   5.270  50.327  1.00  0.00     0.012 A 
HETATM   23  C9  UNL     1      24.234   5.371  48.966  1.00  0.00     0.043 A 
HETATM   24  C10 UNL     1      22.984   5.363  48.414  1.00  0.00     0.116 A 
HETATM   25  F1  UNL     1      22.932   5.469  47.062  1.00  0.00    -0.206 F 
HETATM   26  C11 UNL     1      21.862   5.252  49.229  1.00  0.00     0.043 A 
HETATM   27  C12 UNL     1      22.062   5.152  50.583  1.00  0.00     0.012 A 
ENDBRANCH  20  21
ENDBRANCH  18  20
ENDBRANCH  17  18
ENDBRANCH   3  17
BRANCH   1  28
HETATM   28  O1  UNL     1      21.623   1.374  48.953  1.00  0.00    -0.353 OA
HETATM   29  C1  UNL     1      22.300   1.825  47.791  1.00  0.00     0.210 C 
ENDBRANCH   1  28
BRANCH   5  30
HETATM   30  O2  UNL     1      27.347   0.267  51.955  1.00  0.00    -0.365 OA
HETATM   31  H15 UNL     1      27.511  -0.415  51.222  1.00  0.00     0.217 HD
ENDBRANCH   5  30
TORSDOF 6
ENDMDL
MODEL 4
REMARK VINA RESULT:      -7.9      3.868      6.617
REMARK  6 active torsions:
REMARK  status: ('A' for Active; 'I' for Inactive)
REMARK    1  A    between atoms: O1_2  and  C2_3 
REMARK    2  A    between atoms: C4_5  and  C5_6 
REMARK    3  A    between atoms: C5_6  and  N1_7 
REMARK    4  A    between atoms: N1_7  and  C6_8 
REMARK    5  A    between atoms: C6_8  and  C7_9 
REMARK    6  A    between atoms: C14_17  and  O2_18 
ROOT
HETATM    1  C2  UNL     1      25.807   2.873  50.305  1.00  0.00     0.098 C 
HETATM    2  C3  UNL     1      25.684   2.571  51.581  1.00  0.00     0.029 C 
HETATM    3  C4  UNL     1      25.075   2.201  52.930  1.00  0.00     0.036 A 
HETATM    4  C13 UNL     1      26.108   1.991  53.916  1.00  0.00     0.022 A 
HETATM    5  C14 UNL     1      25.867   0.734  53.940  1.00  0.00     0.046 A 
HETATM    6  C15 UNL     1      24.813   0.806  52.964  1.00  0.00     0.060 A 
HETATM    7  C16 UNL     1      23.596   0.156  53.523  1.00  0.00     0.013 C 
HETATM    8  C17 UNL     1      22.699  -0.338  52.393  1.00  0.00     0.001 C 
HETATM    9  C18 UNL     1      22.308   0.857  51.614  1.00  0.00     0.000 C 
HETATM   10  C19 UNL     1      21.483   0.846  50.409  1.00  0.00     0.006 C 
HETATM   11  C20 UNL     1      21.318   2.307  49.951  1.00  0.00     0.072 C 
HETATM   12  C21 UNL     1      22.546   3.020  49.601  1.00  0.00     0.217 A 
HETATM   13  O3  UNL     1      23.661   2.475  49.558  1.00  0.00     0.000 OA
HETATM   14  N2  UNL     1      23.739   3.726  49.257  1.00  0.00     0.338 N 
HETATM   15  O4  UNL     1      24.952   3.022  49.244  1.00  0.00     0.000 OA
HETATM   16  H27 UNL     1      23.609   4.772  49.031  1.00  0.00     0.366 HD
ENDROOT
BRANCH   3  17
HETATM   17  C5  UNL     1      24.050   3.246  53.241  1.00  0.00     0.288 C 
BRANCH  17  18
HETATM   18  N1  UNL     1      24.212   4.518  52.655  1.00  0.00     0.088 N 
HETATM   19  H7  UNL     1      24.678   4.474  51.711  1.00  0.00     0.316 HD
BRANCH  18  20
HETATM   20  C6  UNL     1      22.904   5.106  52.429  1.00  0.00     0.308 C 
BRANCH  20  21
HETATM   21  C7  UNL     1      22.935   6.244  51.476  1.00  0.00    -0.030 A 
HETATM   22  C8  UNL     1      21.820   6.767  50.826  1.00  0.00     0.012 A 
HETATM   23  C9  UNL     1      21.980   7.829  49.963  1.00  0.00     0.043 A 
HETATM   24  C10 UNL     1      23.207   8.383  49.728  1.00  0.00     0.116 A 
HETATM   25  F1  UNL     1      23.231   9.423  48.857  1.00  0.00    -0.206 F 
HETATM   26  C11 UNL     1      24.334   7.877  50.366  1.00  0.00     0.043 A 
HETATM   27  C12 UNL     1      24.164   6.819  51.224  1.00  0.00     0.012 A 
ENDBRANCH  20  21
ENDBRANCH  18  20
ENDBRANCH  17  18
ENDBRANCH   3  17
BRANCH   1  28
HETATM   28  O1  UNL     1      26.508   3.209  49.152  1.00  0.00    -0.353 OA
HETATM   29  C1  UNL     1      27.088   4.503  49.130  1.00  0.00     0.210 C 
ENDBRANCH   1  28
BRANCH   5  30
HETATM   30  O2  UNL     1      26.497  -0.270  54.710  1.00  0.00    -0.365 OA
HETATM   31  H15 UNL     1      27.454  -0.108  55.003  1.00  0.00     0.217 HD
ENDBRANCH   5  30
TORSDOF 6
ENDMDL
MODEL 5
REMARK VINA RESULT:      -7.8      3.621      6.107
REMARK  6 active torsions:
REMARK  status: ('A' for Active; 'I' for Inactive)
REMARK    1  A    between atoms: O1_2  and  C2_3 
REMARK    2  A    between atoms: C4_5  and  C5_6 
REMARK    3  A    between atoms: C5_6  and  N1_7 
REMARK    4  A    between atoms: N1_7  and  C6_8 
REMARK    5  A    between atoms: C6_8  and  C7_9 
REMARK    6  A    between atoms: C14_17  and  O2_18 
ROOT
HETATM    1  C2  UNL     1      22.650   2.521  48.394  1.00  0.00     0.098 C 
HETATM    2  C3  UNL     1      23.395   3.050  49.340  1.00  0.00     0.029 C 
HETATM    3  C4  UNL     1      23.945   3.423  50.714  1.00  0.00     0.036 A 
HETATM    4  C13 UNL     1      25.149   4.208  50.587  1.00  0.00     0.022 A 
HETATM    5  C14 UNL     1      25.858   3.241  51.034  1.00  0.00     0.046 A 
HETATM    6  C15 UNL     1      24.738   2.357  51.212  1.00  0.00     0.060 A 
HETATM    7  C16 UNL     1      24.744   1.847  52.611  1.00  0.00     0.013 C 
HETATM    8  C17 UNL     1      24.016   0.510  52.686  1.00  0.00     0.001 C 
HETATM    9  C18 UNL     1      22.623   0.766  52.260  1.00  0.00     0.000 C 
HETATM   10  C19 UNL     1      21.577  -0.246  52.137  1.00  0.00     0.006 C 
HETATM   11  C20 UNL     1      20.292   0.471  51.686  1.00  0.00     0.072 C 
HETATM   12  C21 UNL     1      20.351   1.158  50.397  1.00  0.00     0.217 A 
HETATM   13  O3  UNL     1      21.328   1.093  49.634  1.00  0.00     0.000 OA
HETATM   14  N2  UNL     1      20.397   1.833  49.139  1.00  0.00     0.338 N 
HETATM   15  O4  UNL     1      21.550   1.702  48.352  1.00  0.00     0.000 OA
HETATM   16  H27 UNL     1      19.518   2.406  48.889  1.00  0.00     0.366 HD
ENDROOT
BRANCH   3  17
HETATM   17  C5  UNL     1      22.816   4.043  51.476  1.00  0.00     0.288 C 
BRANCH  17  18
HETATM   18  N1  UNL     1      22.969   5.378  51.904  1.00  0.00     0.088 N 
HETATM   19  H7  UNL     1      23.955   5.732  51.788  1.00  0.00     0.316 HD
BRANCH  18  20
HETATM   20  C6  UNL     1      22.135   6.237  51.084  1.00  0.00     0.308 C 
BRANCH  20  21
HETATM   21  C7  UNL     1      22.902   6.976  50.048  1.00  0.00    -0.030 A 
HETATM   22  C8  UNL     1      23.747   8.053  50.302  1.00  0.00     0.012 A 
HETATM   23  C9  UNL     1      24.405   8.654  49.252  1.00  0.00     0.043 A 
HETATM   24  C10 UNL     1      24.249   8.221  47.966  1.00  0.00     0.116 A 
HETATM   25  F1  UNL     1      24.951   8.897  47.022  1.00  0.00    -0.206 F 
HETATM   26  C11 UNL     1      23.409   7.147  47.689  1.00  0.00     0.043 A 
HETATM   27  C12 UNL     1      22.758   6.555  48.742  1.00  0.00     0.012 A 
ENDBRANCH  20  21
ENDBRANCH  18  20
ENDBRANCH  17  18
ENDBRANCH   3  17
BRANCH   1  28
HETATM   28  O1  UNL     1      22.270   2.273  47.079  1.00  0.00    -0.353 OA
HETATM   29  C1  UNL     1      21.967   3.414  46.292  1.00  0.00     0.210 C 
ENDBRANCH   1  28
BRANCH   5  30
HETATM   30  O2  UNL     1      27.257   3.192  51.237  1.00  0.00    -0.365 OA
HETATM   31  H15 UNL     1      27.716   4.038  51.554  1.00  0.00     0.217 HD
ENDBRANCH   5  30
TORSDOF 6
ENDMDL
MODEL 6
REMARK VINA RESULT:      -7.7      3.756      6.722
REMARK  6 active torsions:
REMARK  status: ('A' for Active; 'I' for Inactive)
REMARK    1  A    between atoms: O1_2  and  C2_3 
REMARK    2  A    between atoms: C4_5  and  C5_6 
REMARK    3  A    between atoms: C5_6  and  N1_7 
REMARK    4  A    between atoms: N1_7  and  C6_8 
REMARK    5  A    between atoms: C6_8  and  C7_9 
REMARK    6  A    between atoms: C14_17  and  O2_18 
ROOT
HETATM    1  C2  UNL     1      25.254   2.016  53.070  1.00  0.00     0.098 C 
HETATM    2  C3  UNL     1      24.682   2.815  52.196  1.00  0.00     0.029 C 
HETATM    3  C4  UNL     1      23.669   3.412  51.222  1.00  0.00     0.036 A 
HETATM    4  C13 UNL     1      24.134   4.679  50.714  1.00  0.00     0.022 A 
HETATM    5  C14 UNL     1      23.233   5.304  51.373  1.00  0.00     0.046 A 
HETATM    6  C15 UNL     1      22.671   4.112  51.948  1.00  0.00     0.060 A 
HETATM    7  C16 UNL     1      21.208   4.088  51.673  1.00  0.00     0.013 C 
HETATM    8  C17 UNL     1      20.490   3.245  52.720  1.00  0.00     0.001 C 
HETATM    9  C18 UNL     1      21.037   1.876  52.603  1.00  0.00     0.000 C 
HETATM   10  C19 UNL     1      20.666   0.743  53.446  1.00  0.00     0.006 C 
HETATM   11  C20 UNL     1      21.464  -0.479  52.956  1.00  0.00     0.072 C 
HETATM   12  C21 UNL     1      22.920  -0.373  53.028  1.00  0.00     0.217 A 
HETATM   13  O3  UNL     1      23.509   0.586  53.554  1.00  0.00     0.000 OA
HETATM   14  N2  UNL     1      24.345  -0.281  53.095  1.00  0.00     0.338 N 
HETATM   15  O4  UNL     1      24.914   0.847  53.702  1.00  0.00     0.000 OA
HETATM   16  H27 UNL     1      24.882  -1.108  52.659  1.00  0.00     0.366 HD
ENDROOT
BRANCH   3  17
HETATM   17  C5  UNL     1      23.369   2.350  50.210  1.00  0.00     0.288 C 
BRANCH  17  18
HETATM   18  N1  UNL     1      23.118   2.761  48.885  1.00  0.00     0.088 N 
HETATM   19  H7  UNL     1      23.992   2.797  48.298  1.00  0.00     0.316 HD
BRANCH  18  20
HETATM   20  C6  UNL     1      22.245   1.793  48.246  1.00  0.00     0.308 C 
BRANCH  20  21
HETATM   21  C7  UNL     1      20.831   1.905  48.687  1.00  0.00    -0.030 A 
HETATM   22  C8  UNL     1      20.195   1.021  49.554  1.00  0.00     0.012 A 
HETATM   23  C9  UNL     1      18.876   1.235  49.887  1.00  0.00     0.043 A 
HETATM   24  C10 UNL     1      18.174   2.296  49.387  1.00  0.00     0.116 A 
HETATM   25  F1  UNL     1      16.883   2.396  49.792  1.00  0.00    -0.206 F 
HETATM   26  C11 UNL     1      18.789   3.193  48.519  1.00  0.00     0.043 A 
HETATM   27  C12 UNL     1      20.103   2.970  48.194  1.00  0.00     0.012 A 
ENDBRANCH  20  21
ENDBRANCH  18  20
ENDBRANCH  17  18
ENDBRANCH   3  17
BRANCH   1  28
HETATM   28  O1  UNL     1      26.274   1.601  53.921  1.00  0.00    -0.353 OA
HETATM   29  C1  UNL     1      27.565   1.501  53.343  1.00  0.00     0.210 C 
ENDBRANCH   1  28
BRANCH   5  30
HETATM   30  O2  UNL     1      22.984   6.695  51.427  1.00  0.00    -0.365 OA
HETATM   31  H15 UNL     1      22.175   7.009  51.951  1.00  0.00     0.217 HD
ENDBRANCH   5  30
TORSDOF 6
ENDMDL
MODEL 7
REMARK VINA RESULT:      -7.7      9.029     11.786
REMARK  6 active torsions:
REMARK  status: ('A' for Active; 'I' for Inactive)
REMARK    1  A    between atoms: O1_2  and  C2_3 
REMARK    2  A    between atoms: C4_5  and  C5_6 
REMARK    3  A    between atoms: C5_6  and  N1_7 
REMARK    4  A    between atoms: N1_7  and  C6_8 
REMARK    5  A    between atoms: C6_8  and  C7_9 
REMARK    6  A    between atoms: C14_17  and  O2_18 
ROOT
HETATM    1  C2  UNL     1      32.851   5.912  44.517  1.00  0.00     0.098 C 
HETATM    2  C3  UNL     1      32.793   6.821  45.468  1.00  0.00     0.029 C 
HETATM    3  C4  UNL     1      32.801   7.482  46.843  1.00  0.00     0.036 A 
HETATM    4  C13 UNL     1      32.687   8.915  46.721  1.00  0.00     0.022 A 
HETATM    5  C14 UNL     1      33.897   9.071  47.108  1.00  0.00     0.046 A 
HETATM    6  C15 UNL     1      34.141   7.664  47.273  1.00  0.00     0.060 A 
HETATM    7  C16 UNL     1      34.661   7.424  48.647  1.00  0.00     0.013 C 
HETATM    8  C17 UNL     1      35.486   6.142  48.680  1.00  0.00     0.001 C 
HETATM    9  C18 UNL     1      34.570   5.044  48.300  1.00  0.00     0.000 C 
HETATM   10  C19 UNL     1      34.947   3.641  48.158  1.00  0.00     0.006 C 
HETATM   11  C20 UNL     1      33.678   2.859  47.771  1.00  0.00     0.072 C 
HETATM   12  C21 UNL     1      33.040   3.241  46.513  1.00  0.00     0.217 A 
HETATM   13  O3  UNL     1      33.529   4.066  45.724  1.00  0.00     0.000 OA
HETATM   14  N2  UNL     1      32.407   3.607  45.285  1.00  0.00     0.338 N 
HETATM   15  O4  UNL     1      33.036   4.555  44.465  1.00  0.00     0.000 OA
HETATM   16  H27 UNL     1      31.471   3.112  45.082  1.00  0.00     0.366 HD
ENDROOT
BRANCH   3  17
HETATM   17  C5  UNL     1      31.754   6.790  47.659  1.00  0.00     0.288 C 
BRANCH  17  18
HETATM   18  N1  UNL     1      30.485   6.603  47.074  1.00  0.00     0.088 N 
HETATM   19  H7  UNL     1      30.142   5.610  47.155  1.00  0.00     0.316 HD
BRANCH  18  20
HETATM   20  C6  UNL     1      29.514   7.422  47.777  1.00  0.00     0.308 C 
BRANCH  20  21
HETATM   21  C7  UNL     1      28.296   6.669  48.172  1.00  0.00    -0.030 A 
HETATM   22  C8  UNL     1      27.019   7.216  48.265  1.00  0.00     0.012 A 
HETATM   23  C9  UNL     1      25.967   6.410  48.642  1.00  0.00     0.043 A 
HETATM   24  C10 UNL     1      26.145   5.085  48.926  1.00  0.00     0.116 A 
HETATM   25  F1  UNL     1      25.030   4.401  49.285  1.00  0.00    -0.206 F 
HETATM   26  C11 UNL     1      27.412   4.518  48.839  1.00  0.00     0.043 A 
HETATM   27  C12 UNL     1      28.453   5.329  48.464  1.00  0.00     0.012 A 
ENDBRANCH  20  21
ENDBRANCH  18  20
ENDBRANCH  17  18
ENDBRANCH   3  17
BRANCH   1  28
HETATM   28  O1  UNL     1      32.818   5.461  43.201  1.00  0.00    -0.353 OA
HETATM   29  C1  UNL     1      34.076   5.303  42.566  1.00  0.00     0.210 C 
ENDBRANCH   1  28
BRANCH   5  30
HETATM   30  O2  UNL     1      34.622  10.274  47.274  1.00  0.00    -0.365 OA
HETATM   31  H15 UNL     1      35.432  10.255  47.883  1.00  0.00     0.217 HD
ENDBRANCH   5  30
TORSDOF 6
ENDMDL
MODEL 8
REMARK VINA RESULT:      -7.5      8.443     10.306
REMARK  6 active torsions:
REMARK  status: ('A' for Active; 'I' for Inactive)
REMARK    1  A    between atoms: O1_2  and  C2_3 
REMARK    2  A    between atoms: C4_5  and  C5_6 
REMARK    3  A    between atoms: C5_6  and  N1_7 
REMARK    4  A    between atoms: N1_7  and  C6_8 
REMARK    5  A    between atoms: C6_8  and  C7_9 
REMARK    6  A    between atoms: C14_17  and  O2_18 
ROOT
HETATM    1  C2  UNL     1      27.040   9.227  45.818  1.00  0.00     0.098 C 
HETATM    2  C3  UNL     1      27.380   8.827  47.025  1.00  0.00     0.029 C 
HETATM    3  C4  UNL     1      28.214   8.398  48.228  1.00  0.00     0.036 A 
HETATM    4  C13 UNL     1      27.374   8.185  49.382  1.00  0.00     0.022 A 
HETATM    5  C14 UNL     1      27.854   9.224  49.956  1.00  0.00     0.046 A 
HETATM    6  C15 UNL     1      28.743   9.546  48.872  1.00  0.00     0.060 A 
HETATM    7  C16 UNL     1      30.123   9.693  49.409  1.00  0.00     0.013 C 
HETATM    8  C17 UNL     1      30.949  10.595  48.498  1.00  0.00     0.001 C 
HETATM    9  C18 UNL     1      31.000   9.926  47.180  1.00  0.00     0.000 C 
HETATM   10  C19 UNL     1      31.652  10.459  45.987  1.00  0.00     0.006 C 
HETATM   11  C20 UNL     1      31.473   9.423  44.862  1.00  0.00     0.072 C 
HETATM   12  C21 UNL     1      30.096   9.118  44.475  1.00  0.00     0.217 A 
HETATM   13  O3  UNL     1      29.111   9.723  44.929  1.00  0.00     0.000 OA
HETATM   14  N2  UNL     1      28.755   8.812  44.089  1.00  0.00     0.338 N 
HETATM   15  O4  UNL     1      27.709   9.548  44.665  1.00  0.00     0.000 OA
HETATM   16  H27 UNL     1      28.651   8.018  43.368  1.00  0.00     0.366 HD
ENDROOT
BRANCH   3  17
HETATM   17  C5  UNL     1      29.049   7.239  47.781  1.00  0.00     0.288 C 
BRANCH  17  18
HETATM   18  N1  UNL     1      29.528   6.356  48.771  1.00  0.00     0.088 N 
HETATM   19  H7  UNL     1      28.796   5.671  49.094  1.00  0.00     0.316 HD
BRANCH  18  20
HETATM   20  C6  UNL     1      30.606   5.560  48.214  1.00  0.00     0.308 C 
BRANCH  20  21
HETATM   21  C7  UNL     1      31.854   6.337  48.001  1.00  0.00    -0.030 A 
HETATM   22  C8  UNL     1      32.500   7.087  48.979  1.00  0.00     0.012 A 
HETATM   23  C9  UNL     1      33.656   7.764  48.656  1.00  0.00     0.043 A 
HETATM   24  C10 UNL     1      34.185   7.718  47.397  1.00  0.00     0.116 A 
HETATM   25  F1  UNL     1      35.325   8.428  47.206  1.00  0.00    -0.206 F 
HETATM   26  C11 UNL     1      33.556   6.974  46.403  1.00  0.00     0.043 A 
HETATM   27  C12 UNL     1      32.406   6.304  46.736  1.00  0.00     0.012 A 
ENDBRANCH  20  21
ENDBRANCH  18  20
ENDBRANCH  17  18
ENDBRANCH   3  17
BRANCH   1  28
HETATM   28  O1  UNL     1      26.147   9.597  44.817  1.00  0.00    -0.353 OA
HETATM   29  C1  UNL     1      25.768  10.964  44.795  1.00  0.00     0.210 C 
ENDBRANCH   1  28
BRANCH   5  30
HETATM   30  O2  UNL     1      27.533   9.759  51.224  1.00  0.00    -0.365 OA
HETATM   31  H15 UNL     1      27.779  10.727  51.403  1.00  0.00     0.217 HD
ENDBRANCH   5  30
TORSDOF 6
ENDMDL
MODEL 9
REMARK VINA RESULT:      -7.5      3.570      5.115
REMARK  6 active torsions:
REMARK  status: ('A' for Active; 'I' for Inactive)
REMARK    1  A    between atoms: O1_2  and  C2_3 
REMARK    2  A    between atoms: C4_5  and  C5_6 
REMARK    3  A    between atoms: C5_6  and  N1_7 
REMARK    4  A    between atoms: N1_7  and  C6_8 
REMARK    5  A    between atoms: C6_8  and  C7_9 
REMARK    6  A    between atoms: C14_17  and  O2_18 
ROOT
HETATM    1  C2  UNL     1      22.841   6.721  46.512  1.00  0.00     0.098 C 
HETATM    2  C3  UNL     1      23.467   6.894  47.656  1.00  0.00     0.029 C 
HETATM    3  C4  UNL     1      23.990   6.666  49.072  1.00  0.00     0.036 A 
HETATM    4  C13 UNL     1      24.890   7.724  49.461  1.00  0.00     0.022 A 
HETATM    5  C14 UNL     1      25.889   6.924  49.418  1.00  0.00     0.046 A 
HETATM    6  C15 UNL     1      25.102   5.786  49.030  1.00  0.00     0.060 A 
HETATM    7  C16 UNL     1      25.372   4.668  49.976  1.00  0.00     0.013 C 
HETATM    8  C17 UNL     1      25.084   3.330  49.305  1.00  0.00     0.001 C 
HETATM    9  C18 UNL     1      23.649   3.339  48.948  1.00  0.00     0.000 C 
HETATM   10  C19 UNL     1      22.947   2.271  48.244  1.00  0.00     0.006 C 
HETATM   11  C20 UNL     1      21.474   2.698  48.107  1.00  0.00     0.072 C 
HETATM   12  C21 UNL     1      21.221   3.923  47.351  1.00  0.00     0.217 A 
HETATM   13  O3  UNL     1      22.109   4.545  46.745  1.00  0.00     0.000 OA
HETATM   14  N2  UNL     1      20.963   5.119  46.613  1.00  0.00     0.338 N 
HETATM   15  O4  UNL     1      22.036   5.752  45.969  1.00  0.00     0.000 OA
HETATM   16  H27 UNL     1      19.936   5.449  46.611  1.00  0.00     0.366 HD
ENDROOT
BRANCH   3  17
HETATM   17  C5  UNL     1      22.792   6.448  49.942  1.00  0.00     0.288 C 
BRANCH  17  18
HETATM   18  N1  UNL     1      23.001   6.361  51.334  1.00  0.00     0.088 N 
HETATM   19  H7  UNL     1      22.893   7.289  51.821  1.00  0.00     0.316 HD
BRANCH  18  20
HETATM   20  C6  UNL     1      21.995   5.487  51.910  1.00  0.00     0.308 C 
BRANCH  20  21
HETATM   21  C7  UNL     1      22.513   4.130  52.222  1.00  0.00    -0.030 A 
HETATM   22  C8  UNL     1      21.833   2.942  51.969  1.00  0.00     0.012 A 
HETATM   23  C9  UNL     1      22.423   1.743  52.305  1.00  0.00     0.043 A 
HETATM   24  C10 UNL     1      23.661   1.691  52.883  1.00  0.00     0.116 A 
HETATM   25  F1  UNL     1      24.131   0.450  53.166  1.00  0.00    -0.206 F 
HETATM   26  C11 UNL     1      24.358   2.866  53.145  1.00  0.00     0.043 A 
HETATM   27  C12 UNL     1      23.761   4.054  52.807  1.00  0.00     0.012 A 
ENDBRANCH  20  21
ENDBRANCH  18  20
ENDBRANCH  17  18
ENDBRANCH   3  17
BRANCH   1  28
HETATM   28  O1  UNL     1      22.448   7.071  45.224  1.00  0.00    -0.353 OA
HETATM   29  C1  UNL     1      22.453   8.458  44.927  1.00  0.00     0.210 C 
ENDBRANCH   1  28
BRANCH   5  30
HETATM   30  O2  UNL     1      27.250   7.198  49.687  1.00  0.00    -0.365 OA
HETATM   31  H15 UNL     1      27.946   6.617  49.234  1.00  0.00     0.217 HD
ENDBRANCH   5  30
TORSDOF 6
ENDMDL
