MODEL 1
REMARK VINA RESULT:      -8.3      0.000      0.000
REMARK  6 active torsions:
REMARK  status: ('A' for Active; 'I' for Inactive)
REMARK    1  A    between atoms: C7_7  and  N1_8 
REMARK    2  A    between atoms: C15_18  and  N4_19 
REMARK    3  A    between atoms: C15_18  and  C16_20 
REMARK    4  A    between atoms: C16_20  and  C17_21 
REMARK    5  A    between atoms: C17_21  and  C18_22 
REMARK    6  A    between atoms: C18_22  and  N5_23 
ROOT
HETATM    1  N1  UNL     1      21.855   2.028  49.595  1.00  0.00    -0.257 N 
HETATM    2  N2  UNL     1      21.979   1.551  48.333  1.00  0.00    -0.287 N 
HETATM    3  C8  UNL     1      22.251   2.278  47.152  1.00  0.00     0.224 A 
HETATM    4  N3  UNL     1      22.405   3.581  47.279  1.00  0.00    -0.241 NA
HETATM    5  C9  UNL     1      22.296   4.156  48.542  1.00  0.00     0.081 A 
HETATM    6  C10 UNL     1      22.333   5.483  48.851  1.00  0.00     0.019 A 
HETATM    7  C11 UNL     1      22.072   5.487  50.231  1.00  0.00     0.014 A 
HETATM    8  C12 UNL     1      21.835   5.476  51.481  1.00  0.00     0.025 A 
HETATM    9  C13 UNL     1      21.882   4.101  50.792  1.00  0.00     0.049 A 
HETATM   10  C14 UNL     1      22.033   3.392  49.680  1.00  0.00     0.075 A 
HETATM   11  C15 UNL     1      22.498   3.240  51.999  1.00  0.00     0.038 C 
HETATM   12  C24 UNL     1      23.143   4.664  52.432  1.00  0.00     0.034 C 
HETATM   13  O2  UNL     1      21.960   5.423  51.684  1.00  0.00     0.000 OA
HETATM   14  H7  UNL     1      21.864   0.546  48.190  1.00  0.00     0.188 HD
ENDROOT
BRANCH  11  15
HETATM   15  N4  UNL     1      21.658   3.059  53.063  1.00  0.00    -0.420 N 
HETATM   16  H11 UNL     1      21.941   3.150  54.030  1.00  0.00     0.150 HD
HETATM   17  H12 UNL     1      20.662   2.846  52.897  1.00  0.00     0.150 HD
ENDBRANCH  11  15
BRANCH  11  18
HETATM   18  C16 UNL     1      23.792   2.613  51.796  1.00  0.00     0.033 C 
BRANCH  18  19
HETATM   19  C17 UNL     1      24.528   2.505  53.112  1.00  0.00     0.022 C 
BRANCH  19  20
HETATM   20  C18 UNL     1      25.127   1.115  53.160  1.00  0.00     0.126 C 
BRANCH  20  21
HETATM   21  N5  UNL     1      26.498   1.063  53.550  1.00  0.00    -0.352 N 
HETATM   22  C19 UNL     1      27.359   2.011  52.850  1.00  0.00     0.125 C 
HETATM   23  C20 UNL     1      28.564   2.391  53.666  1.00  0.00     0.020 C 
HETATM   24  C21 UNL     1      29.338   1.234  54.202  1.00  0.00     0.011 C 
HETATM   25  C22 UNL     1      28.573  -0.045  54.278  1.00  0.00     0.103 C 
HETATM   26  C23 UNL     1      27.117   0.201  54.530  1.00  0.00     0.219 C 
HETATM   27  O1  UNL     1      26.297  -0.183  55.424  1.00  0.00    -0.273 OA
ENDBRANCH  20  21
ENDBRANCH  19  20
ENDBRANCH  18  19
ENDBRANCH  11  18
BRANCH   1  28
HETATM   28  C7  UNL     1      21.369   1.266  50.666  1.00  0.00     0.057 C 
HETATM   29  C6  UNL     1      19.882   1.540  50.619  1.00  0.00     0.031 C 
HETATM   30  C5  UNL     1      18.901   1.076  51.425  1.00  0.00     0.003 C 
HETATM   31  C4  UNL     1      19.046   0.167  52.575  1.00  0.00     0.013 C 
HETATM   32  C3  UNL     1      20.035  -0.602  52.851  1.00  0.00    -0.019 C 
HETATM   33  C2  UNL     1      21.265  -0.403  52.550  1.00  0.00    -0.049 C 
HETATM   34  C1  UNL     1      22.320  -1.095  53.340  1.00  0.00     0.049 C 
HETATM   35  C25 UNL     1      21.881   0.415  51.527  1.00  0.00     0.039 C 
ENDBRANCH   1  28
TORSDOF 6
ENDMDL
MODEL 2
REMARK VINA RESULT:      -8.2      8.352     10.178
REMARK  6 active torsions:
REMARK  status: ('A' for Active; 'I' for Inactive)
REMARK    1  A    between atoms: C7_7  and  N1_8 
REMARK    2  A    between atoms: C15_18  and  N4_19 
REMARK    3  A    between atoms: C15_18  and  C16_20 
REMARK    4  A    between atoms: C16_20  and  C17_21 
REMARK    5  A    between atoms: C17_21  and  C18_22 
REMARK    6  A    between atoms: C18_22  and  N5_23 
ROOT
HETATM    1  N1  UNL     1      29.104   8.848  46.139  1.00  0.00    -0.257 N 
HETATM    2  N2  UNL     1      29.182   8.712  44.793  1.00  0.00    -0.287 N 
HETATM    3  C8  UNL     1      29.874   9.535  43.876  1.00  0.00     0.224 A 
HETATM    4  N3  UNL     1      30.527  10.565  44.377  1.00  0.00    -0.241 NA
HETATM    5  C9  UNL     1      30.502  10.778  45.753  1.00  0.00     0.081 A 
HETATM    6  C10 UNL     1      31.036  11.831  46.434  1.00  0.00     0.019 A 
HETATM    7  C11 UNL     1      30.626  11.584  47.755  1.00  0.00     0.014 A 
HETATM    8  C12 UNL     1      30.247  11.348  48.947  1.00  0.00     0.025 A 
HETATM    9  C13 UNL     1      29.819  10.318  47.887  1.00  0.00     0.049 A 
HETATM   10  C14 UNL     1      29.808   9.931  46.617  1.00  0.00     0.075 A 
HETATM   11  C15 UNL     1      29.872   8.994  48.794  1.00  0.00     0.038 C 
HETATM   12  C24 UNL     1      30.980   9.839  49.625  1.00  0.00     0.034 C 
HETATM   13  O2  UNL     1      30.313  11.197  49.126  1.00  0.00     0.000 OA
HETATM   14  H7  UNL     1      28.688   7.929  44.364  1.00  0.00     0.188 HD
ENDROOT
BRANCH  11  15
HETATM   15  N4  UNL     1      28.903   8.917  49.755  1.00  0.00    -0.420 N 
HETATM   16  H11 UNL     1      29.013   9.263  50.700  1.00  0.00     0.150 HD
HETATM   17  H12 UNL     1      27.982   8.514  49.522  1.00  0.00     0.150 HD
ENDBRANCH  11  15
BRANCH  11  18
HETATM   18  C16 UNL     1      30.814   7.953  48.422  1.00  0.00     0.033 C 
BRANCH  18  19
HETATM   19  C17 UNL     1      31.733   7.647  49.582  1.00  0.00     0.022 C 
BRANCH  19  20
HETATM   20  C18 UNL     1      31.856   6.139  49.651  1.00  0.00     0.126 C 
BRANCH  20  21
HETATM   21  N5  UNL     1      32.633   5.549  48.611  1.00  0.00    -0.352 N 
HETATM   22  C19 UNL     1      34.075   5.691  48.783  1.00  0.00     0.125 C 
HETATM   23  C20 UNL     1      34.837   4.587  48.103  1.00  0.00     0.020 C 
HETATM   24  C21 UNL     1      34.470   4.371  46.673  1.00  0.00     0.011 C 
HETATM   25  C22 UNL     1      33.130   4.902  46.288  1.00  0.00     0.103 C 
HETATM   26  C23 UNL     1      32.169   4.850  47.436  1.00  0.00     0.219 C 
HETATM   27  O1  UNL     1      31.025   4.321  47.607  1.00  0.00    -0.273 OA
ENDBRANCH  20  21
ENDBRANCH  19  20
ENDBRANCH  18  19
ENDBRANCH  11  18
BRANCH   1  28
HETATM   28  C7  UNL     1      28.218   8.115  46.940  1.00  0.00     0.057 C 
HETATM   29  C6  UNL     1      27.016   9.030  47.028  1.00  0.00     0.031 C 
HETATM   30  C5  UNL     1      25.849   8.849  47.685  1.00  0.00     0.003 C 
HETATM   31  C4  UNL     1      25.453   7.684  48.495  1.00  0.00     0.013 C 
HETATM   32  C3  UNL     1      25.967   6.509  48.490  1.00  0.00    -0.019 C 
HETATM   33  C2  UNL     1      27.185   6.208  48.223  1.00  0.00    -0.049 C 
HETATM   34  C1  UNL     1      27.736   4.921  48.727  1.00  0.00     0.049 C 
HETATM   35  C25 UNL     1      28.206   6.917  47.481  1.00  0.00     0.039 C 
ENDBRANCH   1  28
TORSDOF 6
ENDMDL
MODEL 3
REMARK VINA RESULT:      -8.1      3.281      4.787
REMARK  6 active torsions:
REMARK  status: ('A' for Active; 'I' for Inactive)
REMARK    1  A    between atoms: C7_7  and  N1_8 
REMARK    2  A    between atoms: C15_18  and  N4_19 
REMARK    3  A    between atoms: C15_18  and  C16_20 
REMARK    4  A    between atoms: C16_20  and  C17_21 
REMARK    5  A    between atoms: C17_21  and  C18_22 
REMARK    6  A    between atoms: C18_22  and  N5_23 
ROOT
HETATM    1  N1  UNL     1      22.451   1.648  50.642  1.00  0.00    -0.257 N 
HETATM    2  N2  UNL     1      21.820   0.911  49.696  1.00  0.00    -0.287 N 
HETATM    3  C8  UNL     1      20.753   1.305  48.856  1.00  0.00     0.224 A 
HETATM    4  N3  UNL     1      20.307   2.537  49.000  1.00  0.00    -0.241 NA
HETATM    5  C9  UNL     1      20.902   3.365  49.949  1.00  0.00     0.081 A 
HETATM    6  C10 UNL     1      20.519   4.625  50.299  1.00  0.00     0.019 A 
HETATM    7  C11 UNL     1      21.391   4.931  51.357  1.00  0.00     0.014 A 
HETATM    8  C12 UNL     1      22.188   5.194  52.314  1.00  0.00     0.025 A 
HETATM    9  C13 UNL     1      22.358   3.815  51.656  1.00  0.00     0.049 A 
HETATM   10  C14 UNL     1      21.958   2.930  50.750  1.00  0.00     0.075 A 
HETATM   11  C15 UNL     1      23.949   3.663  51.808  1.00  0.00     0.038 C 
HETATM   12  C24 UNL     1      23.914   5.284  51.780  1.00  0.00     0.034 C 
HETATM   13  O2  UNL     1      22.422   5.258  52.336  1.00  0.00     0.000 OA
HETATM   14  H7  UNL     1      22.132  -0.050  49.554  1.00  0.00     0.188 HD
ENDROOT
BRANCH  11  15
HETATM   15  N4  UNL     1      24.389   3.485  53.090  1.00  0.00    -0.420 N 
HETATM   16  H11 UNL     1      25.246   3.881  53.455  1.00  0.00     0.150 HD
HETATM   17  H12 UNL     1      23.817   2.944  53.757  1.00  0.00     0.150 HD
ENDBRANCH  11  15
BRANCH  11  18
HETATM   18  C16 UNL     1      24.742   3.569  50.595  1.00  0.00     0.033 C 
BRANCH  18  19
HETATM   19  C17 UNL     1      25.193   4.945  50.163  1.00  0.00     0.022 C 
BRANCH  19  20
HETATM   20  C18 UNL     1      26.367   4.742  49.228  1.00  0.00     0.126 C 
BRANCH  20  21
HETATM   21  N5  UNL     1      27.055   5.935  48.857  1.00  0.00    -0.352 N 
HETATM   22  C19 UNL     1      26.361   7.166  49.219  1.00  0.00     0.125 C 
HETATM   23  C20 UNL     1      27.312   8.315  49.418  1.00  0.00     0.020 C 
HETATM   24  C21 UNL     1      28.266   8.530  48.291  1.00  0.00     0.011 C 
HETATM   25  C22 UNL     1      28.470   7.341  47.413  1.00  0.00     0.103 C 
HETATM   26  C23 UNL     1      28.324   6.061  48.179  1.00  0.00     0.219 C 
HETATM   27  O1  UNL     1      29.077   5.054  48.368  1.00  0.00    -0.273 OA
ENDBRANCH  20  21
ENDBRANCH  19  20
ENDBRANCH  18  19
ENDBRANCH  11  18
BRANCH   1  28
HETATM   28  C7  UNL     1      23.347   1.107  51.574  1.00  0.00     0.057 C 
HETATM   29  C6  UNL     1      22.425   0.548  52.634  1.00  0.00     0.031 C 
HETATM   30  C5  UNL     1      22.732  -0.088  53.787  1.00  0.00     0.003 C 
HETATM   31  C4  UNL     1      24.076  -0.399  54.303  1.00  0.00     0.013 C 
HETATM   32  C3  UNL     1      25.182  -0.425  53.655  1.00  0.00    -0.019 C 
HETATM   33  C2  UNL     1      25.481   0.277  52.625  1.00  0.00    -0.049 C 
HETATM   34  C1  UNL     1      26.916   0.501  52.297  1.00  0.00     0.049 C 
HETATM   35  C25 UNL     1      24.649   0.945  51.645  1.00  0.00     0.039 C 
ENDBRANCH   1  28
TORSDOF 6
ENDMDL
MODEL 4
REMARK VINA RESULT:      -8.1      2.327      7.166
REMARK  6 active torsions:
REMARK  status: ('A' for Active; 'I' for Inactive)
REMARK    1  A    between atoms: C7_7  and  N1_8 
REMARK    2  A    between atoms: C15_18  and  N4_19 
REMARK    3  A    between atoms: C15_18  and  C16_20 
REMARK    4  A    between atoms: C16_20  and  C17_21 
REMARK    5  A    between atoms: C17_21  and  C18_22 
REMARK    6  A    between atoms: C18_22  and  N5_23 
ROOT
HETATM    1  N1  UNL     1      24.401   1.406  52.103  1.00  0.00    -0.257 N 
HETATM    2  N2  UNL     1      25.649   0.879  52.096  1.00  0.00    -0.287 N 
HETATM    3  C8  UNL     1      26.097  -0.303  52.728  1.00  0.00     0.224 A 
HETATM    4  N3  UNL     1      25.201  -0.985  53.414  1.00  0.00    -0.241 NA
HETATM    5  C9  UNL     1      23.892  -0.516  53.472  1.00  0.00     0.081 A 
HETATM    6  C10 UNL     1      22.862  -1.033  54.200  1.00  0.00     0.019 A 
HETATM    7  C11 UNL     1      21.825  -0.113  53.965  1.00  0.00     0.014 A 
HETATM    8  C12 UNL     1      20.896   0.727  53.744  1.00  0.00     0.025 A 
HETATM    9  C13 UNL     1      22.237   1.005  53.043  1.00  0.00     0.049 A 
HETATM   10  C14 UNL     1      23.498   0.655  52.823  1.00  0.00     0.075 A 
HETATM   11  C15 UNL     1      21.676   1.662  51.690  1.00  0.00     0.038 C 
HETATM   12  C24 UNL     1      20.374   0.750  52.012  1.00  0.00     0.034 C 
HETATM   13  O2  UNL     1      20.743   0.777  53.561  1.00  0.00     0.000 OA
HETATM   14  H7  UNL     1      26.374   1.378  51.578  1.00  0.00     0.188 HD
ENDROOT
BRANCH  11  15
HETATM   15  N4  UNL     1      21.109   2.897  51.843  1.00  0.00    -0.420 N 
HETATM   16  H11 UNL     1      20.553   3.357  51.134  1.00  0.00     0.150 HD
HETATM   17  H12 UNL     1      21.213   3.400  52.738  1.00  0.00     0.150 HD
ENDBRANCH  11  15
BRANCH  11  18
HETATM   18  C16 UNL     1      21.954   0.982  50.438  1.00  0.00     0.033 C 
BRANCH  18  19
HETATM   19  C17 UNL     1      20.793   1.152  49.486  1.00  0.00     0.022 C 
BRANCH  19  20
HETATM   20  C18 UNL     1      21.361   1.733  48.208  1.00  0.00     0.126 C 
BRANCH  20  21
HETATM   21  N5  UNL     1      20.728   2.928  47.756  1.00  0.00    -0.352 N 
HETATM   22  C19 UNL     1      19.878   3.572  48.752  1.00  0.00     0.125 C 
HETATM   23  C20 UNL     1      19.760   5.054  48.523  1.00  0.00     0.020 C 
HETATM   24  C21 UNL     1      19.369   5.436  47.134  1.00  0.00     0.011 C 
HETATM   25  C22 UNL     1      19.631   4.388  46.104  1.00  0.00     0.103 C 
HETATM   26  C23 UNL     1      20.826   3.556  46.459  1.00  0.00     0.219 C 
HETATM   27  O1  UNL     1      21.918   3.280  45.868  1.00  0.00    -0.273 OA
ENDBRANCH  20  21
ENDBRANCH  19  20
ENDBRANCH  18  19
ENDBRANCH  11  18
BRANCH   1  28
HETATM   28  C7  UNL     1      24.102   2.692  51.633  1.00  0.00     0.057 C 
HETATM   29  C6  UNL     1      24.023   3.502  52.908  1.00  0.00     0.031 C 
HETATM   30  C5  UNL     1      23.753   4.816  53.073  1.00  0.00     0.003 C 
HETATM   31  C4  UNL     1      23.463   5.805  52.020  1.00  0.00     0.013 C 
HETATM   32  C3  UNL     1      23.709   5.715  50.765  1.00  0.00    -0.019 C 
HETATM   33  C2  UNL     1      23.757   4.639  50.070  1.00  0.00    -0.049 C 
HETATM   34  C1  UNL     1      23.560   4.723  48.598  1.00  0.00     0.049 C 
HETATM   35  C25 UNL     1      23.977   3.260  50.454  1.00  0.00     0.039 C 
ENDBRANCH   1  28
TORSDOF 6
ENDMDL
MODEL 5
REMARK VINA RESULT:      -8.0      2.906      6.520
REMARK  6 active torsions:
REMARK  status: ('A' for Active; 'I' for Inactive)
REMARK    1  A    between atoms: C7_7  and  N1_8 
REMARK    2  A    between atoms: C15_18  and  N4_19 
REMARK    3  A    between atoms: C15_18  and  C16_20 
REMARK    4  A    between atoms: C16_20  and  C17_21 
REMARK    5  A    between atoms: C17_21  and  C18_22 
REMARK    6  A    between atoms: C18_22  and  N5_23 
ROOT
HETATM    1  N1  UNL     1      22.976   3.453  51.572  1.00  0.00    -0.257 N 
HETATM    2  N2  UNL     1      23.411   4.605  52.136  1.00  0.00    -0.287 N 
HETATM    3  C8  UNL     1      23.725   5.823  51.492  1.00  0.00     0.224 A 
HETATM    4  N3  UNL     1      23.581   5.857  50.182  1.00  0.00    -0.241 NA
HETATM    5  C9  UNL     1      23.134   4.716  49.521  1.00  0.00     0.081 A 
HETATM    6  C10 UNL     1      23.014   4.537  48.176  1.00  0.00     0.019 A 
HETATM    7  C11 UNL     1      22.629   3.189  48.076  1.00  0.00     0.014 A 
HETATM    8  C12 UNL     1      22.281   1.967  48.001  1.00  0.00     0.025 A 
HETATM    9  C13 UNL     1      22.495   2.522  49.420  1.00  0.00     0.049 A 
HETATM   10  C14 UNL     1      22.831   3.539  50.205  1.00  0.00     0.075 A 
HETATM   11  C15 UNL     1      21.371   1.671  50.190  1.00  0.00     0.038 C 
HETATM   12  C24 UNL     1      20.656   1.659  48.734  1.00  0.00     0.034 C 
HETATM   13  O2  UNL     1      22.077   1.840  48.038  1.00  0.00     0.000 OA
HETATM   14  H7  UNL     1      23.539   4.621  53.149  1.00  0.00     0.188 HD
ENDROOT
BRANCH  11  15
HETATM   15  N4  UNL     1      21.639   0.335  50.302  1.00  0.00    -0.420 N 
HETATM   16  H11 UNL     1      20.932  -0.375  50.446  1.00  0.00     0.150 HD
HETATM   17  H12 UNL     1      22.609  -0.002  50.206  1.00  0.00     0.150 HD
ENDBRANCH  11  15
BRANCH  11  18
HETATM   18  C16 UNL     1      20.282   2.396  50.819  1.00  0.00     0.033 C 
BRANCH  18  19
HETATM   19  C17 UNL     1      18.958   1.936  50.255  1.00  0.00     0.022 C 
BRANCH  19  20
HETATM   20  C18 UNL     1      17.947   2.044  51.377  1.00  0.00     0.126 C 
BRANCH  20  21
HETATM   21  N5  UNL     1      17.308   0.820  51.733  1.00  0.00    -0.352 N 
HETATM   22  C19 UNL     1      18.213  -0.320  51.845  1.00  0.00     0.125 C 
HETATM   23  C20 UNL     1      17.692  -1.365  52.793  1.00  0.00     0.020 C 
HETATM   24  C21 UNL     1      16.290  -1.799  52.525  1.00  0.00     0.011 C 
HETATM   25  C22 UNL     1      15.481  -0.831  51.728  1.00  0.00     0.103 C 
HETATM   26  C23 UNL     1      15.907   0.582  51.985  1.00  0.00     0.219 C 
HETATM   27  O1  UNL     1      15.301   1.629  52.381  1.00  0.00    -0.273 OA
ENDBRANCH  20  21
ENDBRANCH  19  20
ENDBRANCH  18  19
ENDBRANCH  11  18
BRANCH   1  28
HETATM   28  C7  UNL     1      22.901   2.235  52.261  1.00  0.00     0.057 C 
HETATM   29  C6  UNL     1      24.267   1.632  52.016  1.00  0.00     0.031 C 
HETATM   30  C5  UNL     1      24.767   0.448  52.434  1.00  0.00     0.003 C 
HETATM   31  C4  UNL     1      24.085  -0.569  53.253  1.00  0.00     0.013 C 
HETATM   32  C3  UNL     1      23.042  -0.422  53.983  1.00  0.00    -0.019 C 
HETATM   33  C2  UNL     1      22.082   0.405  53.788  1.00  0.00    -0.049 C 
HETATM   34  C1  UNL     1      20.755   0.128  54.402  1.00  0.00     0.049 C 
HETATM   35  C25 UNL     1      22.022   1.642  53.038  1.00  0.00     0.039 C 
ENDBRANCH   1  28
TORSDOF 6
ENDMDL
MODEL 6
REMARK VINA RESULT:      -7.7      9.142     12.302
REMARK  6 active torsions:
REMARK  status: ('A' for Active; 'I' for Inactive)
REMARK    1  A    between atoms: C7_7  and  N1_8 
REMARK    2  A    between atoms: C15_18  and  N4_19 
REMARK    3  A    between atoms: C15_18  and  C16_20 
REMARK    4  A    between atoms: C16_20  and  C17_21 
REMARK    5  A    between atoms: C17_21  and  C18_22 
REMARK    6  A    between atoms: C18_22  and  N5_23 
ROOT
HETATM    1  N1  UNL     1      32.706   6.981  45.056  1.00  0.00    -0.257 N 
HETATM    2  N2  UNL     1      32.589   6.829  43.715  1.00  0.00    -0.287 N 
HETATM    3  C8  UNL     1      33.047   5.755  42.919  1.00  0.00     0.224 A 
HETATM    4  N3  UNL     1      33.666   4.774  43.545  1.00  0.00    -0.241 NA
HETATM    5  C9  UNL     1      33.829   4.848  44.926  1.00  0.00     0.081 A 
HETATM    6  C10 UNL     1      34.516   3.982  45.723  1.00  0.00     0.019 A 
HETATM    7  C11 UNL     1      34.438   4.596  46.985  1.00  0.00     0.014 A 
HETATM    8  C12 UNL     1      34.359   5.162  48.122  1.00  0.00     0.025 A 
HETATM    9  C13 UNL     1      33.656   5.883  46.959  1.00  0.00     0.049 A 
HETATM   10  C14 UNL     1      33.351   5.929  45.668  1.00  0.00     0.075 A 
HETATM   11  C15 UNL     1      32.420   6.510  47.769  1.00  0.00     0.038 C 
HETATM   12  C24 UNL     1      32.663   5.239  48.746  1.00  0.00     0.034 C 
HETATM   13  O2  UNL     1      34.189   5.188  48.294  1.00  0.00     0.000 OA
HETATM   14  H7  UNL     1      32.117   7.568  43.191  1.00  0.00     0.188 HD
ENDROOT
BRANCH  11  15
HETATM   15  N4  UNL     1      32.751   7.511  48.640  1.00  0.00    -0.420 N 
HETATM   16  H11 UNL     1      32.407   7.573  49.589  1.00  0.00     0.150 HD
HETATM   17  H12 UNL     1      33.416   8.244  48.347  1.00  0.00     0.150 HD
ENDBRANCH  11  15
BRANCH  11  18
HETATM   18  C16 UNL     1      31.081   6.086  47.400  1.00  0.00     0.033 C 
BRANCH  18  19
HETATM   19  C17 UNL     1      30.164   6.167  48.598  1.00  0.00     0.022 C 
BRANCH  19  20
HETATM   20  C18 UNL     1      28.866   6.778  48.111  1.00  0.00     0.126 C 
BRANCH  20  21
HETATM   21  N5  UNL     1      27.683   6.145  48.592  1.00  0.00    -0.352 N 
HETATM   22  C19 UNL     1      27.729   4.686  48.564  1.00  0.00     0.125 C 
HETATM   23  C20 UNL     1      26.833   4.072  49.605  1.00  0.00     0.020 C 
HETATM   24  C21 UNL     1      25.430   4.581  49.592  1.00  0.00     0.011 C 
HETATM   25  C22 UNL     1      25.256   5.907  48.930  1.00  0.00     0.103 C 
HETATM   26  C23 UNL     1      26.476   6.763  49.086  1.00  0.00     0.219 C 
HETATM   27  O1  UNL     1      26.686   7.923  49.564  1.00  0.00    -0.273 OA
ENDBRANCH  20  21
ENDBRANCH  19  20
ENDBRANCH  18  19
ENDBRANCH  11  18
BRANCH   1  28
HETATM   28  C7  UNL     1      32.418   8.177  45.727  1.00  0.00     0.057 C 
HETATM   29  C6  UNL     1      33.778   8.828  45.844  1.00  0.00     0.031 C 
HETATM   30  C5  UNL     1      34.118  10.006  46.413  1.00  0.00     0.003 C 
HETATM   31  C4  UNL     1      33.219  10.968  47.075  1.00  0.00     0.013 C 
HETATM   32  C3  UNL     1      31.944  11.052  46.976  1.00  0.00    -0.019 C 
HETATM   33  C2  UNL     1      31.130  10.088  46.747  1.00  0.00    -0.049 C 
HETATM   34  C1  UNL     1      29.704  10.240  47.144  1.00  0.00     0.049 C 
HETATM   35  C25 UNL     1      31.330   8.789  46.139  1.00  0.00     0.039 C 
ENDBRANCH   1  28
TORSDOF 6
ENDMDL
MODEL 7
REMARK VINA RESULT:      -7.6      7.938     10.845
REMARK  6 active torsions:
REMARK  status: ('A' for Active; 'I' for Inactive)
REMARK    1  A    between atoms: C7_7  and  N1_8 
REMARK    2  A    between atoms: C15_18  and  N4_19 
REMARK    3  A    between atoms: C15_18  and  C16_20 
REMARK    4  A    between atoms: C16_20  and  C17_21 
REMARK    5  A    between atoms: C17_21  and  C18_22 
REMARK    6  A    between atoms: C18_22  and  N5_23 
ROOT
HETATM    1  N1  UNL     1      28.377   8.758  48.849  1.00  0.00    -0.257 N 
HETATM    2  N2  UNL     1      29.383   9.096  49.691  1.00  0.00    -0.287 N 
HETATM    3  C8  UNL     1      30.540   9.855  49.402  1.00  0.00     0.224 A 
HETATM    4  N3  UNL     1      30.669  10.294  48.165  1.00  0.00    -0.241 NA
HETATM    5  C9  UNL     1      29.677   9.995  47.234  1.00  0.00     0.081 A 
HETATM    6  C10 UNL     1      29.684  10.282  45.902  1.00  0.00     0.019 A 
HETATM    7  C11 UNL     1      28.506   9.665  45.447  1.00  0.00     0.014 A 
HETATM    8  C12 UNL     1      27.437   9.101  45.049  1.00  0.00     0.025 A 
HETATM    9  C13 UNL     1      27.742   8.984  46.552  1.00  0.00     0.049 A 
HETATM   10  C14 UNL     1      28.550   9.246  47.572  1.00  0.00     0.075 A 
HETATM   11  C15 UNL     1      26.237   9.007  47.111  1.00  0.00     0.038 C 
HETATM   12  C24 UNL     1      25.949   9.849  45.755  1.00  0.00     0.034 C 
HETATM   13  O2  UNL     1      27.199   9.148  45.060  1.00  0.00     0.000 OA
HETATM   14  H7  UNL     1      29.324   8.773  50.658  1.00  0.00     0.188 HD
ENDROOT
BRANCH  11  15
HETATM   15  N4  UNL     1      25.500   7.891  46.825  1.00  0.00    -0.420 N 
HETATM   16  H11 UNL     1      24.742   7.549  47.403  1.00  0.00     0.150 HD
HETATM   17  H12 UNL     1      25.685   7.365  45.958  1.00  0.00     0.150 HD
ENDBRANCH  11  15
BRANCH  11  18
HETATM   18  C16 UNL     1      25.852  10.104  47.982  1.00  0.00     0.033 C 
BRANCH  18  19
HETATM   19  C17 UNL     1      25.529  11.330  47.159  1.00  0.00     0.022 C 
BRANCH  19  20
HETATM   20  C18 UNL     1      25.769  12.528  48.054  1.00  0.00     0.126 C 
BRANCH  20  21
HETATM   21  N5  UNL     1      26.913  13.310  47.720  1.00  0.00    -0.352 N 
HETATM   22  C19 UNL     1      26.688  14.279  46.652  1.00  0.00     0.125 C 
HETATM   23  C20 UNL     1      27.615  15.460  46.754  1.00  0.00     0.020 C 
HETATM   24  C21 UNL     1      29.059  15.103  46.880  1.00  0.00     0.011 C 
HETATM   25  C22 UNL     1      29.316  13.717  47.370  1.00  0.00     0.103 C 
HETATM   26  C23 UNL     1      28.235  13.253  48.297  1.00  0.00     0.219 C 
HETATM   27  O1  UNL     1      28.224  12.817  49.493  1.00  0.00    -0.273 OA
ENDBRANCH  20  21
ENDBRANCH  19  20
ENDBRANCH  18  19
ENDBRANCH  11  18
BRANCH   1  28
HETATM   28  C7  UNL     1      27.384   7.822  49.167  1.00  0.00     0.057 C 
HETATM   29  C6  UNL     1      27.912   6.552  48.536  1.00  0.00     0.031 C 
HETATM   30  C5  UNL     1      27.364   5.317  48.512  1.00  0.00     0.003 C 
HETATM   31  C4  UNL     1      26.087   4.895  49.113  1.00  0.00     0.013 C 
HETATM   32  C3  UNL     1      25.407   5.495  50.019  1.00  0.00    -0.019 C 
HETATM   33  C2  UNL     1      25.361   6.759  50.230  1.00  0.00    -0.049 C 
HETATM   34  C1  UNL     1      24.192   7.327  50.954  1.00  0.00     0.049 C 
HETATM   35  C25 UNL     1      26.280   7.822  49.881  1.00  0.00     0.039 C 
ENDBRANCH   1  28
TORSDOF 6
ENDMDL
MODEL 8
REMARK VINA RESULT:      -7.5      8.345     11.194
REMARK  6 active torsions:
REMARK  status: ('A' for Active; 'I' for Inactive)
REMARK    1  A    between atoms: C7_7  and  N1_8 
REMARK    2  A    between atoms: C15_18  and  N4_19 
REMARK    3  A    between atoms: C15_18  and  C16_20 
REMARK    4  A    between atoms: C16_20  and  C17_21 
REMARK    5  A    between atoms: C17_21  and  C18_22 
REMARK    6  A    between atoms: C18_22  and  N5_23 
ROOT
HETATM    1  N1  UNL     1      30.959   9.250  46.009  1.00  0.00    -0.257 N 
HETATM    2  N2  UNL     1      31.073   9.576  44.700  1.00  0.00    -0.287 N 
HETATM    3  C8  UNL     1      31.916   8.990  43.728  1.00  0.00     0.224 A 
HETATM    4  N3  UNL     1      32.691   8.003  44.132  1.00  0.00    -0.241 NA
HETATM    5  C9  UNL     1      32.636   7.601  45.464  1.00  0.00     0.081 A 
HETATM    6  C10 UNL     1      33.421   6.671  46.077  1.00  0.00     0.019 A 
HETATM    7  C11 UNL     1      33.003   6.749  47.417  1.00  0.00     0.014 A 
HETATM    8  C12 UNL     1      32.616   6.831  48.626  1.00  0.00     0.025 A 
HETATM    9  C13 UNL     1      31.907   7.761  47.626  1.00  0.00     0.049 A 
HETATM   10  C14 UNL     1      31.781   8.209  46.383  1.00  0.00     0.075 A 
HETATM   11  C15 UNL     1      30.446   7.771  48.293  1.00  0.00     0.038 C 
HETATM   12  C24 UNL     1      30.896   6.313  48.843  1.00  0.00     0.034 C 
HETATM   13  O2  UNL     1      32.423   6.756  48.755  1.00  0.00     0.000 OA
HETATM   14  H7  UNL     1      30.492  10.338  44.346  1.00  0.00     0.188 HD
ENDROOT
BRANCH  11  15
HETATM   15  N4  UNL     1      30.364   8.431  49.488  1.00  0.00    -0.420 N 
HETATM   16  H11 UNL     1      31.082   9.048  49.845  1.00  0.00     0.150 HD
HETATM   17  H12 UNL     1      29.516   8.336  50.067  1.00  0.00     0.150 HD
ENDBRANCH  11  15
BRANCH  11  18
HETATM   18  C16 UNL     1      29.341   7.237  47.517  1.00  0.00     0.033 C 
BRANCH  18  19
HETATM   19  C17 UNL     1      28.697   6.087  48.255  1.00  0.00     0.022 C 
BRANCH  19  20
HETATM   20  C18 UNL     1      27.295   6.532  48.615  1.00  0.00     0.126 C 
BRANCH  20  21
HETATM   21  N5  UNL     1      26.482   5.531  49.223  1.00  0.00    -0.352 N 
HETATM   22  C19 UNL     1      26.979   4.169  49.056  1.00  0.00     0.125 C 
HETATM   23  C20 UNL     1      26.531   3.262  50.169  1.00  0.00     0.020 C 
HETATM   24  C21 UNL     1      25.062   3.285  50.432  1.00  0.00     0.011 C 
HETATM   25  C22 UNL     1      24.360   4.503  49.931  1.00  0.00     0.103 C 
HETATM   26  C23 UNL     1      25.254   5.704  49.963  1.00  0.00     0.219 C 
HETATM   27  O1  UNL     1      25.172   6.853  50.503  1.00  0.00    -0.273 OA
ENDBRANCH  20  21
ENDBRANCH  19  20
ENDBRANCH  18  19
ENDBRANCH  11  18
BRANCH   1  28
HETATM   28  C7  UNL     1      30.261  10.028  46.943  1.00  0.00     0.057 C 
HETATM   29  C6  UNL     1      31.338  10.942  47.484  1.00  0.00     0.031 C 
HETATM   30  C5  UNL     1      31.249  11.906  48.427  1.00  0.00     0.003 C 
HETATM   31  C4  UNL     1      30.047  12.312  49.176  1.00  0.00     0.013 C 
HETATM   32  C3  UNL     1      28.820  12.079  48.883  1.00  0.00    -0.019 C 
HETATM   33  C2  UNL     1      28.367  11.066  48.240  1.00  0.00    -0.049 C 
HETATM   34  C1  UNL     1      26.937  10.688  48.408  1.00  0.00     0.049 C 
HETATM   35  C25 UNL     1      29.008  10.150  47.320  1.00  0.00     0.039 C 
ENDBRANCH   1  28
TORSDOF 6
ENDMDL
MODEL 9
REMARK VINA RESULT:      -7.2      3.047      7.053
REMARK  6 active torsions:
REMARK  status: ('A' for Active; 'I' for Inactive)
REMARK    1  A    between atoms: C7_7  and  N1_8 
REMARK    2  A    between atoms: C15_18  and  N4_19 
REMARK    3  A    between atoms: C15_18  and  C16_20 
REMARK    4  A    between atoms: C16_20  and  C17_21 
REMARK    5  A    between atoms: C17_21  and  C18_22 
REMARK    6  A    between atoms: C18_22  and  N5_23 
ROOT
HETATM    1  N1  UNL     1      23.220   3.263  51.523  1.00  0.00    -0.257 N 
HETATM    2  N2  UNL     1      23.806   4.385  52.006  1.00  0.00    -0.287 N 
HETATM    3  C8  UNL     1      24.175   5.549  51.294  1.00  0.00     0.224 A 
HETATM    4  N3  UNL     1      23.925   5.557  50.000  1.00  0.00    -0.241 NA
HETATM    5  C9  UNL     1      23.321   4.444  49.420  1.00  0.00     0.081 A 
HETATM    6  C10 UNL     1      23.072   4.238  48.096  1.00  0.00     0.019 A 
HETATM    7  C11 UNL     1      22.558   2.930  48.078  1.00  0.00     0.014 A 
HETATM    8  C12 UNL     1      22.094   1.746  48.077  1.00  0.00     0.025 A 
HETATM    9  C13 UNL     1      22.476   2.319  49.453  1.00  0.00     0.049 A 
HETATM   10  C14 UNL     1      22.969   3.322  50.169  1.00  0.00     0.075 A 
HETATM   11  C15 UNL     1      21.348   1.601  50.342  1.00  0.00     0.038 C 
HETATM   12  C24 UNL     1      20.514   1.615  48.950  1.00  0.00     0.034 C 
HETATM   13  O2  UNL     1      21.882   1.639  48.135  1.00  0.00     0.000 OA
HETATM   14  H7  UNL     1      24.020   4.419  53.004  1.00  0.00     0.188 HD
ENDROOT
BRANCH  11  15
HETATM   15  N4  UNL     1      21.500   0.250  50.482  1.00  0.00    -0.420 N 
HETATM   16  H11 UNL     1      22.147  -0.307  49.938  1.00  0.00     0.150 HD
HETATM   17  H12 UNL     1      20.957  -0.254  51.200  1.00  0.00     0.150 HD
ENDBRANCH  11  15
BRANCH  11  18
HETATM   18  C16 UNL     1      20.387   2.444  51.030  1.00  0.00     0.033 C 
BRANCH  18  19
HETATM   19  C17 UNL     1      18.980   2.030  50.667  1.00  0.00     0.022 C 
BRANCH  19  20
HETATM   20  C18 UNL     1      18.054   2.763  51.616  1.00  0.00     0.126 C 
BRANCH  20  21
HETATM   21  N5  UNL     1      16.866   3.279  51.020  1.00  0.00    -0.352 N 
HETATM   22  C19 UNL     1      17.097   4.316  50.019  1.00  0.00     0.125 C 
HETATM   23  C20 UNL     1      15.993   4.374  48.999  1.00  0.00     0.020 C 
HETATM   24  C21 UNL     1      14.620   4.463  49.578  1.00  0.00     0.011 C 
HETATM   25  C22 UNL     1      14.510   3.997  50.991  1.00  0.00     0.103 C 
HETATM   26  C23 UNL     1      15.496   2.908  51.288  1.00  0.00     0.219 C 
HETATM   27  O1  UNL     1      15.394   1.718  51.727  1.00  0.00    -0.273 OA
ENDBRANCH  20  21
ENDBRANCH  19  20
ENDBRANCH  18  19
ENDBRANCH  11  18
BRANCH   1  28
HETATM   28  C7  UNL     1      23.092   2.078  52.260  1.00  0.00     0.057 C 
HETATM   29  C6  UNL     1      24.438   1.418  52.062  1.00  0.00     0.031 C 
HETATM   30  C5  UNL     1      24.890   0.236  52.537  1.00  0.00     0.003 C 
HETATM   31  C4  UNL     1      24.160  -0.721  53.387  1.00  0.00     0.013 C 
HETATM   32  C3  UNL     1      23.112  -0.507  54.093  1.00  0.00    -0.019 C 
HETATM   33  C2  UNL     1      22.185   0.345  53.848  1.00  0.00    -0.049 C 
HETATM   34  C1  UNL     1      20.840   0.140  54.451  1.00  0.00     0.049 C 
HETATM   35  C25 UNL     1      22.180   1.550  53.046  1.00  0.00     0.039 C 
ENDBRANCH   1  28
TORSDOF 6
ENDMDL
