MODEL 1
REMARK VINA RESULT:      -7.7      0.000      0.000
REMARK  5 active torsions:
REMARK  status: ('A' for Active; 'I' for Inactive)
REMARK    1  A    between atoms: C2_2  and  C6_8 
REMARK    2  A    between atoms: C3_3  and  C4_4 
REMARK    3  A    between atoms: C6_8  and  C7_9 
REMARK       I    between atoms: C7_9  and  N1_11 
REMARK    4  A    between atoms: N1_11  and  S1_12 
REMARK    5  A    between atoms: S1_12  and  C8_15 
ROOT
HETATM    1  C7  UNL     1      24.269   1.834  52.881  1.00  0.00     0.235 C 
HETATM    2  O1  UNL     1      24.820   2.831  53.447  1.00  0.00    -0.272 OA
HETATM    3  N1  UNL     1      23.454   2.099  51.744  1.00  0.00    -0.250 N 
HETATM    4  H8  UNL     1      23.036   1.228  51.334  1.00  0.00     0.181 HD
ENDROOT
BRANCH   3   5
HETATM    5  S1  UNL     1      23.277   3.731  51.226  1.00  0.00     0.265 S 
HETATM    6  O2  UNL     1      22.070   3.955  50.377  1.00  0.00    -0.200 OA
HETATM    7  O3  UNL     1      23.118   4.599  52.455  1.00  0.00    -0.200 OA
BRANCH   5   8
HETATM    8  C8  UNL     1      24.713   4.283  50.371  1.00  0.00     0.080 A 
HETATM    9  C9  UNL     1      25.645   3.295  50.031  1.00  0.00     0.026 A 
HETATM   10  C10 UNL     1      26.794   3.674  49.356  1.00  0.00     0.008 A 
HETATM   11  C11 UNL     1      27.013   5.005  49.026  1.00  0.00    -0.062 A 
HETATM   12  C12 UNL     1      28.233   5.477  48.298  1.00  0.00     0.048 C 
HETATM   13  C13 UNL     1      26.080   5.963  49.371  1.00  0.00     0.008 A 
HETATM   14  C14 UNL     1      24.927   5.610  50.045  1.00  0.00     0.026 A 
ENDBRANCH   5   8
ENDBRANCH   3   5
BRANCH   1  15
HETATM   15  C6  UNL     1      24.578   0.535  53.519  1.00  0.00     0.137 C 
BRANCH  15  16
HETATM   16  C2  UNL     1      25.995   0.244  53.222  1.00  0.00    -0.075 C 
HETATM   17  C1  UNL     1      26.419   0.090  51.811  1.00  0.00     0.044 C 
HETATM   18  C3  UNL     1      26.858   0.125  54.214  1.00  0.00     0.007 C 
BRANCH  18  19
HETATM   19  C4  UNL     1      28.265  -0.156  54.090  1.00  0.00     0.055 C 
HETATM   20  C5  UNL     1      29.249   0.714  53.869  1.00  0.00     0.185 C 
HETATM   21  F1  UNL     1      30.547   0.276  53.777  1.00  0.00    -0.193 F 
HETATM   22 CL1  UNL     1      28.800   2.399  53.707  1.00  0.00    -0.051 Cl
ENDBRANCH  18  19
ENDBRANCH  15  16
ENDBRANCH   1  15
TORSDOF 5
ENDMDL
MODEL 2
REMARK VINA RESULT:      -7.7      1.594      1.763
REMARK  5 active torsions:
REMARK  status: ('A' for Active; 'I' for Inactive)
REMARK    1  A    between atoms: C2_2  and  C6_8 
REMARK    2  A    between atoms: C3_3  and  C4_4 
REMARK    3  A    between atoms: C6_8  and  C7_9 
REMARK       I    between atoms: C7_9  and  N1_11 
REMARK    4  A    between atoms: N1_11  and  S1_12 
REMARK    5  A    between atoms: S1_12  and  C8_15 
ROOT
HETATM    1  C7  UNL     1      24.319   0.934  52.603  1.00  0.00     0.235 C 
HETATM    2  O1  UNL     1      23.236   1.358  53.115  1.00  0.00    -0.272 OA
HETATM    3  N1  UNL     1      24.964   1.778  51.654  1.00  0.00    -0.250 N 
HETATM    4  H8  UNL     1      25.851   1.359  51.278  1.00  0.00     0.181 HD
ENDROOT
BRANCH   3   5
HETATM    5  S1  UNL     1      24.236   3.291  51.275  1.00  0.00     0.265 S 
HETATM    6  O2  UNL     1      22.917   3.158  50.589  1.00  0.00    -0.200 OA
HETATM    7  O3  UNL     1      23.987   4.029  52.571  1.00  0.00    -0.200 OA
BRANCH   5   8
HETATM    8  C8  UNL     1      25.313   4.284  50.299  1.00  0.00     0.080 A 
HETATM    9  C9  UNL     1      26.402   3.624  49.717  1.00  0.00     0.026 A 
HETATM   10  C10 UNL     1      27.282   4.358  48.938  1.00  0.00     0.008 A 
HETATM   11  C11 UNL     1      27.084   5.718  48.741  1.00  0.00    -0.062 A 
HETATM   12  C12 UNL     1      27.998   6.565  47.911  1.00  0.00     0.048 C 
HETATM   13  C13 UNL     1      26.003   6.349  49.325  1.00  0.00     0.008 A 
HETATM   14  C14 UNL     1      25.113   5.639  50.106  1.00  0.00     0.026 A 
ENDBRANCH   5   8
ENDBRANCH   3   5
BRANCH   1  15
HETATM   15  C6  UNL     1      24.736  -0.398  53.094  1.00  0.00     0.137 C 
BRANCH  15  16
HETATM   16  C2  UNL     1      26.089  -0.236  53.662  1.00  0.00    -0.075 C 
HETATM   17  C1  UNL     1      26.232   0.126  55.092  1.00  0.00     0.044 C 
HETATM   18  C3  UNL     1      27.146  -0.415  52.891  1.00  0.00     0.007 C 
BRANCH  18  19
HETATM   19  C4  UNL     1      28.523  -0.294  53.293  1.00  0.00     0.055 C 
HETATM   20  C5  UNL     1      29.408  -1.275  53.458  1.00  0.00     0.185 C 
HETATM   21  F1  UNL     1      30.693  -0.985  53.848  1.00  0.00    -0.193 F 
HETATM   22 CL1  UNL     1      28.851  -2.909  53.160  1.00  0.00    -0.051 Cl
ENDBRANCH  18  19
ENDBRANCH  15  16
ENDBRANCH   1  15
TORSDOF 5
ENDMDL
MODEL 3
REMARK VINA RESULT:      -7.5      2.059      2.786
REMARK  5 active torsions:
REMARK  status: ('A' for Active; 'I' for Inactive)
REMARK    1  A    between atoms: C2_2  and  C6_8 
REMARK    2  A    between atoms: C3_3  and  C4_4 
REMARK    3  A    between atoms: C6_8  and  C7_9 
REMARK       I    between atoms: C7_9  and  N1_11 
REMARK    4  A    between atoms: N1_11  and  S1_12 
REMARK    5  A    between atoms: S1_12  and  C8_15 
ROOT
HETATM    1  C7  UNL     1      24.346   3.199  52.117  1.00  0.00     0.235 C 
HETATM    2  O1  UNL     1      23.154   3.251  51.680  1.00  0.00    -0.272 OA
HETATM    3  N1  UNL     1      25.359   3.807  51.321  1.00  0.00    -0.250 N 
HETATM    4  H8  UNL     1      26.314   3.722  51.748  1.00  0.00     0.181 HD
ENDROOT
BRANCH   3   5
HETATM    5  S1  UNL     1      24.897   4.559  49.843  1.00  0.00     0.265 S 
HETATM    6  O2  UNL     1      24.220   3.629  48.892  1.00  0.00    -0.200 OA
HETATM    7  O3  UNL     1      23.909   5.658  50.165  1.00  0.00    -0.200 OA
BRANCH   5   8
HETATM    8  C8  UNL     1      26.282   5.307  49.054  1.00  0.00     0.080 A 
HETATM    9  C9  UNL     1      26.086   6.607  48.570  1.00  0.00     0.026 A 
HETATM   10  C10 UNL     1      27.144   7.244  47.941  1.00  0.00     0.008 A 
HETATM   11  C11 UNL     1      28.368   6.604  47.795  1.00  0.00    -0.062 A 
HETATM   12  C12 UNL     1      29.547   7.238  47.126  1.00  0.00     0.048 C 
HETATM   13  C13 UNL     1      28.538   5.322  48.281  1.00  0.00     0.008 A 
HETATM   14  C14 UNL     1      27.498   4.666  48.911  1.00  0.00     0.026 A 
ENDBRANCH   5   8
ENDBRANCH   3   5
BRANCH   1  15
HETATM   15  C6  UNL     1      24.482   2.496  53.413  1.00  0.00     0.137 C 
BRANCH  15  16
HETATM   16  C2  UNL     1      24.624   1.060  53.102  1.00  0.00    -0.075 C 
HETATM   17  C1  UNL     1      23.410   0.216  53.019  1.00  0.00     0.044 C 
HETATM   18  C3  UNL     1      25.827   0.552  52.905  1.00  0.00     0.007 C 
BRANCH  18  19
HETATM   19  C4  UNL     1      26.131  -0.821  52.595  1.00  0.00     0.055 C 
HETATM   20  C5  UNL     1      27.278  -1.465  52.805  1.00  0.00     0.185 C 
HETATM   21  F1  UNL     1      27.402  -2.785  52.449  1.00  0.00    -0.193 F 
HETATM   22 CL1  UNL     1      28.580  -0.552  53.540  1.00  0.00    -0.051 Cl
ENDBRANCH  18  19
ENDBRANCH  15  16
ENDBRANCH   1  15
TORSDOF 5
ENDMDL
MODEL 4
REMARK VINA RESULT:      -7.4      3.526      5.913
REMARK  5 active torsions:
REMARK  status: ('A' for Active; 'I' for Inactive)
REMARK    1  A    between atoms: C2_2  and  C6_8 
REMARK    2  A    between atoms: C3_3  and  C4_4 
REMARK    3  A    between atoms: C6_8  and  C7_9 
REMARK       I    between atoms: C7_9  and  N1_11 
REMARK    4  A    between atoms: N1_11  and  S1_12 
REMARK    5  A    between atoms: S1_12  and  C8_15 
ROOT
HETATM    1  C7  UNL     1      24.778   2.199  52.889  1.00  0.00     0.235 C 
HETATM    2  O1  UNL     1      24.748   3.018  51.916  1.00  0.00    -0.272 OA
HETATM    3  N1  UNL     1      23.611   1.415  53.117  1.00  0.00    -0.250 N 
HETATM    4  H8  UNL     1      23.714   0.766  53.935  1.00  0.00     0.181 HD
ENDROOT
BRANCH   3   5
HETATM    5  S1  UNL     1      22.262   1.632  52.071  1.00  0.00     0.265 S 
HETATM    6  O2  UNL     1      21.761   3.038  52.034  1.00  0.00    -0.200 OA
HETATM    7  O3  UNL     1      22.697   1.281  50.665  1.00  0.00    -0.200 OA
BRANCH   5   8
HETATM    8  C8  UNL     1      20.945   0.546  52.503  1.00  0.00     0.080 A 
HETATM    9  C9  UNL     1      19.791   0.634  51.716  1.00  0.00     0.026 A 
HETATM   10  C10 UNL     1      18.723  -0.199  52.012  1.00  0.00     0.008 A 
HETATM   11  C11 UNL     1      18.801  -1.099  53.067  1.00  0.00    -0.062 A 
HETATM   12  C12 UNL     1      17.684  -2.024  53.437  1.00  0.00     0.048 C 
HETATM   13  C13 UNL     1      19.950  -1.168  53.830  1.00  0.00     0.008 A 
HETATM   14  C14 UNL     1      21.027  -0.348  53.554  1.00  0.00     0.026 A 
ENDBRANCH   5   8
ENDBRANCH   3   5
BRANCH   1  15
HETATM   15  C6  UNL     1      26.055   2.202  53.637  1.00  0.00     0.137 C 
BRANCH  15  16
HETATM   16  C2  UNL     1      26.439   0.789  53.823  1.00  0.00    -0.075 C 
HETATM   17  C1  UNL     1      26.256   0.161  55.153  1.00  0.00     0.044 C 
HETATM   18  C3  UNL     1      26.939   0.109  52.808  1.00  0.00     0.007 C 
BRANCH  18  19
HETATM   19  C4  UNL     1      27.360  -1.268  52.829  1.00  0.00     0.055 C 
HETATM   20  C5  UNL     1      28.575  -1.740  53.098  1.00  0.00     0.185 C 
HETATM   21  F1  UNL     1      28.809  -3.093  53.075  1.00  0.00    -0.193 F 
HETATM   22 CL1  UNL     1      29.821  -0.566  53.468  1.00  0.00    -0.051 Cl
ENDBRANCH  18  19
ENDBRANCH  15  16
ENDBRANCH   1  15
TORSDOF 5
ENDMDL
MODEL 5
REMARK VINA RESULT:      -7.3      3.434      6.528
REMARK  5 active torsions:
REMARK  status: ('A' for Active; 'I' for Inactive)
REMARK    1  A    between atoms: C2_2  and  C6_8 
REMARK    2  A    between atoms: C3_3  and  C4_4 
REMARK    3  A    between atoms: C6_8  and  C7_9 
REMARK       I    between atoms: C7_9  and  N1_11 
REMARK    4  A    between atoms: N1_11  and  S1_12 
REMARK    5  A    between atoms: S1_12  and  C8_15 
ROOT
HETATM    1  C7  UNL     1      26.206   2.655  50.669  1.00  0.00     0.235 C 
HETATM    2  O1  UNL     1      27.250   2.853  51.366  1.00  0.00    -0.272 OA
HETATM    3  N1  UNL     1      25.096   2.043  51.318  1.00  0.00    -0.250 N 
HETATM    4  H8  UNL     1      24.274   1.914  50.678  1.00  0.00     0.181 HD
ENDROOT
BRANCH   3   5
HETATM    5  S1  UNL     1      25.249   1.622  52.980  1.00  0.00     0.265 S 
HETATM    6  O2  UNL     1      25.288   2.806  53.889  1.00  0.00    -0.200 OA
HETATM    7  O3  UNL     1      24.038   0.805  53.370  1.00  0.00    -0.200 OA
BRANCH   5   8
HETATM    8  C8  UNL     1      26.672   0.621  53.250  1.00  0.00     0.080 A 
HETATM    9  C9  UNL     1      26.715  -0.590  52.549  1.00  0.00     0.026 A 
HETATM   10  C10 UNL     1      27.813  -1.417  52.725  1.00  0.00     0.008 A 
HETATM   11  C11 UNL     1      28.845  -1.049  53.577  1.00  0.00    -0.062 A 
HETATM   12  C12 UNL     1      30.056  -1.898  53.809  1.00  0.00     0.048 C 
HETATM   13  C13 UNL     1      28.782   0.150  54.259  1.00  0.00     0.008 A 
HETATM   14  C14 UNL     1      27.697   0.992  54.101  1.00  0.00     0.026 A 
ENDBRANCH   5   8
ENDBRANCH   3   5
BRANCH   1  15
HETATM   15  C6  UNL     1      26.327   3.106  49.264  1.00  0.00     0.137 C 
BRANCH  15  16
HETATM   16  C2  UNL     1      26.496   4.572  49.303  1.00  0.00    -0.075 C 
HETATM   17  C1  UNL     1      27.666   5.181  48.630  1.00  0.00     0.044 C 
HETATM   18  C3  UNL     1      25.605   5.314  49.935  1.00  0.00     0.007 C 
BRANCH  18  19
HETATM   19  C4  UNL     1      25.628   6.748  50.063  1.00  0.00     0.055 C 
HETATM   20  C5  UNL     1      24.628   7.546  50.433  1.00  0.00     0.185 C 
HETATM   21  F1  UNL     1      24.820   8.904  50.504  1.00  0.00    -0.193 F 
HETATM   22 CL1  UNL     1      23.099   6.780  50.811  1.00  0.00    -0.051 Cl
ENDBRANCH  18  19
ENDBRANCH  15  16
ENDBRANCH   1  15
TORSDOF 5
ENDMDL
MODEL 6
REMARK VINA RESULT:      -7.2      3.498      5.104
REMARK  5 active torsions:
REMARK  status: ('A' for Active; 'I' for Inactive)
REMARK    1  A    between atoms: C2_2  and  C6_8 
REMARK    2  A    between atoms: C3_3  and  C4_4 
REMARK    3  A    between atoms: C6_8  and  C7_9 
REMARK       I    between atoms: C7_9  and  N1_11 
REMARK    4  A    between atoms: N1_11  and  S1_12 
REMARK    5  A    between atoms: S1_12  and  C8_15 
ROOT
HETATM    1  C7  UNL     1      21.145   2.872  51.705  1.00  0.00     0.235 C 
HETATM    2  O1  UNL     1      21.670   2.137  50.811  1.00  0.00    -0.272 OA
HETATM    3  N1  UNL     1      21.873   4.027  52.111  1.00  0.00    -0.250 N 
HETATM    4  H8  UNL     1      21.374   4.580  52.851  1.00  0.00     0.181 HD
ENDROOT
BRANCH   3   5
HETATM    5  S1  UNL     1      23.394   4.339  51.367  1.00  0.00     0.265 S 
HETATM    6  O2  UNL     1      23.335   4.334  49.875  1.00  0.00    -0.200 OA
HETATM    7  O3  UNL     1      23.846   5.719  51.787  1.00  0.00    -0.200 OA
BRANCH   5   8
HETATM    8  C8  UNL     1      24.613   3.192  51.915  1.00  0.00     0.080 A 
HETATM    9  C9  UNL     1      25.488   2.708  50.935  1.00  0.00     0.026 A 
HETATM   10  C10 UNL     1      26.467   1.804  51.312  1.00  0.00     0.008 A 
HETATM   11  C11 UNL     1      26.576   1.389  52.632  1.00  0.00    -0.062 A 
HETATM   12  C12 UNL     1      27.611   0.415  53.101  1.00  0.00     0.048 C 
HETATM   13  C13 UNL     1      25.702   1.880  53.582  1.00  0.00     0.008 A 
HETATM   14  C14 UNL     1      24.716   2.782  53.231  1.00  0.00     0.026 A 
ENDBRANCH   5   8
ENDBRANCH   3   5
BRANCH   1  15
HETATM   15  C6  UNL     1      19.831   2.387  52.185  1.00  0.00     0.137 C 
BRANCH  15  16
HETATM   16  C2  UNL     1      20.070   1.077  52.823  1.00  0.00    -0.075 C 
HETATM   17  C1  UNL     1      19.410  -0.127  52.267  1.00  0.00     0.044 C 
HETATM   18  C3  UNL     1      20.866   0.999  53.874  1.00  0.00     0.007 C 
BRANCH  18  19
HETATM   19  C4  UNL     1      21.197  -0.197  54.604  1.00  0.00     0.055 C 
HETATM   20  C5  UNL     1      22.227  -1.015  54.394  1.00  0.00     0.185 C 
HETATM   21  F1  UNL     1      22.400  -2.122  55.189  1.00  0.00    -0.193 F 
HETATM   22 CL1  UNL     1      23.314  -0.606  53.083  1.00  0.00    -0.051 Cl
ENDBRANCH  18  19
ENDBRANCH  15  16
ENDBRANCH   1  15
TORSDOF 5
ENDMDL
MODEL 7
REMARK VINA RESULT:      -7.2      3.167      3.758
REMARK  5 active torsions:
REMARK  status: ('A' for Active; 'I' for Inactive)
REMARK    1  A    between atoms: C2_2  and  C6_8 
REMARK    2  A    between atoms: C3_3  and  C4_4 
REMARK    3  A    between atoms: C6_8  and  C7_9 
REMARK       I    between atoms: C7_9  and  N1_11 
REMARK    4  A    between atoms: N1_11  and  S1_12 
REMARK    5  A    between atoms: S1_12  and  C8_15 
ROOT
HETATM    1  C7  UNL     1      25.294   2.572  52.228  1.00  0.00     0.235 C 
HETATM    2  O1  UNL     1      25.569   1.910  51.178  1.00  0.00    -0.272 OA
HETATM    3  N1  UNL     1      24.620   3.815  52.056  1.00  0.00    -0.250 N 
HETATM    4  H8  UNL     1      24.429   4.300  52.967  1.00  0.00     0.181 HD
ENDROOT
BRANCH   3   5
HETATM    5  S1  UNL     1      24.230   4.321  50.457  1.00  0.00     0.265 S 
HETATM    6  O2  UNL     1      23.704   3.219  49.599  1.00  0.00    -0.200 OA
HETATM    7  O3  UNL     1      23.142   5.367  50.549  1.00  0.00    -0.200 OA
BRANCH   5   8
HETATM    8  C8  UNL     1      25.619   5.069  49.675  1.00  0.00     0.080 A 
HETATM    9  C9  UNL     1      26.621   4.197  49.233  1.00  0.00     0.026 A 
HETATM   10  C10 UNL     1      27.736   4.733  48.609  1.00  0.00     0.008 A 
HETATM   11  C11 UNL     1      27.854   6.104  48.429  1.00  0.00    -0.062 A 
HETATM   12  C12 UNL     1      29.033   6.743  47.764  1.00  0.00     0.048 C 
HETATM   13  C13 UNL     1      26.854   6.946  48.874  1.00  0.00     0.008 A 
HETATM   14  C14 UNL     1      25.732   6.436  49.498  1.00  0.00     0.026 A 
ENDBRANCH   5   8
ENDBRANCH   3   5
BRANCH   1  15
HETATM   15  C6  UNL     1      25.735   1.921  53.482  1.00  0.00     0.137 C 
BRANCH  15  16
HETATM   16  C2  UNL     1      25.149   0.566  53.484  1.00  0.00    -0.075 C 
HETATM   17  C1  UNL     1      26.045  -0.608  53.374  1.00  0.00     0.044 C 
HETATM   18  C3  UNL     1      23.840   0.423  53.584  1.00  0.00     0.007 C 
BRANCH  18  19
HETATM   19  C4  UNL     1      23.119  -0.824  53.600  1.00  0.00     0.055 C 
HETATM   20  C5  UNL     1      21.882  -1.039  54.044  1.00  0.00     0.185 C 
HETATM   21  F1  UNL     1      21.339  -2.299  53.987  1.00  0.00    -0.193 F 
HETATM   22 CL1  UNL     1      21.016   0.341  54.688  1.00  0.00    -0.051 Cl
ENDBRANCH  18  19
ENDBRANCH  15  16
ENDBRANCH   1  15
TORSDOF 5
ENDMDL
MODEL 8
REMARK VINA RESULT:      -7.1      1.531      2.365
REMARK  5 active torsions:
REMARK  status: ('A' for Active; 'I' for Inactive)
REMARK    1  A    between atoms: C2_2  and  C6_8 
REMARK    2  A    between atoms: C3_3  and  C4_4 
REMARK    3  A    between atoms: C6_8  and  C7_9 
REMARK       I    between atoms: C7_9  and  N1_11 
REMARK    4  A    between atoms: N1_11  and  S1_12 
REMARK    5  A    between atoms: S1_12  and  C8_15 
ROOT
HETATM    1  C7  UNL     1      22.476   1.570  51.867  1.00  0.00     0.235 C 
HETATM    2  O1  UNL     1      21.662   2.349  52.454  1.00  0.00    -0.272 OA
HETATM    3  N1  UNL     1      23.454   2.168  51.021  1.00  0.00    -0.250 N 
HETATM    4  H8  UNL     1      24.088   1.461  50.573  1.00  0.00     0.181 HD
ENDROOT
BRANCH   3   5
HETATM    5  S1  UNL     1      23.460   3.882  50.860  1.00  0.00     0.265 S 
HETATM    6  O2  UNL     1      22.264   4.412  50.141  1.00  0.00    -0.200 OA
HETATM    7  O3  UNL     1      23.444   4.483  52.247  1.00  0.00    -0.200 OA
BRANCH   5   8
HETATM    8  C8  UNL     1      24.927   4.437  50.060  1.00  0.00     0.080 A 
HETATM    9  C9  UNL     1      24.985   5.803  49.760  1.00  0.00     0.026 A 
HETATM   10  C10 UNL     1      26.118   6.294  49.130  1.00  0.00     0.008 A 
HETATM   11  C11 UNL     1      27.169   5.447  48.806  1.00  0.00    -0.062 A 
HETATM   12  C12 UNL     1      28.417   5.916  48.126  1.00  0.00     0.048 C 
HETATM   13  C13 UNL     1      27.089   4.102  49.111  1.00  0.00     0.008 A 
HETATM   14  C14 UNL     1      25.971   3.589  49.738  1.00  0.00     0.026 A 
ENDBRANCH   5   8
ENDBRANCH   3   5
BRANCH   1  15
HETATM   15  C6  UNL     1      22.263   0.137  52.170  1.00  0.00     0.137 C 
BRANCH  15  16
HETATM   16  C2  UNL     1      23.166  -0.198  53.288  1.00  0.00    -0.075 C 
HETATM   17  C1  UNL     1      22.612  -0.872  54.486  1.00  0.00     0.044 C 
HETATM   18  C3  UNL     1      24.448   0.106  53.204  1.00  0.00     0.007 C 
BRANCH  18  19
HETATM   19  C4  UNL     1      25.452  -0.153  54.204  1.00  0.00     0.055 C 
HETATM   20  C5  UNL     1      26.755   0.114  54.133  1.00  0.00     0.185 C 
HETATM   21  F1  UNL     1      27.581  -0.200  55.184  1.00  0.00    -0.193 F 
HETATM   22 CL1  UNL     1      27.334   0.865  52.660  1.00  0.00    -0.051 Cl
ENDBRANCH  18  19
ENDBRANCH  15  16
ENDBRANCH   1  15
TORSDOF 5
ENDMDL
MODEL 9
REMARK VINA RESULT:      -6.9      4.121      7.105
REMARK  5 active torsions:
REMARK  status: ('A' for Active; 'I' for Inactive)
REMARK    1  A    between atoms: C2_2  and  C6_8 
REMARK    2  A    between atoms: C3_3  and  C4_4 
REMARK    3  A    between atoms: C6_8  and  C7_9 
REMARK       I    between atoms: C7_9  and  N1_11 
REMARK    4  A    between atoms: N1_11  and  S1_12 
REMARK    5  A    between atoms: S1_12  and  C8_15 
ROOT
HETATM    1  C7  UNL     1      26.458   2.440  51.340  1.00  0.00     0.235 C 
HETATM    2  O1  UNL     1      26.514   1.308  50.764  1.00  0.00    -0.272 OA
HETATM    3  N1  UNL     1      26.527   2.451  52.763  1.00  0.00    -0.250 N 
HETATM    4  H8  UNL     1      26.473   3.420  53.163  1.00  0.00     0.181 HD
ENDROOT
BRANCH   3   5
HETATM    5  S1  UNL     1      26.680   0.947  53.587  1.00  0.00     0.265 S 
HETATM    6  O2  UNL     1      27.553  -0.032  52.874  1.00  0.00    -0.200 OA
HETATM    7  O3  UNL     1      27.319   1.212  54.931  1.00  0.00    -0.200 OA
BRANCH   5   8
HETATM    8  C8  UNL     1      25.101   0.225  53.885  1.00  0.00     0.080 A 
HETATM    9  C9  UNL     1      24.047   0.706  53.099  1.00  0.00     0.026 A 
HETATM   10  C10 UNL     1      22.783   0.172  53.292  1.00  0.00     0.008 A 
HETATM   11  C11 UNL     1      22.571  -0.817  54.243  1.00  0.00    -0.062 A 
HETATM   12  C12 UNL     1      21.231  -1.433  54.498  1.00  0.00     0.048 C 
HETATM   13  C13 UNL     1      23.626  -1.276  55.006  1.00  0.00     0.008 A 
HETATM   14  C14 UNL     1      24.896  -0.759  54.833  1.00  0.00     0.026 A 
ENDBRANCH   5   8
ENDBRANCH   3   5
BRANCH   1  15
HETATM   15  C6  UNL     1      26.326   3.583  50.409  1.00  0.00     0.137 C 
BRANCH  15  16
HETATM   16  C2  UNL     1      24.881   3.841  50.258  1.00  0.00    -0.075 C 
HETATM   17  C1  UNL     1      24.151   4.523  51.352  1.00  0.00     0.044 C 
HETATM   18  C3  UNL     1      24.262   3.462  49.154  1.00  0.00     0.007 C 
BRANCH  18  19
HETATM   19  C4  UNL     1      22.865   3.640  48.857  1.00  0.00     0.055 C 
HETATM   20  C5  UNL     1      21.864   2.806  49.134  1.00  0.00     0.185 C 
HETATM   21  F1  UNL     1      20.578   3.131  48.779  1.00  0.00    -0.193 F 
HETATM   22 CL1  UNL     1      22.276   1.313  49.952  1.00  0.00    -0.051 Cl
ENDBRANCH  18  19
ENDBRANCH  15  16
ENDBRANCH   1  15
TORSDOF 5
ENDMDL
