MODEL 1
REMARK VINA RESULT:      -9.7      0.000      0.000
REMARK  6 active torsions:
REMARK  status: ('A' for Active; 'I' for Inactive)
REMARK    1  A    between atoms: N3_11  and  C7_12 
REMARK    2  A    between atoms: C7_12  and  C8_13 
REMARK    3  A    between atoms: C8_13  and  C9_14 
REMARK    4  A    between atoms: C9_14  and  N4_15 
REMARK    5  A    between atoms: C18_24  and  N5_25 
REMARK    6  A    between atoms: N5_25  and  C19_26 
ROOT
HETATM    1  N1  UNL     1      21.488  -1.990  54.739  1.00  0.00    -0.170 NA
HETATM    2  C1  UNL     1      22.184  -1.130  54.349  1.00  0.00     0.206 C 
HETATM    3  N2  UNL     1      22.992  -0.091  53.890  1.00  0.00    -0.173 NA
HETATM    4  C2  UNL     1      22.513   0.916  53.243  1.00  0.00     0.083 A 
HETATM    5  C3  UNL     1      21.084   0.992  52.973  1.00  0.00     0.072 A 
HETATM    6  C4  UNL     1      20.569   2.014  52.311  1.00  0.00     0.098 A 
HETATM    7  O1  UNL     1      19.195   2.021  52.089  1.00  0.00    -0.340 OA
HETATM    8  C5  UNL     1      18.551   3.048  51.357  1.00  0.00     0.279 A 
HETATM    9  C6  UNL     1      19.482   4.112  50.945  1.00  0.00     0.248 A 
HETATM   10  O2  UNL     1      18.870   5.055  50.352  1.00  0.00    -0.271 OA
HETATM   11  N3  UNL     1      20.913   4.200  51.125  1.00  0.00    -0.314 N 
HETATM   12  C15 UNL     1      21.442   3.084  51.844  1.00  0.00     0.071 A 
HETATM   13  C16 UNL     1      22.753   3.096  52.045  1.00  0.00     0.048 A 
HETATM   14  C17 UNL     1      23.365   1.989  52.770  1.00  0.00     0.011 A 
HETATM   15  C18 UNL     1      24.666   1.992  52.979  1.00  0.00     0.102 C 
ENDROOT
BRANCH  15  16
HETATM   16  N5  UNL     1      25.349   0.960  53.676  1.00  0.00    -0.365 N 
HETATM   17  H22 UNL     1      25.136   0.175  54.332  1.00  0.00     0.165 HD
BRANCH  16  18
HETATM   18  C19 UNL     1      26.767   0.699  53.638  1.00  0.00     0.033 A 
HETATM   19  C20 UNL     1      27.697   1.709  53.768  1.00  0.00     0.032 A 
HETATM   20  C21 UNL     1      29.050   1.394  53.723  1.00  0.00     0.046 A 
HETATM   21  C22 UNL     1      29.391   0.077  53.548  1.00  0.00     0.138 A 
HETATM   22  F1  UNL     1      30.716  -0.258  53.498  1.00  0.00    -0.204 F 
HETATM   23  C23 UNL     1      28.514  -0.976  53.411  1.00  0.00     0.074 A 
HETATM   24 CL1  UNL     1      29.046  -2.630  53.192  1.00  0.00    -0.081 Cl
HETATM   25  C24 UNL     1      27.163  -0.631  53.462  1.00  0.00     0.056 A 
ENDBRANCH  16  18
ENDBRANCH  15  16
BRANCH  11  26
HETATM   26  C7  UNL     1      21.637   5.335  50.594  1.00  0.00     0.134 C 
BRANCH  26  27
HETATM   27  C8  UNL     1      22.277   5.047  49.258  1.00  0.00     0.050 C 
BRANCH  27  28
HETATM   28  C9  UNL     1      23.377   5.956  48.873  1.00  0.00     0.274 C 
BRANCH  28  29
HETATM   29  N4  UNL     1      24.682   5.409  48.815  1.00  0.00     0.088 N 
HETATM   30  C10 UNL     1      24.858   4.120  49.408  1.00  0.00     0.272 C 
HETATM   31  C11 UNL     1      26.313   3.838  49.728  1.00  0.00     0.030 C 
HETATM   32  C12 UNL     1      27.246   4.591  48.824  1.00  0.00     0.003 C 
HETATM   33  C13 UNL     1      26.998   6.069  48.762  1.00  0.00     0.030 C 
HETATM   34  C14 UNL     1      25.649   6.379  49.326  1.00  0.00     0.272 C 
ENDBRANCH  28  29
ENDBRANCH  27  28
ENDBRANCH  26  27
ENDBRANCH  11  26
TORSDOF 6
ENDMDL
MODEL 2
REMARK VINA RESULT:      -9.5      3.704      6.644
REMARK  6 active torsions:
REMARK  status: ('A' for Active; 'I' for Inactive)
REMARK    1  A    between atoms: N3_11  and  C7_12 
REMARK    2  A    between atoms: C7_12  and  C8_13 
REMARK    3  A    between atoms: C8_13  and  C9_14 
REMARK    4  A    between atoms: C9_14  and  N4_15 
REMARK    5  A    between atoms: C18_24  and  N5_25 
REMARK    6  A    between atoms: N5_25  and  C19_26 
ROOT
HETATM    1  N1  UNL     1      29.410   1.882  54.322  1.00  0.00    -0.170 NA
HETATM    2  C1  UNL     1      28.522   2.010  53.566  1.00  0.00     0.206 C 
HETATM    3  N2  UNL     1      27.451   2.160  52.686  1.00  0.00    -0.173 NA
HETATM    4  C2  UNL     1      26.324   1.562  52.870  1.00  0.00     0.083 A 
HETATM    5  C3  UNL     1      26.141   0.698  54.028  1.00  0.00     0.072 A 
HETATM    6  C4  UNL     1      24.994   0.074  54.238  1.00  0.00     0.098 A 
HETATM    7  O1  UNL     1      24.890  -0.736  55.365  1.00  0.00    -0.340 OA
HETATM    8  C5  UNL     1      23.721  -1.478  55.659  1.00  0.00     0.279 A 
HETATM    9  C6  UNL     1      22.639  -1.227  54.692  1.00  0.00     0.248 A 
HETATM   10  O2  UNL     1      21.579  -1.849  55.016  1.00  0.00    -0.271 OA
HETATM   11  N3  UNL     1      22.644  -0.412  53.499  1.00  0.00    -0.314 N 
HETATM   12  C15 UNL     1      23.894   0.252  53.298  1.00  0.00     0.071 A 
HETATM   13  C16 UNL     1      23.974   1.018  52.219  1.00  0.00     0.048 A 
HETATM   14  C17 UNL     1      25.219   1.726  51.946  1.00  0.00     0.011 A 
HETATM   15  C18 UNL     1      25.308   2.493  50.878  1.00  0.00     0.102 C 
ENDROOT
BRANCH  15  16
HETATM   16  N5  UNL     1      26.477   3.221  50.534  1.00  0.00    -0.365 N 
HETATM   17  H22 UNL     1      27.508   3.186  50.701  1.00  0.00     0.165 HD
BRANCH  16  18
HETATM   18  C19 UNL     1      26.533   4.409  49.718  1.00  0.00     0.033 A 
HETATM   19  C20 UNL     1      27.652   4.734  48.980  1.00  0.00     0.032 A 
HETATM   20  C21 UNL     1      27.644   5.894  48.213  1.00  0.00     0.046 A 
HETATM   21  C22 UNL     1      26.509   6.663  48.233  1.00  0.00     0.138 A 
HETATM   22  F1  UNL     1      26.477   7.809  47.489  1.00  0.00    -0.204 F 
HETATM   23  C23 UNL     1      25.361   6.395  48.948  1.00  0.00     0.074 A 
HETATM   24 CL1  UNL     1      23.957   7.441  48.910  1.00  0.00    -0.081 Cl
HETATM   25  C24 UNL     1      25.397   5.225  49.708  1.00  0.00     0.056 A 
ENDBRANCH  16  18
ENDBRANCH  15  16
BRANCH  11  26
HETATM   26  C7  UNL     1      21.463  -0.345  52.667  1.00  0.00     0.134 C 
BRANCH  26  27
HETATM   27  C8  UNL     1      20.508   0.742  53.094  1.00  0.00     0.050 C 
BRANCH  27  28
HETATM   28  C9  UNL     1      20.023   1.623  52.009  1.00  0.00     0.274 C 
BRANCH  28  29
HETATM   29  N4  UNL     1      20.912   1.886  50.940  1.00  0.00     0.088 N 
HETATM   30  C10 UNL     1      21.379   3.232  50.816  1.00  0.00     0.272 C 
HETATM   31  C11 UNL     1      21.905   3.525  49.425  1.00  0.00     0.030 C 
HETATM   32  C12 UNL     1      22.416   2.288  48.743  1.00  0.00     0.003 C 
HETATM   33  C13 UNL     1      21.444   1.147  48.709  1.00  0.00     0.030 C 
HETATM   34  C14 UNL     1      20.341   1.392  49.688  1.00  0.00     0.272 C 
ENDBRANCH  28  29
ENDBRANCH  27  28
ENDBRANCH  26  27
ENDBRANCH  11  26
TORSDOF 6
ENDMDL
MODEL 3
REMARK VINA RESULT:      -9.4      1.667      5.158
REMARK  6 active torsions:
REMARK  status: ('A' for Active; 'I' for Inactive)
REMARK    1  A    between atoms: N3_11  and  C7_12 
REMARK    2  A    between atoms: C7_12  and  C8_13 
REMARK    3  A    between atoms: C8_13  and  C9_14 
REMARK    4  A    between atoms: C9_14  and  N4_15 
REMARK    5  A    between atoms: C18_24  and  N5_25 
REMARK    6  A    between atoms: N5_25  and  C19_26 
ROOT
HETATM    1  N1  UNL     1      27.637   4.506  48.573  1.00  0.00    -0.170 NA
HETATM    2  C1  UNL     1      27.087   4.118  49.534  1.00  0.00     0.206 C 
HETATM    3  N2  UNL     1      26.415   3.647  50.661  1.00  0.00    -0.173 NA
HETATM    4  C2  UNL     1      25.128   3.627  50.734  1.00  0.00     0.083 A 
HETATM    5  C3  UNL     1      24.330   4.105  49.613  1.00  0.00     0.072 A 
HETATM    6  C4  UNL     1      23.009   4.093  49.664  1.00  0.00     0.098 A 
HETATM    7  O1  UNL     1      22.311   4.566  48.556  1.00  0.00    -0.340 OA
HETATM    8  C5  UNL     1      20.897   4.633  48.525  1.00  0.00     0.279 A 
HETATM    9  C6  UNL     1      20.282   4.084  49.745  1.00  0.00     0.248 A 
HETATM   10  O2  UNL     1      19.013   4.092  49.664  1.00  0.00    -0.271 OA
HETATM   11  N3  UNL     1      20.911   3.574  50.941  1.00  0.00    -0.314 N 
HETATM   12  C15 UNL     1      22.338   3.595  50.858  1.00  0.00     0.071 A 
HETATM   13  C16 UNL     1      22.985   3.143  51.923  1.00  0.00     0.048 A 
HETATM   14  C17 UNL     1      24.443   3.135  51.913  1.00  0.00     0.011 A 
HETATM   15  C18 UNL     1      25.097   2.684  52.964  1.00  0.00     0.102 C 
ENDROOT
BRANCH  15  16
HETATM   16  N5  UNL     1      26.513   2.637  53.043  1.00  0.00    -0.365 N 
HETATM   17  H22 UNL     1      27.327   3.291  53.037  1.00  0.00     0.165 HD
BRANCH  16  18
HETATM   18  C19 UNL     1      27.321   1.449  53.175  1.00  0.00     0.033 A 
HETATM   19  C20 UNL     1      28.589   1.486  53.716  1.00  0.00     0.032 A 
HETATM   20  C21 UNL     1      29.318   0.307  53.816  1.00  0.00     0.046 A 
HETATM   21  C22 UNL     1      28.729  -0.846  53.363  1.00  0.00     0.138 A 
HETATM   22  F1  UNL     1      29.427  -2.018  53.449  1.00  0.00    -0.204 F 
HETATM   23  C23 UNL     1      27.470  -0.950  52.812  1.00  0.00     0.074 A 
HETATM   24 CL1  UNL     1      26.802  -2.472  52.261  1.00  0.00    -0.081 Cl
HETATM   25  C24 UNL     1      26.761   0.248  52.726  1.00  0.00     0.056 A 
ENDBRANCH  16  18
ENDBRANCH  15  16
BRANCH  11  26
HETATM   26  C7  UNL     1      20.096   3.117  52.046  1.00  0.00     0.134 C 
BRANCH  26  27
HETATM   27  C8  UNL     1      19.442   1.785  51.779  1.00  0.00     0.050 C 
BRANCH  27  28
HETATM   28  C9  UNL     1      20.364   0.685  51.423  1.00  0.00     0.274 C 
BRANCH  28  29
HETATM   29  N4  UNL     1      20.908  -0.075  52.486  1.00  0.00     0.088 N 
HETATM   30  C10 UNL     1      20.303   0.100  53.769  1.00  0.00     0.272 C 
HETATM   31  C11 UNL     1      21.216  -0.349  54.893  1.00  0.00     0.030 C 
HETATM   32  C12 UNL     1      22.179  -1.411  54.447  1.00  0.00     0.003 C 
HETATM   33  C13 UNL     1      22.979  -1.057  53.229  1.00  0.00     0.030 C 
HETATM   34  C14 UNL     1      22.357   0.114  52.538  1.00  0.00     0.272 C 
ENDBRANCH  28  29
ENDBRANCH  27  28
ENDBRANCH  26  27
ENDBRANCH  11  26
TORSDOF 6
ENDMDL
MODEL 4
REMARK VINA RESULT:      -9.0      3.346      6.130
REMARK  6 active torsions:
REMARK  status: ('A' for Active; 'I' for Inactive)
REMARK    1  A    between atoms: N3_11  and  C7_12 
REMARK    2  A    between atoms: C7_12  and  C8_13 
REMARK    3  A    between atoms: C8_13  and  C9_14 
REMARK    4  A    between atoms: C9_14  and  N4_15 
REMARK    5  A    between atoms: C18_24  and  N5_25 
REMARK    6  A    between atoms: N5_25  and  C19_26 
ROOT
HETATM    1  N1  UNL     1      28.742   0.999  53.559  1.00  0.00    -0.170 NA
HETATM    2  C1  UNL     1      27.880   1.378  52.859  1.00  0.00     0.206 C 
HETATM    3  N2  UNL     1      26.840   1.829  52.048  1.00  0.00    -0.173 NA
HETATM    4  C2  UNL     1      25.622   1.437  52.213  1.00  0.00     0.083 A 
HETATM    5  C3  UNL     1      25.301   0.495  53.276  1.00  0.00     0.072 A 
HETATM    6  C4  UNL     1      24.060   0.080  53.466  1.00  0.00     0.098 A 
HETATM    7  O1  UNL     1      23.826  -0.821  54.501  1.00  0.00    -0.340 OA
HETATM    8  C5  UNL     1      22.541  -1.357  54.761  1.00  0.00     0.279 A 
HETATM    9  C6  UNL     1      21.508  -0.797  53.874  1.00  0.00     0.248 A 
HETATM   10  O2  UNL     1      20.355  -1.240  54.173  1.00  0.00    -0.271 OA
HETATM   11  N3  UNL     1      21.645   0.135  52.779  1.00  0.00    -0.314 N 
HETATM   12  C15 UNL     1      22.995   0.570  52.599  1.00  0.00     0.071 A 
HETATM   13  C16 UNL     1      23.198   1.427  51.607  1.00  0.00     0.048 A 
HETATM   14  C17 UNL     1      24.550   1.913  51.361  1.00  0.00     0.011 A 
HETATM   15  C18 UNL     1      24.763   2.768  50.381  1.00  0.00     0.102 C 
ENDROOT
BRANCH  15  16
HETATM   16  N5  UNL     1      26.044   3.297  50.069  1.00  0.00    -0.365 N 
HETATM   17  H22 UNL     1      27.051   3.046  50.184  1.00  0.00     0.165 HD
BRANCH  16  18
HETATM   18  C19 UNL     1      26.310   4.542  49.391  1.00  0.00     0.033 A 
HETATM   19  C20 UNL     1      25.327   5.491  49.199  1.00  0.00     0.032 A 
HETATM   20  C21 UNL     1      25.646   6.671  48.537  1.00  0.00     0.046 A 
HETATM   21  C22 UNL     1      26.938   6.829  48.104  1.00  0.00     0.138 A 
HETATM   22  F1  UNL     1      27.276   7.981  47.450  1.00  0.00    -0.204 F 
HETATM   23  C23 UNL     1      27.963   5.922  48.263  1.00  0.00     0.074 A 
HETATM   24 CL1  UNL     1      29.585   6.214  47.674  1.00  0.00    -0.081 Cl
HETATM   25  C24 UNL     1      27.615   4.747  48.931  1.00  0.00     0.056 A 
ENDBRANCH  16  18
ENDBRANCH  15  16
BRANCH  11  26
HETATM   26  C7  UNL     1      20.482   0.521  52.010  1.00  0.00     0.134 C 
BRANCH  26  27
HETATM   27  C8  UNL     1      19.896   1.837  52.456  1.00  0.00     0.050 C 
BRANCH  27  28
HETATM   28  C9  UNL     1      19.226   2.624  51.399  1.00  0.00     0.274 C 
BRANCH  28  29
HETATM   29  N4  UNL     1      19.996   3.608  50.735  1.00  0.00     0.088 N 
HETATM   30  C10 UNL     1      20.553   3.236  49.472  1.00  0.00     0.272 C 
HETATM   31  C11 UNL     1      21.715   4.127  49.079  1.00  0.00     0.030 C 
HETATM   32  C12 UNL     1      21.609   5.494  49.691  1.00  0.00     0.003 C 
HETATM   33  C13 UNL     1      21.422   5.499  51.179  1.00  0.00     0.030 C 
HETATM   34  C14 UNL     1      21.013   4.137  51.642  1.00  0.00     0.272 C 
ENDBRANCH  28  29
ENDBRANCH  27  28
ENDBRANCH  26  27
ENDBRANCH  11  26
TORSDOF 6
ENDMDL
MODEL 5
REMARK VINA RESULT:      -8.8      4.423      8.267
REMARK  6 active torsions:
REMARK  status: ('A' for Active; 'I' for Inactive)
REMARK    1  A    between atoms: N3_11  and  C7_12 
REMARK    2  A    between atoms: C7_12  and  C8_13 
REMARK    3  A    between atoms: C8_13  and  C9_14 
REMARK    4  A    between atoms: C9_14  and  N4_15 
REMARK    5  A    between atoms: C18_24  and  N5_25 
REMARK    6  A    between atoms: N5_25  and  C19_26 
ROOT
HETATM    1  N1  UNL     1      29.416  10.491  48.354  1.00  0.00    -0.170 NA
HETATM    2  C1  UNL     1      29.379   9.320  48.300  1.00  0.00     0.206 C 
HETATM    3  N2  UNL     1      29.312   7.929  48.230  1.00  0.00    -0.173 NA
HETATM    4  C2  UNL     1      28.255   7.275  48.575  1.00  0.00     0.083 A 
HETATM    5  C3  UNL     1      27.083   7.993  49.056  1.00  0.00     0.072 A 
HETATM    6  C4  UNL     1      25.988   7.345  49.416  1.00  0.00     0.098 A 
HETATM    7  O1  UNL     1      24.905   8.096  49.866  1.00  0.00    -0.340 OA
HETATM    8  C5  UNL     1      23.703   7.497  50.312  1.00  0.00     0.279 A 
HETATM    9  C6  UNL     1      23.718   6.031  50.169  1.00  0.00     0.248 A 
HETATM   10  O2  UNL     1      22.603   5.524  50.510  1.00  0.00    -0.271 OA
HETATM   11  N3  UNL     1      24.781   5.164  49.716  1.00  0.00    -0.314 N 
HETATM   12  C15 UNL     1      25.951   5.890  49.331  1.00  0.00     0.071 A 
HETATM   13  C16 UNL     1      26.971   5.158  48.906  1.00  0.00     0.048 A 
HETATM   14  C17 UNL     1      28.199   5.829  48.498  1.00  0.00     0.011 A 
HETATM   15  C18 UNL     1      29.219   5.112  48.071  1.00  0.00     0.102 C 
ENDROOT
BRANCH  15  16
HETATM   16  N5  UNL     1      30.451   5.677  47.651  1.00  0.00    -0.365 N 
HETATM   17  H22 UNL     1      30.831   6.596  47.331  1.00  0.00     0.165 HD
BRANCH  16  18
HETATM   18  C19 UNL     1      31.714   4.988  47.547  1.00  0.00     0.033 A 
HETATM   19  C20 UNL     1      31.854   3.832  46.807  1.00  0.00     0.032 A 
HETATM   20  C21 UNL     1      33.097   3.214  46.746  1.00  0.00     0.046 A 
HETATM   21  C22 UNL     1      34.132   3.794  47.434  1.00  0.00     0.138 A 
HETATM   22  F1  UNL     1      35.364   3.203  47.391  1.00  0.00    -0.204 F 
HETATM   23  C23 UNL     1      34.058   4.944  48.190  1.00  0.00     0.074 A 
HETATM   24 CL1  UNL     1      35.438   5.611  49.036  1.00  0.00    -0.081 Cl
HETATM   25  C24 UNL     1      32.799   5.544  48.233  1.00  0.00     0.056 A 
ENDBRANCH  16  18
ENDBRANCH  15  16
BRANCH  11  26
HETATM   26  C7  UNL     1      24.583   3.731  49.695  1.00  0.00     0.134 C 
BRANCH  26  27
HETATM   27  C8  UNL     1      24.864   3.082  51.027  1.00  0.00     0.050 C 
BRANCH  27  28
HETATM   28  C9  UNL     1      26.208   2.484  51.170  1.00  0.00     0.274 C 
BRANCH  28  29
HETATM   29  N4  UNL     1      26.288   1.198  51.757  1.00  0.00     0.088 N 
HETATM   30  C10 UNL     1      25.063   0.642  52.240  1.00  0.00     0.272 C 
HETATM   31  C11 UNL     1      25.301  -0.464  53.249  1.00  0.00     0.030 C 
HETATM   32  C12 UNL     1      26.622  -1.146  53.038  1.00  0.00     0.003 C 
HETATM   33  C13 UNL     1      27.801  -0.220  52.984  1.00  0.00     0.030 C 
HETATM   34  C14 UNL     1      27.331   1.185  52.781  1.00  0.00     0.272 C 
ENDBRANCH  28  29
ENDBRANCH  27  28
ENDBRANCH  26  27
ENDBRANCH  11  26
TORSDOF 6
ENDMDL
MODEL 6
REMARK VINA RESULT:      -8.8      4.874      7.866
REMARK  6 active torsions:
REMARK  status: ('A' for Active; 'I' for Inactive)
REMARK    1  A    between atoms: N3_11  and  C7_12 
REMARK    2  A    between atoms: C7_12  and  C8_13 
REMARK    3  A    between atoms: C8_13  and  C9_14 
REMARK    4  A    between atoms: C9_14  and  N4_15 
REMARK    5  A    between atoms: C18_24  and  N5_25 
REMARK    6  A    between atoms: N5_25  and  C19_26 
ROOT
HETATM    1  N1  UNL     1      22.580   7.000  50.411  1.00  0.00    -0.170 NA
HETATM    2  C1  UNL     1      23.418   6.193  50.262  1.00  0.00     0.206 C 
HETATM    3  N2  UNL     1      24.431   5.252  50.087  1.00  0.00    -0.173 NA
HETATM    4  C2  UNL     1      25.551   5.546  49.519  1.00  0.00     0.083 A 
HETATM    5  C3  UNL     1      25.786   6.901  49.038  1.00  0.00     0.072 A 
HETATM    6  C4  UNL     1      26.925   7.227  48.452  1.00  0.00     0.098 A 
HETATM    7  O1  UNL     1      27.081   8.540  48.016  1.00  0.00    -0.340 OA
HETATM    8  C5  UNL     1      28.246   8.980  47.343  1.00  0.00     0.279 A 
HETATM    9  C6  UNL     1      29.267   7.924  47.237  1.00  0.00     0.248 A 
HETATM   10  O2  UNL     1      30.328   8.363  46.692  1.00  0.00    -0.271 OA
HETATM   11  N3  UNL     1      29.205   6.543  47.653  1.00  0.00    -0.314 N 
HETATM   12  C15 UNL     1      27.964   6.218  48.285  1.00  0.00     0.071 A 
HETATM   13  C16 UNL     1      27.835   4.963  48.692  1.00  0.00     0.048 A 
HETATM   14  C17 UNL     1      26.595   4.557  49.344  1.00  0.00     0.011 A 
HETATM   15  C18 UNL     1      26.457   3.313  49.756  1.00  0.00     0.102 C 
ENDROOT
BRANCH  15  16
HETATM   16  N5  UNL     1      25.289   2.829  50.401  1.00  0.00    -0.365 N 
HETATM   17  H22 UNL     1      24.255   2.981  50.383  1.00  0.00     0.165 HD
BRANCH  16  18
HETATM   18  C19 UNL     1      25.240   1.821  51.432  1.00  0.00     0.033 A 
HETATM   19  C20 UNL     1      24.083   1.552  52.134  1.00  0.00     0.032 A 
HETATM   20  C21 UNL     1      24.100   0.569  53.116  1.00  0.00     0.046 A 
HETATM   21  C22 UNL     1      25.282  -0.090  53.337  1.00  0.00     0.138 A 
HETATM   22  F1  UNL     1      25.324  -1.060  54.299  1.00  0.00    -0.204 F 
HETATM   23  C23 UNL     1      26.469   0.131  52.674  1.00  0.00     0.074 A 
HETATM   24 CL1  UNL     1      27.932  -0.764  53.027  1.00  0.00    -0.081 Cl
HETATM   25  C24 UNL     1      26.423   1.122  51.693  1.00  0.00     0.056 A 
ENDBRANCH  16  18
ENDBRANCH  15  16
BRANCH  11  26
HETATM   26  C7  UNL     1      30.330   5.665  47.409  1.00  0.00     0.134 C 
BRANCH  26  27
HETATM   27  C8  UNL     1      31.350   5.699  48.520  1.00  0.00     0.050 C 
BRANCH  27  28
HETATM   28  C9  UNL     1      32.678   6.230  48.145  1.00  0.00     0.274 C 
BRANCH  28  29
HETATM   29  N4  UNL     1      33.590   5.332  47.541  1.00  0.00     0.088 N 
HETATM   30  C10 UNL     1      33.825   5.509  46.142  1.00  0.00     0.272 C 
HETATM   31  C11 UNL     1      34.401   4.262  45.501  1.00  0.00     0.030 C 
HETATM   32  C12 UNL     1      35.171   3.428  46.483  1.00  0.00     0.003 C 
HETATM   33  C13 UNL     1      34.418   3.078  47.731  1.00  0.00     0.030 C 
HETATM   34  C14 UNL     1      33.214   3.956  47.859  1.00  0.00     0.272 C 
ENDBRANCH  28  29
ENDBRANCH  27  28
ENDBRANCH  26  27
ENDBRANCH  11  26
TORSDOF 6
ENDMDL
MODEL 7
REMARK VINA RESULT:      -8.7      3.358      7.548
REMARK  6 active torsions:
REMARK  status: ('A' for Active; 'I' for Inactive)
REMARK    1  A    between atoms: N3_11  and  C7_12 
REMARK    2  A    between atoms: C7_12  and  C8_13 
REMARK    3  A    between atoms: C8_13  and  C9_14 
REMARK    4  A    between atoms: C9_14  and  N4_15 
REMARK    5  A    between atoms: C18_24  and  N5_25 
REMARK    6  A    between atoms: N5_25  and  C19_26 
ROOT
HETATM    1  N1  UNL     1      23.897   8.688  47.923  1.00  0.00    -0.170 NA
HETATM    2  C1  UNL     1      24.661   7.824  48.138  1.00  0.00     0.206 C 
HETATM    3  N2  UNL     1      25.550   6.781  48.394  1.00  0.00    -0.173 NA
HETATM    4  C2  UNL     1      25.234   5.777  49.138  1.00  0.00     0.083 A 
HETATM    5  C3  UNL     1      23.909   5.710  49.741  1.00  0.00     0.072 A 
HETATM    6  C4  UNL     1      23.561   4.691  50.508  1.00  0.00     0.098 A 
HETATM    7  O1  UNL     1      22.279   4.692  51.051  1.00  0.00    -0.340 OA
HETATM    8  C5  UNL     1      21.823   3.669  51.917  1.00  0.00     0.279 A 
HETATM    9  C6  UNL     1      22.820   2.600  52.098  1.00  0.00     0.248 A 
HETATM   10  O2  UNL     1      22.362   1.661  52.822  1.00  0.00    -0.271 OA
HETATM   11  N3  UNL     1      24.166   2.504  51.583  1.00  0.00    -0.314 N 
HETATM   12  C15 UNL     1      24.515   3.616  50.756  1.00  0.00     0.071 A 
HETATM   13  C16 UNL     1      25.740   3.597  50.249  1.00  0.00     0.048 A 
HETATM   14  C17 UNL     1      26.168   4.700  49.397  1.00  0.00     0.011 A 
HETATM   15  C18 UNL     1      27.382   4.690  48.885  1.00  0.00     0.102 C 
ENDROOT
BRANCH  15  16
HETATM   16  N5  UNL     1      27.884   5.717  48.043  1.00  0.00    -0.365 N 
HETATM   17  H22 UNL     1      27.592   6.263  47.202  1.00  0.00     0.165 HD
BRANCH  16  18
HETATM   18  C19 UNL     1      29.160   6.378  48.172  1.00  0.00     0.033 A 
HETATM   19  C20 UNL     1      29.258   7.736  48.395  1.00  0.00     0.032 A 
HETATM   20  C21 UNL     1      30.516   8.314  48.510  1.00  0.00     0.046 A 
HETATM   21  C22 UNL     1      31.608   7.492  48.394  1.00  0.00     0.138 A 
HETATM   22  F1  UNL     1      32.857   8.038  48.502  1.00  0.00    -0.204 F 
HETATM   23  C23 UNL     1      31.579   6.133  48.171  1.00  0.00     0.074 A 
HETATM   24 CL1  UNL     1      33.031   5.164  48.037  1.00  0.00    -0.081 Cl
HETATM   25  C24 UNL     1      30.303   5.579  48.061  1.00  0.00     0.056 A 
ENDBRANCH  16  18
ENDBRANCH  15  16
BRANCH  11  26
HETATM   26  C7  UNL     1      24.990   1.366  51.929  1.00  0.00     0.134 C 
BRANCH  26  27
HETATM   27  C8  UNL     1      25.587   1.474  53.310  1.00  0.00     0.050 C 
BRANCH  27  28
HETATM   28  C9  UNL     1      25.928   0.188  53.956  1.00  0.00     0.274 C 
BRANCH  28  29
HETATM   29  N4  UNL     1      27.294  -0.178  53.995  1.00  0.00     0.088 N 
HETATM   30  C10 UNL     1      28.237   0.892  54.108  1.00  0.00     0.272 C 
HETATM   31  C11 UNL     1      29.625   0.474  53.664  1.00  0.00     0.030 C 
HETATM   32  C12 UNL     1      29.853  -1.000  53.839  1.00  0.00     0.003 C 
HETATM   33  C13 UNL     1      28.812  -1.873  53.203  1.00  0.00     0.030 C 
HETATM   34  C14 UNL     1      27.604  -1.058  52.870  1.00  0.00     0.272 C 
ENDBRANCH  28  29
ENDBRANCH  27  28
ENDBRANCH  26  27
ENDBRANCH  11  26
TORSDOF 6
ENDMDL
MODEL 8
REMARK VINA RESULT:      -8.7      3.604      7.138
REMARK  6 active torsions:
REMARK  status: ('A' for Active; 'I' for Inactive)
REMARK    1  A    between atoms: N3_11  and  C7_12 
REMARK    2  A    between atoms: C7_12  and  C8_13 
REMARK    3  A    between atoms: C8_13  and  C9_14 
REMARK    4  A    between atoms: C9_14  and  N4_15 
REMARK    5  A    between atoms: C18_24  and  N5_25 
REMARK    6  A    between atoms: N5_25  and  C19_26 
ROOT
HETATM    1  N1  UNL     1      21.458   3.957  46.723  1.00  0.00    -0.170 NA
HETATM    2  C1  UNL     1      22.349   3.977  47.486  1.00  0.00     0.206 C 
HETATM    3  N2  UNL     1      23.405   3.977  48.396  1.00  0.00    -0.173 NA
HETATM    4  C2  UNL     1      23.416   3.210  49.433  1.00  0.00     0.083 A 
HETATM    5  C3  UNL     1      22.301   2.306  49.679  1.00  0.00     0.072 A 
HETATM    6  C4  UNL     1      22.290   1.510  50.734  1.00  0.00     0.098 A 
HETATM    7  O1  UNL     1      21.191   0.672  50.907  1.00  0.00    -0.340 OA
HETATM    8  C5  UNL     1      21.064  -0.188  52.024  1.00  0.00     0.279 A 
HETATM    9  C6  UNL     1      22.241  -0.140  52.907  1.00  0.00     0.248 A 
HETATM   10  O2  UNL     1      22.133  -0.971  53.863  1.00  0.00    -0.271 OA
HETATM   11  N3  UNL     1      23.423   0.686  52.818  1.00  0.00    -0.314 N 
HETATM   12  C15 UNL     1      23.410   1.535  51.668  1.00  0.00     0.071 A 
HETATM   13  C16 UNL     1      24.464   2.325  51.521  1.00  0.00     0.048 A 
HETATM   14  C17 UNL     1      24.520   3.220  50.372  1.00  0.00     0.011 A 
HETATM   15  C18 UNL     1      25.565   4.008  50.214  1.00  0.00     0.102 C 
ENDROOT
BRANCH  15  16
HETATM   16  N5  UNL     1      25.707   4.909  49.126  1.00  0.00    -0.365 N 
HETATM   17  H22 UNL     1      25.160   5.247  48.303  1.00  0.00     0.165 HD
BRANCH  16  18
HETATM   18  C19 UNL     1      26.860   5.730  48.844  1.00  0.00     0.033 A 
HETATM   19  C20 UNL     1      28.049   5.188  48.402  1.00  0.00     0.032 A 
HETATM   20  C21 UNL     1      29.124   6.031  48.147  1.00  0.00     0.046 A 
HETATM   21  C22 UNL     1      28.943   7.374  48.354  1.00  0.00     0.138 A 
HETATM   22  F1  UNL     1      29.986   8.224  48.112  1.00  0.00    -0.204 F 
HETATM   23  C23 UNL     1      27.784   7.977  48.794  1.00  0.00     0.074 A 
HETATM   24 CL1  UNL     1      27.648   9.707  49.027  1.00  0.00    -0.081 Cl
HETATM   25  C24 UNL     1      26.721   7.108  49.040  1.00  0.00     0.056 A 
ENDBRANCH  16  18
ENDBRANCH  15  16
BRANCH  11  26
HETATM   26  C7  UNL     1      24.448   0.591  53.835  1.00  0.00     0.134 C 
BRANCH  26  27
HETATM   27  C8  UNL     1      25.247  -0.685  53.742  1.00  0.00     0.050 C 
BRANCH  27  28
HETATM   28  C9  UNL     1      26.176  -0.769  52.594  1.00  0.00     0.274 C 
BRANCH  28  29
HETATM   29  N4  UNL     1      27.562  -0.705  52.874  1.00  0.00     0.088 N 
HETATM   30  C10 UNL     1      28.295  -1.925  52.741  1.00  0.00     0.272 C 
HETATM   31  C11 UNL     1      29.607  -1.884  53.501  1.00  0.00     0.030 C 
HETATM   32  C12 UNL     1      30.132  -0.485  53.645  1.00  0.00     0.003 C 
HETATM   33  C13 UNL     1      29.155   0.491  54.230  1.00  0.00     0.030 C 
HETATM   34  C14 UNL     1      27.775  -0.082  54.180  1.00  0.00     0.272 C 
ENDBRANCH  28  29
ENDBRANCH  27  28
ENDBRANCH  26  27
ENDBRANCH  11  26
TORSDOF 6
ENDMDL
MODEL 9
REMARK VINA RESULT:      -8.6      4.860      7.915
REMARK  6 active torsions:
REMARK  status: ('A' for Active; 'I' for Inactive)
REMARK    1  A    between atoms: N3_11  and  C7_12 
REMARK    2  A    between atoms: C7_12  and  C8_13 
REMARK    3  A    between atoms: C8_13  and  C9_14 
REMARK    4  A    between atoms: C9_14  and  N4_15 
REMARK    5  A    between atoms: C18_24  and  N5_25 
REMARK    6  A    between atoms: N5_25  and  C19_26 
ROOT
HETATM    1  N1  UNL     1      22.582   7.220  50.654  1.00  0.00    -0.170 NA
HETATM    2  C1  UNL     1      23.452   6.474  50.406  1.00  0.00     0.206 C 
HETATM    3  N2  UNL     1      24.502   5.605  50.115  1.00  0.00    -0.173 NA
HETATM    4  C2  UNL     1      25.566   5.996  49.501  1.00  0.00     0.083 A 
HETATM    5  C3  UNL     1      25.696   7.387  49.089  1.00  0.00     0.072 A 
HETATM    6  C4  UNL     1      26.777   7.812  48.458  1.00  0.00     0.098 A 
HETATM    7  O1  UNL     1      26.833   9.155  48.094  1.00  0.00    -0.340 OA
HETATM    8  C5  UNL     1      27.927   9.700  47.380  1.00  0.00     0.279 A 
HETATM    9  C6  UNL     1      28.996   8.714  47.150  1.00  0.00     0.248 A 
HETATM   10  O2  UNL     1      29.995   9.244  46.570  1.00  0.00    -0.271 OA
HETATM   11  N3  UNL     1      29.036   7.309  47.485  1.00  0.00    -0.314 N 
HETATM   12  C15 UNL     1      27.857   6.877  48.168  1.00  0.00     0.071 A 
HETATM   13  C16 UNL     1      27.822   5.595  48.506  1.00  0.00     0.048 A 
HETATM   14  C17 UNL     1      26.650   5.081  49.204  1.00  0.00     0.011 A 
HETATM   15  C18 UNL     1      26.606   3.810  49.547  1.00  0.00     0.102 C 
ENDROOT
BRANCH  15  16
HETATM   16  N5  UNL     1      25.509   3.222  50.230  1.00  0.00    -0.365 N 
HETATM   17  H22 UNL     1      24.472   3.324  50.294  1.00  0.00     0.165 HD
BRANCH  16  18
HETATM   18  C19 UNL     1      25.578   2.138  51.180  1.00  0.00     0.033 A 
HETATM   19  C20 UNL     1      26.775   1.542  51.520  1.00  0.00     0.032 A 
HETATM   20  C21 UNL     1      26.775   0.502  52.441  1.00  0.00     0.046 A 
HETATM   21  C22 UNL     1      25.569   0.119  52.970  1.00  0.00     0.138 A 
HETATM   22  F1  UNL     1      25.544  -0.904  53.877  1.00  0.00    -0.204 F 
HETATM   23  C23 UNL     1      24.342   0.671  52.673  1.00  0.00     0.074 A 
HETATM   24 CL1  UNL     1      22.851   0.112  53.402  1.00  0.00    -0.081 Cl
HETATM   25  C24 UNL     1      24.371   1.713  51.746  1.00  0.00     0.056 A 
ENDBRANCH  16  18
ENDBRANCH  15  16
BRANCH  11  26
HETATM   26  C7  UNL     1      30.189   6.514  47.122  1.00  0.00     0.134 C 
BRANCH  26  27
HETATM   27  C8  UNL     1      31.336   6.673  48.088  1.00  0.00     0.050 C 
BRANCH  27  28
HETATM   28  C9  UNL     1      31.801   5.425  48.732  1.00  0.00     0.274 C 
BRANCH  28  29
HETATM   29  N4  UNL     1      32.872   4.735  48.115  1.00  0.00     0.088 N 
HETATM   30  C10 UNL     1      33.798   5.531  47.372  1.00  0.00     0.272 C 
HETATM   31  C11 UNL     1      34.591   4.702  46.381  1.00  0.00     0.030 C 
HETATM   32  C12 UNL     1      34.725   3.273  46.821  1.00  0.00     0.003 C 
HETATM   33  C13 UNL     1      33.428   2.597  47.153  1.00  0.00     0.030 C 
HETATM   34  C14 UNL     1      32.353   3.622  47.321  1.00  0.00     0.272 C 
ENDBRANCH  28  29
ENDBRANCH  27  28
ENDBRANCH  26  27
ENDBRANCH  11  26
TORSDOF 6
ENDMDL
