MODEL 1
REMARK VINA RESULT:      -9.3      0.000      0.000
REMARK  2 active torsions:
REMARK  status: ('A' for Active; 'I' for Inactive)
REMARK    1  A    between atoms: C5_6  and  C19_22 
REMARK    2  A    between atoms: N2_15  and  C13_16 
ROOT
HETATM    1 CL1  UNL     1      21.915  -2.204  54.664  1.00  0.00    -0.084 Cl
HETATM    2  C1  UNL     1      21.722  -0.704  53.779  1.00  0.00     0.041 A 
HETATM    3  C2  UNL     1      20.473  -0.510  53.265  1.00  0.00     0.024 A 
HETATM    4  C3  UNL     1      20.227   0.638  52.557  1.00  0.00     0.002 A 
HETATM    5  C4  UNL     1      21.275   1.509  52.423  1.00  0.00     0.010 A 
HETATM    6  C5  UNL     1      22.590   1.398  52.912  1.00  0.00    -0.025 A 
HETATM    7  C6  UNL     1      22.749   0.174  53.634  1.00  0.00    -0.018 A 
HETATM    8  C7  UNL     1      23.932  -0.199  54.225  1.00  0.00     0.065 C 
HETATM    9  C8  UNL     1      24.808  -0.613  53.023  1.00  0.00    -0.028 C 
HETATM   10  C9  UNL     1      25.331   0.593  52.827  1.00  0.00     0.089 A 
HETATM   11  C10 UNL     1      26.175   0.377  54.071  1.00  0.00     0.042 A 
HETATM   12  C11 UNL     1      26.417   1.560  53.545  1.00  0.00     0.087 A 
HETATM   13  C12 UNL     1      25.678   2.008  52.327  1.00  0.00     0.097 A 
HETATM   14  N1  UNL     1      25.201   2.263  51.158  1.00  0.00    -0.201 NA
HETATM   15  N2  UNL     1      23.830   2.672  51.166  1.00  0.00    -0.265 N 
HETATM   16  C19 UNL     1      23.354   2.553  52.540  1.00  0.00     0.146 C 
HETATM   17  C20 UNL     1      24.681   2.827  53.130  1.00  0.00     0.069 C 
HETATM   18  O1  UNL     1      25.970  -0.899  54.713  1.00  0.00    -0.357 OA
HETATM   19  C21 UNL     1      24.535  -1.030  55.225  1.00  0.00     0.188 C 
ENDROOT
BRANCH  15  20
HETATM   20  C13 UNL     1      23.304   3.069  49.903  1.00  0.00     0.053 A 
HETATM   21  C14 UNL     1      22.636   2.192  49.073  1.00  0.00     0.031 A 
HETATM   22  C15 UNL     1      22.109   2.492  47.833  1.00  0.00     0.002 A 
HETATM   23  C16 UNL     1      22.250   3.759  47.366  1.00  0.00     0.000 A 
HETATM   24  C17 UNL     1      22.903   4.665  48.148  1.00  0.00     0.002 A 
HETATM   25  C18 UNL     1      23.415   4.329  49.383  1.00  0.00     0.031 A 
ENDBRANCH  15  20
TORSDOF 2
ENDMDL
MODEL 2
REMARK VINA RESULT:      -9.1      2.079      4.039
REMARK  2 active torsions:
REMARK  status: ('A' for Active; 'I' for Inactive)
REMARK    1  A    between atoms: C5_6  and  C19_22 
REMARK    2  A    between atoms: N2_15  and  C13_16 
ROOT
HETATM    1 CL1  UNL     1      23.694  -1.556  55.537  1.00  0.00    -0.084 Cl
HETATM    2  C1  UNL     1      24.156  -0.531  54.194  1.00  0.00     0.041 A 
HETATM    3  C2  UNL     1      25.477  -0.185  54.177  1.00  0.00     0.024 A 
HETATM    4  C3  UNL     1      25.931   0.615  53.161  1.00  0.00     0.002 A 
HETATM    5  C4  UNL     1      25.005   1.008  52.232  1.00  0.00     0.010 A 
HETATM    6  C5  UNL     1      23.632   0.706  52.164  1.00  0.00    -0.025 A 
HETATM    7  C6  UNL     1      23.253  -0.130  53.261  1.00  0.00    -0.018 A 
HETATM    8  C7  UNL     1      21.969  -0.582  53.449  1.00  0.00     0.065 C 
HETATM    9  C8  UNL     1      21.226   0.674  53.949  1.00  0.00    -0.028 C 
HETATM   10  C9  UNL     1      20.859   1.091  52.741  1.00  0.00     0.089 A 
HETATM   11  C10 UNL     1      19.839  -0.032  52.714  1.00  0.00     0.042 A 
HETATM   12  C11 UNL     1      19.791   0.666  51.598  1.00  0.00     0.087 A 
HETATM   13  C12 UNL     1      20.729   1.808  51.384  1.00  0.00     0.097 A 
HETATM   14  N1  UNL     1      21.382   2.917  51.332  1.00  0.00    -0.201 NA
HETATM   15  N2  UNL     1      22.774   2.759  51.042  1.00  0.00    -0.265 N 
HETATM   16  C19 UNL     1      23.047   1.326  51.012  1.00  0.00     0.146 C 
HETATM   17  C20 UNL     1      21.688   0.974  50.550  1.00  0.00     0.069 C 
HETATM   18  O1  UNL     1      19.824  -0.849  53.904  1.00  0.00    -0.357 OA
HETATM   19  C21 UNL     1      21.157  -1.578  54.083  1.00  0.00     0.188 C 
ENDROOT
BRANCH  15  20
HETATM   20  C13 UNL     1      23.503   3.970  50.866  1.00  0.00     0.053 A 
HETATM   21  C14 UNL     1      24.612   4.052  50.048  1.00  0.00     0.031 A 
HETATM   22  C15 UNL     1      25.379   5.178  49.834  1.00  0.00     0.002 A 
HETATM   23  C16 UNL     1      25.031   6.323  50.477  1.00  0.00     0.000 A 
HETATM   24  C17 UNL     1      23.943   6.295  51.297  1.00  0.00     0.002 A 
HETATM   25  C18 UNL     1      23.199   5.150  51.486  1.00  0.00     0.031 A 
ENDBRANCH  15  20
TORSDOF 2
ENDMDL
MODEL 3
REMARK VINA RESULT:      -9.1      2.908      6.059
REMARK  2 active torsions:
REMARK  status: ('A' for Active; 'I' for Inactive)
REMARK    1  A    between atoms: C5_6  and  C19_22 
REMARK    2  A    between atoms: N2_15  and  C13_16 
ROOT
HETATM    1 CL1  UNL     1      21.916   3.171  47.782  1.00  0.00    -0.084 Cl
HETATM    2  C1  UNL     1      22.985   3.048  49.165  1.00  0.00     0.041 A 
HETATM    3  C2  UNL     1      24.214   3.611  48.979  1.00  0.00     0.024 A 
HETATM    4  C3  UNL     1      25.117   3.564  50.009  1.00  0.00     0.002 A 
HETATM    5  C4  UNL     1      24.704   2.945  51.158  1.00  0.00     0.010 A 
HETATM    6  C5  UNL     1      23.465   2.340  51.444  1.00  0.00    -0.025 A 
HETATM    7  C6  UNL     1      22.593   2.438  50.315  1.00  0.00    -0.018 A 
HETATM    8  C7  UNL     1      21.316   1.932  50.309  1.00  0.00     0.065 C 
HETATM    9  C8  UNL     1      21.542   0.410  50.196  1.00  0.00    -0.028 C 
HETATM   10  C9  UNL     1      21.581   0.191  51.507  1.00  0.00     0.089 A 
HETATM   11  C10 UNL     1      20.078   0.402  51.538  1.00  0.00     0.042 A 
HETATM   12  C11 UNL     1      20.537   0.148  52.747  1.00  0.00     0.087 A 
HETATM   13  C12 UNL     1      21.999  -0.065  52.967  1.00  0.00     0.097 A 
HETATM   14  N1  UNL     1      23.216  -0.471  53.082  1.00  0.00    -0.201 NA
HETATM   15  N2  UNL     1      24.184   0.582  53.057  1.00  0.00    -0.265 N 
HETATM   16  C19 UNL     1      23.467   1.821  52.780  1.00  0.00     0.146 C 
HETATM   17  C20 UNL     1      22.222   1.365  53.434  1.00  0.00     0.069 C 
HETATM   18  O1  UNL     1      19.491   0.687  50.251  1.00  0.00    -0.357 OA
HETATM   19  C21 UNL     1      20.027   2.004  49.685  1.00  0.00     0.188 C 
ENDROOT
BRANCH  15  20
HETATM   20  C13 UNL     1      25.530   0.179  53.294  1.00  0.00     0.053 A 
HETATM   21  C14 UNL     1      26.228   0.565  54.421  1.00  0.00     0.031 A 
HETATM   22  C15 UNL     1      27.534   0.232  54.719  1.00  0.00     0.002 A 
HETATM   23  C16 UNL     1      28.214  -0.546  53.837  1.00  0.00     0.000 A 
HETATM   24  C17 UNL     1      27.569  -0.954  52.707  1.00  0.00     0.002 A 
HETATM   25  C18 UNL     1      26.264  -0.601  52.444  1.00  0.00     0.031 A 
ENDBRANCH  15  20
TORSDOF 2
ENDMDL
MODEL 4
REMARK VINA RESULT:      -9.0      2.494      3.594
REMARK  2 active torsions:
REMARK  status: ('A' for Active; 'I' for Inactive)
REMARK    1  A    between atoms: C5_6  and  C19_22 
REMARK    2  A    between atoms: N2_15  and  C13_16 
ROOT
HETATM    1 CL1  UNL     1      18.847   1.919  51.883  1.00  0.00    -0.084 Cl
HETATM    2  C1  UNL     1      20.251   2.964  51.807  1.00  0.00     0.041 A 
HETATM    3  C2  UNL     1      20.013   4.188  51.252  1.00  0.00     0.024 A 
HETATM    4  C3  UNL     1      21.054   5.074  51.152  1.00  0.00     0.002 A 
HETATM    5  C4  UNL     1      22.266   4.650  51.625  1.00  0.00     0.010 A 
HETATM    6  C5  UNL     1      22.609   3.416  52.209  1.00  0.00    -0.025 A 
HETATM    7  C6  UNL     1      21.463   2.561  52.271  1.00  0.00    -0.018 A 
HETATM    8  C7  UNL     1      21.504   1.292  52.795  1.00  0.00     0.065 C 
HETATM    9  C8  UNL     1      22.238   0.486  51.703  1.00  0.00    -0.028 C 
HETATM   10  C9  UNL     1      23.456   0.686  52.198  1.00  0.00     0.089 A 
HETATM   11  C10 UNL     1      23.116  -0.296  53.305  1.00  0.00     0.042 A 
HETATM   12  C11 UNL     1      24.339   0.172  53.458  1.00  0.00     0.087 A 
HETATM   13  C12 UNL     1      24.883   1.181  52.501  1.00  0.00     0.097 A 
HETATM   14  N1  UNL     1      25.398   1.862  51.537  1.00  0.00    -0.201 NA
HETATM   15  N2  UNL     1      24.996   3.235  51.516  1.00  0.00    -0.265 N 
HETATM   16  C19 UNL     1      23.997   3.407  52.566  1.00  0.00     0.146 C 
HETATM   17  C20 UNL     1      24.570   2.348  53.424  1.00  0.00     0.069 C 
HETATM   18  O1  UNL     1      21.790  -0.858  53.213  1.00  0.00    -0.357 OA
HETATM   19  C21 UNL     1      20.724   0.229  53.357  1.00  0.00     0.188 C 
ENDROOT
BRANCH  15  20
HETATM   20  C13 UNL     1      25.634   4.044  50.532  1.00  0.00     0.053 A 
HETATM   21  C14 UNL     1      25.206   5.322  50.237  1.00  0.00     0.031 A 
HETATM   22  C15 UNL     1      25.757   6.163  49.293  1.00  0.00     0.002 A 
HETATM   23  C16 UNL     1      26.818   5.713  48.573  1.00  0.00     0.000 A 
HETATM   24  C17 UNL     1      27.279   4.455  48.825  1.00  0.00     0.002 A 
HETATM   25  C18 UNL     1      26.702   3.643  49.779  1.00  0.00     0.031 A 
ENDBRANCH  15  20
TORSDOF 2
ENDMDL
MODEL 5
REMARK VINA RESULT:      -8.6      2.500      4.344
REMARK  2 active torsions:
REMARK  status: ('A' for Active; 'I' for Inactive)
REMARK    1  A    between atoms: C5_6  and  C19_22 
REMARK    2  A    between atoms: N2_15  and  C13_16 
ROOT
HETATM    1 CL1  UNL     1      24.803  -0.617  54.187  1.00  0.00    -0.084 Cl
HETATM    2  C1  UNL     1      24.260   0.465  52.920  1.00  0.00     0.041 A 
HETATM    3  C2  UNL     1      25.236   1.273  52.413  1.00  0.00     0.024 A 
HETATM    4  C3  UNL     1      24.903   2.153  51.416  1.00  0.00     0.002 A 
HETATM    5  C4  UNL     1      23.597   2.148  51.006  1.00  0.00     0.010 A 
HETATM    6  C5  UNL     1      22.526   1.358  51.464  1.00  0.00    -0.025 A 
HETATM    7  C6  UNL     1      22.968   0.475  52.499  1.00  0.00    -0.018 A 
HETATM    8  C7  UNL     1      22.133  -0.413  53.132  1.00  0.00     0.065 C 
HETATM    9  C8  UNL     1      21.291   0.494  54.054  1.00  0.00    -0.028 C 
HETATM   10  C9  UNL     1      20.324   0.710  53.167  1.00  0.00     0.089 A 
HETATM   11  C10 UNL     1      19.849  -0.712  53.409  1.00  0.00     0.042 A 
HETATM   12  C11 UNL     1      19.090  -0.115  52.513  1.00  0.00     0.087 A 
HETATM   13  C12 UNL     1      19.386   1.286  52.089  1.00  0.00     0.097 A 
HETATM   14  N1  UNL     1      19.525   2.556  51.923  1.00  0.00    -0.201 NA
HETATM   15  N2  UNL     1      20.619   2.914  51.072  1.00  0.00    -0.265 N 
HETATM   16  C19 UNL     1      21.330   1.683  50.743  1.00  0.00     0.146 C 
HETATM   17  C20 UNL     1      20.119   0.840  50.833  1.00  0.00     0.069 C 
HETATM   18  O1  UNL     1      20.628  -1.440  54.382  1.00  0.00    -0.357 OA
HETATM   19  C21 UNL     1      22.070  -1.619  53.904  1.00  0.00     0.188 C 
ENDROOT
BRANCH  15  20
HETATM   20  C13 UNL     1      20.733   4.303  50.777  1.00  0.00     0.053 A 
HETATM   21  C14 UNL     1      19.952   4.920  49.820  1.00  0.00     0.031 A 
HETATM   22  C15 UNL     1      20.009   6.252  49.465  1.00  0.00     0.002 A 
HETATM   23  C16 UNL     1      20.909   7.048  50.100  1.00  0.00     0.000 A 
HETATM   24  C17 UNL     1      21.705   6.486  51.053  1.00  0.00     0.002 A 
HETATM   25  C18 UNL     1      21.619   5.150  51.383  1.00  0.00     0.031 A 
ENDBRANCH  15  20
TORSDOF 2
ENDMDL
MODEL 6
REMARK VINA RESULT:      -8.2      2.993      5.604
REMARK  2 active torsions:
REMARK  status: ('A' for Active; 'I' for Inactive)
REMARK    1  A    between atoms: C5_6  and  C19_22 
REMARK    2  A    between atoms: N2_15  and  C13_16 
ROOT
HETATM    1 CL1  UNL     1      18.261   3.546  51.537  1.00  0.00    -0.084 Cl
HETATM    2  C1  UNL     1      19.633   2.476  51.331  1.00  0.00     0.041 A 
HETATM    3  C2  UNL     1      19.387   1.174  51.661  1.00  0.00     0.024 A 
HETATM    4  C3  UNL     1      20.403   0.264  51.531  1.00  0.00     0.002 A 
HETATM    5  C4  UNL     1      21.600   0.744  51.073  1.00  0.00     0.010 A 
HETATM    6  C5  UNL     1      21.949   2.059  50.709  1.00  0.00    -0.025 A 
HETATM    7  C6  UNL     1      20.830   2.933  50.878  1.00  0.00    -0.018 A 
HETATM    8  C7  UNL     1      20.881   4.277  50.598  1.00  0.00     0.065 C 
HETATM    9  C8  UNL     1      21.701   4.848  51.775  1.00  0.00    -0.028 C 
HETATM   10  C9  UNL     1      22.882   4.719  51.178  1.00  0.00     0.089 A 
HETATM   11  C10 UNL     1      22.513   5.899  50.297  1.00  0.00     0.042 A 
HETATM   12  C11 UNL     1      23.709   5.443  49.985  1.00  0.00     0.087 A 
HETATM   13  C12 UNL     1      24.274   4.260  50.702  1.00  0.00     0.097 A 
HETATM   14  N1  UNL     1      24.820   3.399  51.488  1.00  0.00    -0.201 NA
HETATM   15  N2  UNL     1      24.375   2.056  51.277  1.00  0.00    -0.265 N 
HETATM   16  C19 UNL     1      23.315   2.105  50.277  1.00  0.00     0.146 C 
HETATM   17  C20 UNL     1      23.872   3.294  49.598  1.00  0.00     0.069 C 
HETATM   18  O1  UNL     1      21.213   6.461  50.572  1.00  0.00    -0.357 OA
HETATM   19  C21 UNL     1      20.106   5.443  50.293  1.00  0.00     0.188 C 
ENDROOT
BRANCH  15  20
HETATM   20  C13 UNL     1      25.041   1.063  52.053  1.00  0.00     0.053 A 
HETATM   21  C14 UNL     1      26.323   0.639  51.766  1.00  0.00     0.031 A 
HETATM   22  C15 UNL     1      27.031  -0.323  52.456  1.00  0.00     0.002 A 
HETATM   23  C16 UNL     1      26.432  -0.923  53.517  1.00  0.00     0.000 A 
HETATM   24  C17 UNL     1      25.165  -0.540  53.842  1.00  0.00     0.002 A 
HETATM   25  C18 UNL     1      24.489   0.427  53.130  1.00  0.00     0.031 A 
ENDBRANCH  15  20
TORSDOF 2
ENDMDL
MODEL 7
REMARK VINA RESULT:      -8.1      2.888      5.785
REMARK  2 active torsions:
REMARK  status: ('A' for Active; 'I' for Inactive)
REMARK    1  A    between atoms: C5_6  and  C19_22 
REMARK    2  A    between atoms: N2_15  and  C13_16 
ROOT
HETATM    1 CL1  UNL     1      20.458   3.592  52.323  1.00  0.00    -0.084 Cl
HETATM    2  C1  UNL     1      21.819   2.491  52.270  1.00  0.00     0.041 A 
HETATM    3  C2  UNL     1      21.695   1.402  53.084  1.00  0.00     0.024 A 
HETATM    4  C3  UNL     1      22.712   0.484  53.108  1.00  0.00     0.002 A 
HETATM    5  C4  UNL     1      23.787   0.741  52.301  1.00  0.00     0.010 A 
HETATM    6  C5  UNL     1      24.007   1.828  51.433  1.00  0.00    -0.025 A 
HETATM    7  C6  UNL     1      22.895   2.728  51.475  1.00  0.00    -0.018 A 
HETATM    8  C7  UNL     1      22.836   3.879  50.728  1.00  0.00     0.065 C 
HETATM    9  C8  UNL     1      23.823   4.819  51.453  1.00  0.00    -0.028 C 
HETATM   10  C9  UNL     1      24.885   4.458  50.740  1.00  0.00     0.089 A 
HETATM   11  C10 UNL     1      24.313   5.248  49.576  1.00  0.00     0.042 A 
HETATM   12  C11 UNL     1      25.456   4.684  49.238  1.00  0.00     0.087 A 
HETATM   13  C12 UNL     1      26.191   3.829  50.217  1.00  0.00     0.097 A 
HETATM   14  N1  UNL     1      26.905   3.298  51.148  1.00  0.00    -0.201 NA
HETATM   15  N2  UNL     1      26.492   1.979  51.517  1.00  0.00    -0.265 N 
HETATM   16  C19 UNL     1      25.272   1.686  50.774  1.00  0.00     0.146 C 
HETATM   17  C20 UNL     1      25.646   2.538  49.626  1.00  0.00     0.069 C 
HETATM   18  O1  UNL     1      23.057   5.899  49.861  1.00  0.00    -0.357 OA
HETATM   19  C21 UNL     1      21.966   4.872  50.170  1.00  0.00     0.188 C 
ENDROOT
BRANCH  15  20
HETATM   20  C13 UNL     1      27.329   1.319  52.463  1.00  0.00     0.053 A 
HETATM   21  C14 UNL     1      28.208   2.006  53.275  1.00  0.00     0.031 A 
HETATM   22  C15 UNL     1      29.060   1.444  54.205  1.00  0.00     0.002 A 
HETATM   23  C16 UNL     1      29.049   0.094  54.351  1.00  0.00     0.000 A 
HETATM   24  C17 UNL     1      28.198  -0.631  53.571  1.00  0.00     0.002 A 
HETATM   25  C18 UNL     1      27.361  -0.034  52.653  1.00  0.00     0.031 A 
ENDBRANCH  15  20
TORSDOF 2
ENDMDL
MODEL 8
REMARK VINA RESULT:      -8.1      2.810      4.830
REMARK  2 active torsions:
REMARK  status: ('A' for Active; 'I' for Inactive)
REMARK    1  A    between atoms: C5_6  and  C19_22 
REMARK    2  A    between atoms: N2_15  and  C13_16 
ROOT
HETATM    1 CL1  UNL     1      26.094   3.612  50.260  1.00  0.00    -0.084 Cl
HETATM    2  C1  UNL     1      24.437   3.125  49.966  1.00  0.00     0.041 A 
HETATM    3  C2  UNL     1      23.812   3.822  48.973  1.00  0.00     0.024 A 
HETATM    4  C3  UNL     1      22.512   3.508  48.671  1.00  0.00     0.002 A 
HETATM    5  C4  UNL     1      21.939   2.505  49.405  1.00  0.00     0.010 A 
HETATM    6  C5  UNL     1      22.497   1.734  50.442  1.00  0.00    -0.025 A 
HETATM    7  C6  UNL     1      23.850   2.131  50.683  1.00  0.00    -0.018 A 
HETATM    8  C7  UNL     1      24.642   1.547  51.642  1.00  0.00     0.065 C 
HETATM    9  C8  UNL     1      24.076   2.120  52.959  1.00  0.00    -0.028 C 
HETATM   10  C9  UNL     1      23.194   1.144  53.151  1.00  0.00     0.089 A 
HETATM   11  C10 UNL     1      24.350   0.238  53.535  1.00  0.00     0.042 A 
HETATM   12  C11 UNL     1      23.207  -0.416  53.597  1.00  0.00     0.087 A 
HETATM   13  C12 UNL     1      21.930   0.266  53.231  1.00  0.00     0.097 A 
HETATM   14  N1  UNL     1      20.837   0.942  53.138  1.00  0.00    -0.201 NA
HETATM   15  N2  UNL     1      20.459   1.252  51.793  1.00  0.00    -0.265 N 
HETATM   16  C19 UNL     1      21.535   0.787  50.925  1.00  0.00     0.146 C 
HETATM   17  C20 UNL     1      21.922  -0.318  51.828  1.00  0.00     0.069 C 
HETATM   18  O1  UNL     1      25.643   0.876  53.494  1.00  0.00    -0.357 OA
HETATM   19  C21 UNL     1      25.990   1.318  52.071  1.00  0.00     0.188 C 
ENDROOT
BRANCH  15  20
HETATM   20  C13 UNL     1      19.199   1.900  51.647  1.00  0.00     0.053 A 
HETATM   21  C14 UNL     1      19.079   3.274  51.584  1.00  0.00     0.031 A 
HETATM   22  C15 UNL     1      17.899   3.979  51.458  1.00  0.00     0.002 A 
HETATM   23  C16 UNL     1      16.737   3.278  51.388  1.00  0.00     0.000 A 
HETATM   24  C17 UNL     1      16.802   1.918  51.446  1.00  0.00     0.002 A 
HETATM   25  C18 UNL     1      17.999   1.248  51.572  1.00  0.00     0.031 A 
ENDBRANCH  15  20
TORSDOF 2
ENDMDL
MODEL 9
REMARK VINA RESULT:      -8.0      4.191      6.774
REMARK  2 active torsions:
REMARK  status: ('A' for Active; 'I' for Inactive)
REMARK    1  A    between atoms: C5_6  and  C19_22 
REMARK    2  A    between atoms: N2_15  and  C13_16 
ROOT
HETATM    1 CL1  UNL     1      20.238   4.048  45.555  1.00  0.00    -0.084 Cl
HETATM    2  C1  UNL     1      21.500   4.967  46.350  1.00  0.00     0.041 A 
HETATM    3  C2  UNL     1      21.879   6.096  45.683  1.00  0.00     0.024 A 
HETATM    4  C3  UNL     1      22.861   6.880  46.231  1.00  0.00     0.002 A 
HETATM    5  C4  UNL     1      23.389   6.457  47.421  1.00  0.00     0.010 A 
HETATM    6  C5  UNL     1      23.066   5.316  48.180  1.00  0.00    -0.025 A 
HETATM    7  C6  UNL     1      22.036   4.564  47.532  1.00  0.00    -0.018 A 
HETATM    8  C7  UNL     1      21.522   3.400  48.048  1.00  0.00     0.065 C 
HETATM    9  C8  UNL     1      22.647   2.375  47.788  1.00  0.00    -0.028 C 
HETATM   10  C9  UNL     1      23.264   2.571  48.949  1.00  0.00     0.089 A 
HETATM   11  C10 UNL     1      22.136   1.810  49.623  1.00  0.00     0.042 A 
HETATM   12  C11 UNL     1      23.022   2.212  50.512  1.00  0.00     0.087 A 
HETATM   13  C12 UNL     1      24.209   3.009  50.084  1.00  0.00     0.097 A 
HETATM   14  N1  UNL     1      25.327   3.485  49.656  1.00  0.00    -0.201 NA
HETATM   15  N2  UNL     1      25.262   4.860  49.266  1.00  0.00    -0.265 N 
HETATM   16  C19 UNL     1      23.866   5.271  49.369  1.00  0.00     0.146 C 
HETATM   17  C20 UNL     1      23.566   4.332  50.469  1.00  0.00     0.069 C 
HETATM   18  O1  UNL     1      21.119   1.333  48.717  1.00  0.00    -0.357 OA
HETATM   19  C21 UNL     1      20.406   2.500  48.031  1.00  0.00     0.188 C 
ENDROOT
BRANCH  15  20
HETATM   20  C13 UNL     1      26.506   5.449  48.894  1.00  0.00     0.053 A 
HETATM   21  C14 UNL     1      26.658   6.811  48.734  1.00  0.00     0.031 A 
HETATM   22  C15 UNL     1      27.819   7.459  48.365  1.00  0.00     0.002 A 
HETATM   23  C16 UNL     1      28.926   6.707  48.131  1.00  0.00     0.000 A 
HETATM   24  C17 UNL     1      28.828   5.355  48.275  1.00  0.00     0.002 A 
HETATM   25  C18 UNL     1      27.650   4.743  48.647  1.00  0.00     0.031 A 
ENDBRANCH  15  20
TORSDOF 2
ENDMDL
