MODEL 1
REMARK VINA RESULT:      -8.8      0.000      0.000
REMARK  6 active torsions:
REMARK  status: ('A' for Active; 'I' for Inactive)
REMARK    1  A    between atoms: N1_1  and  C1_2 
REMARK    2  A    between atoms: C6_9  and  N2_10 
REMARK    3  A    between atoms: C9_16  and  N6_17 
REMARK    4  A    between atoms: N6_17  and  C10_18 
REMARK    5  A    between atoms: C13_21  and  S2_22 
REMARK    6  A    between atoms: S2_22  and  N7_23 
ROOT
HETATM    1  C1  UNL     1      22.827   1.985  50.699  1.00  0.00     0.103 C 
HETATM    2  C2  UNL     1      23.932   1.733  51.432  1.00  0.00     0.063 C 
HETATM    3  S1  UNL     1      23.461   0.632  52.711  1.00  0.00    -0.099 SA
HETATM    4  C3  UNL     1      24.758  -0.004  53.756  1.00  0.00     0.247 C 
HETATM    5  O1  UNL     1      25.535  -0.913  53.124  1.00  0.00    -0.376 OA
HETATM    6  C4  UNL     1      26.245  -0.435  52.081  1.00  0.00     0.215 C 
HETATM    7  C5  UNL     1      27.158   0.609  52.576  1.00  0.00     0.059 A 
HETATM    8  C6  UNL     1      28.090   0.121  53.504  1.00  0.00     0.135 A 
HETATM    9  N3  UNL     1      29.045   0.827  54.133  1.00  0.00    -0.224 NA
HETATM   10  C7  UNL     1      29.167   2.138  53.888  1.00  0.00     0.237 A 
HETATM   11  N4  UNL     1      28.287   2.634  53.000  1.00  0.00    -0.222 NA
HETATM   12  C8  UNL     1      27.341   1.959  52.373  1.00  0.00     0.165 A 
HETATM   13  N5  UNL     1      26.438   2.410  51.449  1.00  0.00    -0.209 NA
HETATM   14  C9  UNL     1      25.241   2.297  51.166  1.00  0.00     0.148 C 
ENDROOT
BRANCH  14  15
HETATM   15  N6  UNL     1      25.225   3.259  50.101  1.00  0.00    -0.340 N 
HETATM   16  H11 UNL     1      25.047   3.106  49.051  1.00  0.00     0.167 HD
BRANCH  15  17
HETATM   17  C10 UNL     1      25.437   4.692  50.088  1.00  0.00     0.033 A 
HETATM   18  C11 UNL     1      24.817   5.716  50.761  1.00  0.00     0.031 A 
HETATM   19  C12 UNL     1      25.258   7.011  50.492  1.00  0.00     0.027 A 
HETATM   20  C13 UNL     1      26.260   7.248  49.601  1.00  0.00     0.074 A 
HETATM   21  C14 UNL     1      26.894   6.217  48.915  1.00  0.00     0.027 A 
HETATM   22  C15 UNL     1      26.452   4.915  49.186  1.00  0.00     0.031 A 
BRANCH  20  23
HETATM   23  S2  UNL     1      26.673   8.927  49.430  1.00  0.00     0.239 S 
HETATM   24  O2  UNL     1      25.429   9.680  48.973  1.00  0.00    -0.206 OA
HETATM   25  O3  UNL     1      27.706   9.108  48.350  1.00  0.00    -0.206 OA
BRANCH  23  26
HETATM   26  N7  UNL     1      27.225   9.639  50.886  1.00  0.00    -0.225 NA
HETATM   27  H14 UNL     1      27.898   9.008  51.344  1.00  0.00     0.136 HD
HETATM   28  H15 UNL     1      26.391   9.877  51.471  1.00  0.00     0.136 HD
ENDBRANCH  23  26
ENDBRANCH  20  23
ENDBRANCH  15  17
ENDBRANCH  14  15
BRANCH   1  29
HETATM   29  N1  UNL     1      22.513   2.767  49.558  1.00  0.00    -0.407 N 
HETATM   30  H1  UNL     1      22.872   3.779  49.534  1.00  0.00     0.155 HD
HETATM   31  H2  UNL     1      21.997   2.684  48.651  1.00  0.00     0.155 HD
ENDBRANCH   1  29
BRANCH   8  32
HETATM   32  N2  UNL     1      28.234  -1.234  53.965  1.00  0.00    -0.383 N 
HETATM   33  H8  UNL     1      27.734  -2.134  54.134  1.00  0.00     0.157 HD
HETATM   34  H9  UNL     1      29.100  -1.695  54.310  1.00  0.00     0.157 HD
ENDBRANCH   8  32
TORSDOF 6
ENDMDL
MODEL 2
REMARK VINA RESULT:      -8.7      1.182      1.586
REMARK  6 active torsions:
REMARK  status: ('A' for Active; 'I' for Inactive)
REMARK    1  A    between atoms: N1_1  and  C1_2 
REMARK    2  A    between atoms: C6_9  and  N2_10 
REMARK    3  A    between atoms: C9_16  and  N6_17 
REMARK    4  A    between atoms: N6_17  and  C10_18 
REMARK    5  A    between atoms: C13_21  and  S2_22 
REMARK    6  A    between atoms: S2_22  and  N7_23 
ROOT
HETATM    1  C1  UNL     1      22.684   1.200  51.580  1.00  0.00     0.103 C 
HETATM    2  C2  UNL     1      23.903   1.081  52.149  1.00  0.00     0.063 C 
HETATM    3  S1  UNL     1      23.765  -0.120  53.417  1.00  0.00    -0.099 SA
HETATM    4  C3  UNL     1      25.266  -0.602  54.249  1.00  0.00     0.247 C 
HETATM    5  O1  UNL     1      26.065  -1.368  53.473  1.00  0.00    -0.376 OA
HETATM    6  C4  UNL     1      26.556  -0.759  52.374  1.00  0.00     0.215 C 
HETATM    7  C5  UNL     1      27.377   0.386  52.802  1.00  0.00     0.059 A 
HETATM    8  C6  UNL     1      28.485   0.003  53.572  1.00  0.00     0.135 A 
HETATM    9  N3  UNL     1      29.411   0.814  54.109  1.00  0.00    -0.224 NA
HETATM   10  C7  UNL     1      29.320   2.137  53.921  1.00  0.00     0.237 A 
HETATM   11  N4  UNL     1      28.268   2.535  53.184  1.00  0.00    -0.222 NA
HETATM   12  C8  UNL     1      27.346   1.755  52.650  1.00  0.00     0.165 A 
HETATM   13  N5  UNL     1      26.273   2.105  51.877  1.00  0.00    -0.209 NA
HETATM   14  C9  UNL     1      25.075   1.834  51.746  1.00  0.00     0.148 C 
ENDROOT
BRANCH  14  15
HETATM   15  N6  UNL     1      24.783   2.821  50.745  1.00  0.00    -0.340 N 
HETATM   16  H11 UNL     1      23.838   3.075  50.297  1.00  0.00     0.167 HD
BRANCH  15  17
HETATM   17  C10 UNL     1      25.630   3.760  50.037  1.00  0.00     0.033 A 
HETATM   18  C11 UNL     1      26.786   3.588  49.315  1.00  0.00     0.031 A 
HETATM   19  C12 UNL     1      27.371   4.732  48.774  1.00  0.00     0.027 A 
HETATM   20  C13 UNL     1      26.820   5.964  48.953  1.00  0.00     0.074 A 
HETATM   21  C14 UNL     1      25.649   6.148  49.683  1.00  0.00     0.027 A 
HETATM   22  C15 UNL     1      25.059   4.998  50.226  1.00  0.00     0.031 A 
BRANCH  20  23
HETATM   23  S2  UNL     1      27.693   7.251  48.178  1.00  0.00     0.239 S 
HETATM   24  O2  UNL     1      26.756   7.933  47.188  1.00  0.00    -0.206 OA
HETATM   25  O3  UNL     1      28.840   6.700  47.374  1.00  0.00    -0.206 OA
BRANCH  23  26
HETATM   26  N7  UNL     1      28.267   8.433  49.274  1.00  0.00    -0.225 NA
HETATM   27  H14 UNL     1      27.805   9.334  49.082  1.00  0.00     0.136 HD
HETATM   28  H15 UNL     1      29.311   8.462  49.208  1.00  0.00     0.136 HD
ENDBRANCH  23  26
ENDBRANCH  20  23
ENDBRANCH  15  17
ENDBRANCH  14  15
BRANCH   1  29
HETATM   29  N1  UNL     1      22.114   1.970  50.534  1.00  0.00    -0.407 N 
HETATM   30  H1  UNL     1      22.397   1.726  49.527  1.00  0.00     0.155 HD
HETATM   31  H2  UNL     1      21.455   2.772  50.401  1.00  0.00     0.155 HD
ENDBRANCH   1  29
BRANCH   8  32
HETATM   32  N2  UNL     1      28.872  -1.334  53.938  1.00  0.00    -0.383 N 
HETATM   33  H8  UNL     1      29.402  -1.908  54.628  1.00  0.00     0.157 HD
HETATM   34  H9  UNL     1      28.628  -2.218  53.448  1.00  0.00     0.157 HD
ENDBRANCH   8  32
TORSDOF 6
ENDMDL
MODEL 3
REMARK VINA RESULT:      -8.1      4.758      7.301
REMARK  6 active torsions:
REMARK  status: ('A' for Active; 'I' for Inactive)
REMARK    1  A    between atoms: N1_1  and  C1_2 
REMARK    2  A    between atoms: C6_9  and  N2_10 
REMARK    3  A    between atoms: C9_16  and  N6_17 
REMARK    4  A    between atoms: N6_17  and  C10_18 
REMARK    5  A    between atoms: C13_21  and  S2_22 
REMARK    6  A    between atoms: S2_22  and  N7_23 
ROOT
HETATM    1  C1  UNL     1      20.916  -1.245  54.087  1.00  0.00     0.103 C 
HETATM    2  C2  UNL     1      20.870  -0.358  53.069  1.00  0.00     0.063 C 
HETATM    3  S1  UNL     1      19.180  -0.091  52.694  1.00  0.00    -0.099 SA
HETATM    4  C3  UNL     1      18.803   1.159  51.481  1.00  0.00     0.247 C 
HETATM    5  O1  UNL     1      19.000   2.412  51.950  1.00  0.00    -0.376 OA
HETATM    6  C4  UNL     1      20.277   2.718  52.256  1.00  0.00     0.215 C 
HETATM    7  C5  UNL     1      21.091   2.606  51.034  1.00  0.00     0.059 A 
HETATM    8  C6  UNL     1      20.695   3.506  50.034  1.00  0.00     0.135 A 
HETATM    9  N3  UNL     1      21.238   3.641  48.812  1.00  0.00    -0.224 NA
HETATM   10  C7  UNL     1      22.267   2.861  48.456  1.00  0.00     0.237 A 
HETATM   11  N4  UNL     1      22.670   1.989  49.396  1.00  0.00    -0.222 NA
HETATM   12  C8  UNL     1      22.150   1.839  50.601  1.00  0.00     0.165 A 
HETATM   13  N5  UNL     1      22.535   0.985  51.598  1.00  0.00    -0.209 NA
HETATM   14  C9  UNL     1      22.036   0.231  52.440  1.00  0.00     0.148 C 
ENDROOT
BRANCH  14  15
HETATM   15  N6  UNL     1      23.269  -0.317  52.932  1.00  0.00    -0.340 N 
HETATM   16  H11 UNL     1      23.496  -1.330  53.214  1.00  0.00     0.167 HD
BRANCH  15  17
HETATM   17  C10 UNL     1      24.558   0.288  53.200  1.00  0.00     0.033 A 
HETATM   18  C11 UNL     1      24.924   1.585  53.467  1.00  0.00     0.031 A 
HETATM   19  C12 UNL     1      26.282   1.834  53.656  1.00  0.00     0.027 A 
HETATM   20  C13 UNL     1      27.204   0.835  53.578  1.00  0.00     0.074 A 
HETATM   21  C14 UNL     1      26.843  -0.481  53.308  1.00  0.00     0.027 A 
HETATM   22  C15 UNL     1      25.477  -0.732  53.119  1.00  0.00     0.031 A 
BRANCH  20  23
HETATM   23  S2  UNL     1      28.837   1.354  53.868  1.00  0.00     0.239 S 
HETATM   24  O2  UNL     1      29.779   0.268  53.359  1.00  0.00    -0.206 OA
HETATM   25  O3  UNL     1      29.094   1.488  55.345  1.00  0.00    -0.206 OA
BRANCH  23  26
HETATM   26  N7  UNL     1      29.231   2.819  53.075  1.00  0.00    -0.225 NA
HETATM   27  H14 UNL     1      29.551   3.510  53.768  1.00  0.00     0.136 HD
HETATM   28  H15 UNL     1      28.400   3.123  52.516  1.00  0.00     0.136 HD
ENDBRANCH  23  26
ENDBRANCH  20  23
ENDBRANCH  15  17
ENDBRANCH  14  15
BRANCH   1  29
HETATM   29  N1  UNL     1      21.932  -1.875  54.849  1.00  0.00    -0.407 N 
HETATM   30  H1  UNL     1      22.951  -1.621  54.626  1.00  0.00     0.155 HD
HETATM   31  H2  UNL     1      22.032  -2.573  55.623  1.00  0.00     0.155 HD
ENDBRANCH   1  29
BRANCH   8  32
HETATM   32  N2  UNL     1      19.641   4.483  50.107  1.00  0.00    -0.383 N 
HETATM   33  H8  UNL     1      18.885   4.877  50.707  1.00  0.00     0.157 HD
HETATM   34  H9  UNL     1      19.362   5.166  49.374  1.00  0.00     0.157 HD
ENDBRANCH   8  32
TORSDOF 6
ENDMDL
MODEL 4
REMARK VINA RESULT:      -8.0      4.214      7.088
REMARK  6 active torsions:
REMARK  status: ('A' for Active; 'I' for Inactive)
REMARK    1  A    between atoms: N1_1  and  C1_2 
REMARK    2  A    between atoms: C6_9  and  N2_10 
REMARK    3  A    between atoms: C9_16  and  N6_17 
REMARK    4  A    between atoms: N6_17  and  C10_18 
REMARK    5  A    between atoms: C13_21  and  S2_22 
REMARK    6  A    between atoms: S2_22  and  N7_23 
ROOT
HETATM    1  C1  UNL     1      22.740   4.424  50.359  1.00  0.00     0.103 C 
HETATM    2  C2  UNL     1      22.022   3.460  50.975  1.00  0.00     0.063 C 
HETATM    3  S1  UNL     1      20.397   4.082  51.181  1.00  0.00    -0.099 SA
HETATM    4  C3  UNL     1      19.174   2.962  51.835  1.00  0.00     0.247 C 
HETATM    5  O1  UNL     1      18.806   2.017  50.941  1.00  0.00    -0.376 OA
HETATM    6  C4  UNL     1      19.781   1.159  50.577  1.00  0.00     0.215 C 
HETATM    7  C5  UNL     1      20.238   0.434  51.774  1.00  0.00     0.059 A 
HETATM    8  C6  UNL     1      19.226  -0.340  52.360  1.00  0.00     0.135 A 
HETATM    9  N3  UNL     1      19.332  -1.105  53.459  1.00  0.00    -0.224 NA
HETATM   10  C7  UNL     1      20.503  -1.176  54.105  1.00  0.00     0.237 A 
HETATM   11  N4  UNL     1      21.494  -0.445  53.565  1.00  0.00    -0.222 NA
HETATM   12  C8  UNL     1      21.410   0.315  52.488  1.00  0.00     0.165 A 
HETATM   13  N5  UNL     1      22.389   1.058  51.888  1.00  0.00    -0.209 NA
HETATM   14  C9  UNL     1      22.548   2.169  51.372  1.00  0.00     0.148 C 
ENDROOT
BRANCH  14  15
HETATM   15  N6  UNL     1      23.962   2.055  51.150  1.00  0.00    -0.340 N 
HETATM   16  H11 UNL     1      24.507   2.066  50.221  1.00  0.00     0.167 HD
BRANCH  15  17
HETATM   17  C10 UNL     1      25.075   1.891  52.063  1.00  0.00     0.033 A 
HETATM   18  C11 UNL     1      25.344   2.447  53.290  1.00  0.00     0.031 A 
HETATM   19  C12 UNL     1      26.543   2.085  53.902  1.00  0.00     0.027 A 
HETATM   20  C13 UNL     1      27.409   1.219  53.307  1.00  0.00     0.074 A 
HETATM   21  C14 UNL     1      27.146   0.650  52.065  1.00  0.00     0.027 A 
HETATM   22  C15 UNL     1      25.939   1.013  51.450  1.00  0.00     0.031 A 
BRANCH  20  23
HETATM   23  S2  UNL     1      28.833   0.884  54.246  1.00  0.00     0.239 S 
HETATM   24  O2  UNL     1      28.484  -0.188  55.273  1.00  0.00    -0.206 OA
HETATM   25  O3  UNL     1      29.251   2.103  55.023  1.00  0.00    -0.206 OA
BRANCH  23  26
HETATM   26  N7  UNL     1      30.144   0.317  53.304  1.00  0.00    -0.225 NA
HETATM   27  H14 UNL     1      31.003   0.820  53.571  1.00  0.00     0.136 HD
HETATM   28  H15 UNL     1      29.887   0.411  52.294  1.00  0.00     0.136 HD
ENDBRANCH  23  26
ENDBRANCH  20  23
ENDBRANCH  15  17
ENDBRANCH  14  15
BRANCH   1  29
HETATM   29  N1  UNL     1      24.077   4.574  49.911  1.00  0.00    -0.407 N 
HETATM   30  H1  UNL     1      24.732   3.728  50.008  1.00  0.00     0.155 HD
HETATM   31  H2  UNL     1      24.699   5.299  49.483  1.00  0.00     0.155 HD
ENDBRANCH   1  29
BRANCH   8  32
HETATM   32  N2  UNL     1      17.869  -0.492  51.904  1.00  0.00    -0.383 N 
HETATM   33  H8  UNL     1      17.236  -0.424  51.078  1.00  0.00     0.157 HD
HETATM   34  H9  UNL     1      17.043  -0.778  52.466  1.00  0.00     0.157 HD
ENDBRANCH   8  32
TORSDOF 6
ENDMDL
MODEL 5
REMARK VINA RESULT:      -7.7      2.375      7.187
REMARK  6 active torsions:
REMARK  status: ('A' for Active; 'I' for Inactive)
REMARK    1  A    between atoms: N1_1  and  C1_2 
REMARK    2  A    between atoms: C6_9  and  N2_10 
REMARK    3  A    between atoms: C9_16  and  N6_17 
REMARK    4  A    between atoms: N6_17  and  C10_18 
REMARK    5  A    between atoms: C13_21  and  S2_22 
REMARK    6  A    between atoms: S2_22  and  N7_23 
ROOT
HETATM    1  C1  UNL     1      21.425   3.842  50.440  1.00  0.00     0.103 C 
HETATM    2  C2  UNL     1      22.454   4.659  50.132  1.00  0.00     0.063 C 
HETATM    3  S1  UNL     1      21.770   6.227  49.751  1.00  0.00    -0.099 SA
HETATM    4  C3  UNL     1      22.913   7.562  49.451  1.00  0.00     0.247 C 
HETATM    5  O1  UNL     1      23.518   7.990  50.582  1.00  0.00    -0.376 OA
HETATM    6  C4  UNL     1      24.319   7.087  51.183  1.00  0.00     0.215 C 
HETATM    7  C5  UNL     1      25.401   6.729  50.251  1.00  0.00     0.059 A 
HETATM    8  C6  UNL     1      26.214   7.821  49.917  1.00  0.00     0.135 A 
HETATM    9  N3  UNL     1      27.273   7.813  49.090  1.00  0.00    -0.224 NA
HETATM   10  C7  UNL     1      27.638   6.670  48.495  1.00  0.00     0.237 A 
HETATM   11  N4  UNL     1      26.878   5.603  48.799  1.00  0.00    -0.222 NA
HETATM   12  C8  UNL     1      25.832   5.591  49.606  1.00  0.00     0.165 A 
HETATM   13  N5  UNL     1      25.042   4.533  49.963  1.00  0.00    -0.209 NA
HETATM   14  C9  UNL     1      23.848   4.262  50.131  1.00  0.00     0.148 C 
ENDROOT
BRANCH  14  15
HETATM   15  N6  UNL     1      24.025   2.858  50.379  1.00  0.00    -0.340 N 
HETATM   16  H11 UNL     1      23.689   2.019  49.796  1.00  0.00     0.167 HD
BRANCH  15  17
HETATM   17  C10 UNL     1      24.684   2.141  51.452  1.00  0.00     0.033 A 
HETATM   18  C11 UNL     1      24.212   1.622  52.633  1.00  0.00     0.031 A 
HETATM   19  C12 UNL     1      25.140   1.000  53.468  1.00  0.00     0.027 A 
HETATM   20  C13 UNL     1      26.455   0.912  53.126  1.00  0.00     0.074 A 
HETATM   21  C14 UNL     1      26.942   1.435  51.932  1.00  0.00     0.027 A 
HETATM   22  C15 UNL     1      26.009   2.059  51.091  1.00  0.00     0.031 A 
BRANCH  20  23
HETATM   23  S2  UNL     1      27.437   0.080  54.294  1.00  0.00     0.239 S 
HETATM   24  O2  UNL     1      26.522  -0.457  55.389  1.00  0.00    -0.206 OA
HETATM   25  O3  UNL     1      28.389   1.037  54.960  1.00  0.00    -0.206 OA
BRANCH  23  26
HETATM   26  N7  UNL     1      28.306  -1.236  53.629  1.00  0.00    -0.225 NA
HETATM   27  H14 UNL     1      27.703  -1.750  52.972  1.00  0.00     0.136 HD
HETATM   28  H15 UNL     1      28.677  -1.815  54.417  1.00  0.00     0.136 HD
ENDBRANCH  23  26
ENDBRANCH  20  23
ENDBRANCH  15  17
ENDBRANCH  14  15
BRANCH   1  29
HETATM   29  N1  UNL     1      21.276   2.485  50.827  1.00  0.00    -0.407 N 
HETATM   30  H1  UNL     1      21.893   2.127  51.630  1.00  0.00     0.155 HD
HETATM   31  H2  UNL     1      20.722   1.637  50.565  1.00  0.00     0.155 HD
ENDBRANCH   1  29
BRANCH   8  32
HETATM   32  N2  UNL     1      26.099   9.173  50.396  1.00  0.00    -0.383 N 
HETATM   33  H8  UNL     1      25.453   9.984  50.510  1.00  0.00     0.157 HD
HETATM   34  H9  UNL     1      26.841   9.751  50.839  1.00  0.00     0.157 HD
ENDBRANCH   8  32
TORSDOF 6
ENDMDL
MODEL 6
REMARK VINA RESULT:      -7.7      2.100      2.729
REMARK  6 active torsions:
REMARK  status: ('A' for Active; 'I' for Inactive)
REMARK    1  A    between atoms: N1_1  and  C1_2 
REMARK    2  A    between atoms: C6_9  and  N2_10 
REMARK    3  A    between atoms: C9_16  and  N6_17 
REMARK    4  A    between atoms: N6_17  and  C10_18 
REMARK    5  A    between atoms: C13_21  and  S2_22 
REMARK    6  A    between atoms: S2_22  and  N7_23 
ROOT
HETATM    1  C1  UNL     1      23.268   4.963  49.545  1.00  0.00     0.103 C 
HETATM    2  C2  UNL     1      23.983   4.225  50.422  1.00  0.00     0.063 C 
HETATM    3  S1  UNL     1      22.946   3.917  51.801  1.00  0.00    -0.099 SA
HETATM    4  C3  UNL     1      23.574   2.827  53.063  1.00  0.00     0.247 C 
HETATM    5  O1  UNL     1      23.599   1.534  52.667  1.00  0.00    -0.376 OA
HETATM    6  C4  UNL     1      24.435   1.263  51.644  1.00  0.00     0.215 C 
HETATM    7  C5  UNL     1      25.808   1.588  52.063  1.00  0.00     0.059 A 
HETATM    8  C6  UNL     1      26.243   0.814  53.149  1.00  0.00     0.135 A 
HETATM    9  N3  UNL     1      27.440   0.881  53.757  1.00  0.00    -0.224 NA
HETATM   10  C7  UNL     1      28.353   1.760  53.324  1.00  0.00     0.237 A 
HETATM   11  N4  UNL     1      27.964   2.515  52.282  1.00  0.00    -0.222 NA
HETATM   12  C8  UNL     1      26.794   2.467  51.672  1.00  0.00     0.165 A 
HETATM   13  N5  UNL     1      26.359   3.195  50.598  1.00  0.00    -0.209 NA
HETATM   14  C9  UNL     1      25.351   3.796  50.211  1.00  0.00     0.148 C 
ENDROOT
BRANCH  14  15
HETATM   15  N6  UNL     1      25.925   4.339  49.013  1.00  0.00    -0.340 N 
HETATM   16  H11 UNL     1      25.647   4.165  47.988  1.00  0.00     0.167 HD
BRANCH  15  17
HETATM   17  C10 UNL     1      27.023   5.260  48.796  1.00  0.00     0.033 A 
HETATM   18  C11 UNL     1      28.326   5.059  48.412  1.00  0.00     0.031 A 
HETATM   19  C12 UNL     1      29.142   6.185  48.323  1.00  0.00     0.027 A 
HETATM   20  C13 UNL     1      28.667   7.429  48.605  1.00  0.00     0.074 A 
HETATM   21  C14 UNL     1      27.349   7.643  48.996  1.00  0.00     0.027 A 
HETATM   22  C15 UNL     1      26.527   6.511  49.084  1.00  0.00     0.031 A 
BRANCH  20  23
HETATM   23  S2  UNL     1      29.840   8.697  48.411  1.00  0.00     0.239 S 
HETATM   24  O2  UNL     1      29.385   9.594  47.265  1.00  0.00    -0.206 OA
HETATM   25  O3  UNL     1      31.172   8.125  48.006  1.00  0.00    -0.206 OA
BRANCH  23  26
HETATM   26  N7  UNL     1      30.025   9.666  49.809  1.00  0.00    -0.225 NA
HETATM   27  H14 UNL     1      30.971   9.536  50.196  1.00  0.00     0.136 HD
HETATM   28  H15 UNL     1      29.252   9.431  50.475  1.00  0.00     0.136 HD
ENDBRANCH  23  26
ENDBRANCH  20  23
ENDBRANCH  15  17
ENDBRANCH  14  15
BRANCH   1  29
HETATM   29  N1  UNL     1      23.496   5.539  48.269  1.00  0.00    -0.407 N 
HETATM   30  H1  UNL     1      22.858   5.228  47.463  1.00  0.00     0.155 HD
HETATM   31  H2  UNL     1      24.138   6.222  47.805  1.00  0.00     0.155 HD
ENDBRANCH   1  29
BRANCH   8  32
HETATM   32  N2  UNL     1      25.513  -0.222  53.830  1.00  0.00    -0.383 N 
HETATM   33  H8  UNL     1      24.567  -0.537  54.135  1.00  0.00     0.157 HD
HETATM   34  H9  UNL     1      25.897  -1.086  54.261  1.00  0.00     0.157 HD
ENDBRANCH   8  32
TORSDOF 6
ENDMDL
MODEL 7
REMARK VINA RESULT:      -7.5      2.408      3.227
REMARK  6 active torsions:
REMARK  status: ('A' for Active; 'I' for Inactive)
REMARK    1  A    between atoms: N1_1  and  C1_2 
REMARK    2  A    between atoms: C6_9  and  N2_10 
REMARK    3  A    between atoms: C9_16  and  N6_17 
REMARK    4  A    between atoms: N6_17  and  C10_18 
REMARK    5  A    between atoms: C13_21  and  S2_22 
REMARK    6  A    between atoms: S2_22  and  N7_23 
ROOT
HETATM    1  C1  UNL     1      20.765   4.838  49.893  1.00  0.00     0.103 C 
HETATM    2  C2  UNL     1      21.393   3.945  50.688  1.00  0.00     0.063 C 
HETATM    3  S1  UNL     1      20.196   3.318  51.804  1.00  0.00    -0.099 SA
HETATM    4  C3  UNL     1      20.706   1.996  52.885  1.00  0.00     0.247 C 
HETATM    5  O1  UNL     1      20.857   0.822  52.232  1.00  0.00    -0.376 OA
HETATM    6  C4  UNL     1      21.839   0.800  51.308  1.00  0.00     0.215 C 
HETATM    7  C5  UNL     1      23.122   1.061  51.982  1.00  0.00     0.059 A 
HETATM    8  C6  UNL     1      23.447   0.081  52.931  1.00  0.00     0.135 A 
HETATM    9  N3  UNL     1      24.543   0.044  53.707  1.00  0.00    -0.224 NA
HETATM   10  C7  UNL     1      25.456   1.019  53.608  1.00  0.00     0.237 A 
HETATM   11  N4  UNL     1      25.172   1.973  52.704  1.00  0.00    -0.222 NA
HETATM   12  C8  UNL     1      24.101   2.029  51.933  1.00  0.00     0.165 A 
HETATM   13  N5  UNL     1      23.777   2.962  50.987  1.00  0.00    -0.209 NA
HETATM   14  C9  UNL     1      22.800   3.606  50.593  1.00  0.00     0.148 C 
ENDROOT
BRANCH  14  15
HETATM   15  N6  UNL     1      23.501   4.412  49.633  1.00  0.00    -0.340 N 
HETATM   16  H11 UNL     1      23.542   4.310  48.563  1.00  0.00     0.167 HD
BRANCH  15  17
HETATM   17  C10 UNL     1      24.349   5.577  49.783  1.00  0.00     0.033 A 
HETATM   18  C11 UNL     1      24.259   6.678  50.599  1.00  0.00     0.031 A 
HETATM   19  C12 UNL     1      25.252   7.647  50.469  1.00  0.00     0.027 A 
HETATM   20  C13 UNL     1      26.266   7.508  49.572  1.00  0.00     0.074 A 
HETATM   21  C14 UNL     1      26.366   6.396  48.741  1.00  0.00     0.027 A 
HETATM   22  C15 UNL     1      25.369   5.420  48.873  1.00  0.00     0.031 A 
BRANCH  20  23
HETATM   23  S2  UNL     1      27.410   8.816  49.585  1.00  0.00     0.239 S 
HETATM   24  O2  UNL     1      26.907   9.898  48.635  1.00  0.00    -0.206 OA
HETATM   25  O3  UNL     1      28.740   8.359  49.049  1.00  0.00    -0.206 OA
BRANCH  23  26
HETATM   26  N7  UNL     1      27.617   9.516  51.133  1.00  0.00    -0.225 NA
HETATM   27  H14 UNL     1      28.596   9.406  51.432  1.00  0.00     0.136 HD
HETATM   28  H15 UNL     1      26.918   9.087  51.783  1.00  0.00     0.136 HD
ENDBRANCH  23  26
ENDBRANCH  20  23
ENDBRANCH  15  17
ENDBRANCH  14  15
BRANCH   1  29
HETATM   29  N1  UNL     1      21.133   5.683  48.815  1.00  0.00    -0.407 N 
HETATM   30  H1  UNL     1      21.600   5.227  47.962  1.00  0.00     0.155 HD
HETATM   31  H2  UNL     1      21.104   6.695  48.549  1.00  0.00     0.155 HD
ENDBRANCH   1  29
BRANCH   8  32
HETATM   32  N2  UNL     1      22.689  -1.097  53.263  1.00  0.00    -0.383 N 
HETATM   33  H8  UNL     1      21.792  -1.447  53.662  1.00  0.00     0.157 HD
HETATM   34  H9  UNL     1      22.973  -2.088  53.129  1.00  0.00     0.157 HD
ENDBRANCH   8  32
TORSDOF 6
ENDMDL
MODEL 8
REMARK VINA RESULT:      -7.5      3.107      7.065
REMARK  6 active torsions:
REMARK  status: ('A' for Active; 'I' for Inactive)
REMARK    1  A    between atoms: N1_1  and  C1_2 
REMARK    2  A    between atoms: C6_9  and  N2_10 
REMARK    3  A    between atoms: C9_16  and  N6_17 
REMARK    4  A    between atoms: N6_17  and  C10_18 
REMARK    5  A    between atoms: C13_21  and  S2_22 
REMARK    6  A    between atoms: S2_22  and  N7_23 
ROOT
HETATM    1  C1  UNL     1      20.818   1.435  51.727  1.00  0.00     0.103 C 
HETATM    2  C2  UNL     1      21.573   2.490  51.351  1.00  0.00     0.063 C 
HETATM    3  S1  UNL     1      20.475   3.811  51.007  1.00  0.00    -0.099 SA
HETATM    4  C3  UNL     1      21.200   5.395  50.630  1.00  0.00     0.247 C 
HETATM    5  O1  UNL     1      21.736   5.992  51.719  1.00  0.00    -0.376 OA
HETATM    6  C4  UNL     1      22.783   5.346  52.272  1.00  0.00     0.215 C 
HETATM    7  C5  UNL     1      23.864   5.269  51.275  1.00  0.00     0.059 A 
HETATM    8  C6  UNL     1      24.336   6.531  50.884  1.00  0.00     0.135 A 
HETATM    9  N3  UNL     1      25.307   6.787  49.992  1.00  0.00    -0.224 NA
HETATM   10  C7  UNL     1      25.927   5.769  49.380  1.00  0.00     0.237 A 
HETATM   11  N4  UNL     1      25.497   4.546  49.736  1.00  0.00    -0.222 NA
HETATM   12  C8  UNL     1      24.543   4.273  50.608  1.00  0.00     0.165 A 
HETATM   13  N5  UNL     1      24.085   3.051  51.019  1.00  0.00    -0.209 NA
HETATM   14  C9  UNL     1      23.020   2.476  51.264  1.00  0.00     0.148 C 
ENDROOT
BRANCH  14  15
HETATM   15  N6  UNL     1      23.578   1.176  51.506  1.00  0.00    -0.340 N 
HETATM   16  H11 UNL     1      23.250   0.218  51.141  1.00  0.00     0.167 HD
BRANCH  15  17
HETATM   17  C10 UNL     1      24.717   0.742  52.289  1.00  0.00     0.033 A 
HETATM   18  C11 UNL     1      24.822   0.292  53.583  1.00  0.00     0.031 A 
HETATM   19  C12 UNL     1      26.099  -0.025  54.042  1.00  0.00     0.027 A 
HETATM   20  C13 UNL     1      27.194   0.108  53.244  1.00  0.00     0.074 A 
HETATM   21  C14 UNL     1      27.097   0.564  51.932  1.00  0.00     0.027 A 
HETATM   22  C15 UNL     1      25.813   0.881  51.469  1.00  0.00     0.031 A 
BRANCH  20  23
HETATM   23  S2  UNL     1      28.686  -0.361  54.001  1.00  0.00     0.239 S 
HETATM   24  O2  UNL     1      28.953  -1.823  53.661  1.00  0.00    -0.206 OA
HETATM   25  O3  UNL     1      28.563  -0.284  55.499  1.00  0.00    -0.206 OA
BRANCH  23  26
HETATM   26  N7  UNL     1      30.028   0.565  53.480  1.00  0.00    -0.225 NA
HETATM   27  H14 UNL     1      30.599   0.007  52.829  1.00  0.00     0.136 HD
HETATM   28  H15 UNL     1      30.543   0.900  54.327  1.00  0.00     0.136 HD
ENDBRANCH  23  26
ENDBRANCH  20  23
ENDBRANCH  15  17
ENDBRANCH  14  15
BRANCH   1  29
HETATM   29  N1  UNL     1      21.060   0.096  52.128  1.00  0.00    -0.407 N 
HETATM   30  H1  UNL     1      21.482  -0.572  51.401  1.00  0.00     0.155 HD
HETATM   31  H2  UNL     1      20.949  -0.517  52.969  1.00  0.00     0.155 HD
ENDBRANCH   1  29
BRANCH   8  32
HETATM   32  N2  UNL     1      23.894   7.813  51.364  1.00  0.00    -0.383 N 
HETATM   33  H8  UNL     1      24.205   8.748  51.707  1.00  0.00     0.157 HD
HETATM   34  H9  UNL     1      22.914   8.136  51.491  1.00  0.00     0.157 HD
ENDBRANCH   8  32
TORSDOF 6
ENDMDL
MODEL 9
REMARK VINA RESULT:      -7.3      3.169      7.166
REMARK  6 active torsions:
REMARK  status: ('A' for Active; 'I' for Inactive)
REMARK    1  A    between atoms: N1_1  and  C1_2 
REMARK    2  A    between atoms: C6_9  and  N2_10 
REMARK    3  A    between atoms: C9_16  and  N6_17 
REMARK    4  A    between atoms: N6_17  and  C10_18 
REMARK    5  A    between atoms: C13_21  and  S2_22 
REMARK    6  A    between atoms: S2_22  and  N7_23 
ROOT
HETATM    1  C1  UNL     1      21.697   1.352  49.865  1.00  0.00     0.103 C 
HETATM    2  C2  UNL     1      22.379   2.420  49.398  1.00  0.00     0.063 C 
HETATM    3  S1  UNL     1      21.688   2.831  47.841  1.00  0.00    -0.099 SA
HETATM    4  C3  UNL     1      22.292   4.309  47.048  1.00  0.00     0.247 C 
HETATM    5  O1  UNL     1      21.854   5.437  47.651  1.00  0.00    -0.376 OA
HETATM    6  C4  UNL     1      22.290   5.619  48.915  1.00  0.00     0.215 C 
HETATM    7  C5  UNL     1      23.760   5.709  48.894  1.00  0.00     0.059 A 
HETATM    8  C6  UNL     1      24.227   6.803  48.151  1.00  0.00     0.135 A 
HETATM    9  N3  UNL     1      25.509   7.147  47.944  1.00  0.00    -0.224 NA
HETATM   10  C7  UNL     1      26.487   6.405  48.479  1.00  0.00     0.237 A 
HETATM   11  N4  UNL     1      26.069   5.349  49.200  1.00  0.00    -0.222 NA
HETATM   12  C8  UNL     1      24.816   4.993  49.413  1.00  0.00     0.165 A 
HETATM   13  N5  UNL     1      24.339   3.945  50.153  1.00  0.00    -0.209 NA
HETATM   14  C9  UNL     1      23.473   3.066  50.096  1.00  0.00     0.148 C 
ENDROOT
BRANCH  14  15
HETATM   15  N6  UNL     1      23.847   2.378  51.299  1.00  0.00    -0.340 N 
HETATM   16  H11 UNL     1      23.220   1.996  52.085  1.00  0.00     0.167 HD
BRANCH  15  17
HETATM   17  C10 UNL     1      25.138   1.989  51.830  1.00  0.00     0.033 A 
HETATM   18  C11 UNL     1      26.272   1.507  51.222  1.00  0.00     0.031 A 
HETATM   19  C12 UNL     1      27.353   1.202  52.047  1.00  0.00     0.027 A 
HETATM   20  C13 UNL     1      27.287   1.375  53.396  1.00  0.00     0.074 A 
HETATM   21  C14 UNL     1      26.143   1.862  54.021  1.00  0.00     0.027 A 
HETATM   22  C15 UNL     1      25.056   2.170  53.191  1.00  0.00     0.031 A 
BRANCH  20  23
HETATM   23  S2  UNL     1      28.749   0.957  54.237  1.00  0.00     0.239 S 
HETATM   24  O2  UNL     1      28.416  -0.119  55.265  1.00  0.00    -0.206 OA
HETATM   25  O3  UNL     1      29.270   2.140  55.007  1.00  0.00    -0.206 OA
BRANCH  23  26
HETATM   26  N7  UNL     1      29.972   0.352  53.204  1.00  0.00    -0.225 NA
HETATM   27  H14 UNL     1      29.541  -0.055  52.361  1.00  0.00     0.136 HD
HETATM   28  H15 UNL     1      30.561  -0.318  53.752  1.00  0.00     0.136 HD
ENDBRANCH  23  26
ENDBRANCH  20  23
ENDBRANCH  15  17
ENDBRANCH  14  15
BRANCH   1  29
HETATM   29  N1  UNL     1      21.740   0.540  51.027  1.00  0.00    -0.407 N 
HETATM   30  H1  UNL     1      22.419  -0.292  51.027  1.00  0.00     0.155 HD
HETATM   31  H2  UNL     1      21.286   0.468  51.967  1.00  0.00     0.155 HD
ENDBRANCH   1  29
BRANCH   8  32
HETATM   32  N2  UNL     1      23.438   7.794  47.469  1.00  0.00    -0.383 N 
HETATM   33  H8  UNL     1      22.573   7.957  46.910  1.00  0.00     0.157 HD
HETATM   34  H9  UNL     1      23.638   8.811  47.384  1.00  0.00     0.157 HD
ENDBRANCH   8  32
TORSDOF 6
ENDMDL
