MODEL 1
REMARK VINA RESULT:      -9.1      0.000      0.000
REMARK  3 active torsions:
REMARK  status: ('A' for Active; 'I' for Inactive)
REMARK    1  A    between atoms: C3_3  and  C4_4 
REMARK    2  A    between atoms: C13_14  and  N2_15 
REMARK    3  A    between atoms: N2_15  and  C14_16 
ROOT
HETATM    1  C1  UNL     1      21.145   4.335  44.678  1.00  0.00     0.112 C 
HETATM    2  C2  UNL     1      21.567   3.849  45.993  1.00  0.00    -0.108 C 
HETATM    3  C3  UNL     1      21.923   3.466  47.076  1.00  0.00    -0.071 C 
ENDROOT
BRANCH   3   4
HETATM    4  C4  UNL     1      22.376   3.003  48.374  1.00  0.00     0.222 C 
HETATM    5  C5  UNL     1      22.071   1.494  48.406  1.00  0.00     0.013 C 
HETATM    6  C6  UNL     1      21.420   0.988  49.416  1.00  0.00    -0.024 C 
HETATM    7  C7  UNL     1      20.776   1.378  50.684  1.00  0.00     0.054 C 
HETATM    8  C8  UNL     1      19.475   0.777  50.904  1.00  0.00    -0.021 C 
HETATM    9  C9  UNL     1      20.096   0.169  51.947  1.00  0.00     0.019 C 
HETATM   10  C10 UNL     1      21.295  -0.055  52.749  1.00  0.00     0.044 C 
HETATM   11  C11 UNL     1      20.958  -1.043  53.811  1.00  0.00     0.099 C 
HETATM   12  C12 UNL     1      22.560   0.441  52.692  1.00  0.00     0.048 C 
HETATM   13  N1  UNL     1      20.710  -1.837  54.663  1.00  0.00    -0.191 NA
HETATM   14  C13 UNL     1      23.857   1.116  52.424  1.00  0.00     0.246 C 
HETATM   15  O1  UNL     1      24.030   1.580  51.124  1.00  0.00    -0.361 OA
HETATM   16  C20 UNL     1      23.960   2.952  50.994  1.00  0.00     0.197 C 
HETATM   17  C21 UNL     1      24.363   3.456  49.640  1.00  0.00     0.196 C 
HETATM   18  O2  UNL     1      23.733   3.012  48.559  1.00  0.00    -0.368 OA
BRANCH  14  19
HETATM   19  N2  UNL     1      25.022   0.346  52.751  1.00  0.00    -0.360 N 
HETATM   20  H13 UNL     1      24.933  -0.714  52.798  1.00  0.00     0.162 HD
BRANCH  19  21
HETATM   21  C14 UNL     1      26.375   0.720  53.050  1.00  0.00     0.031 A 
HETATM   22  C15 UNL     1      26.822   2.026  53.246  1.00  0.00     0.029 A 
HETATM   23  C16 UNL     1      28.117   2.287  53.546  1.00  0.00     0.004 A 
HETATM   24  C17 UNL     1      29.071   1.321  53.676  1.00  0.00     0.019 A 
HETATM   25  C18 UNL     1      28.669   0.003  53.489  1.00  0.00     0.013 A 
HETATM   26 BR1  UNL     1      30.017  -1.325  53.677  1.00  0.00    -0.051 Br
HETATM   27  C19 UNL     1      27.338  -0.256  53.183  1.00  0.00     0.048 A 
ENDBRANCH  19  21
ENDBRANCH  14  19
ENDBRANCH   3   4
TORSDOF 3
ENDMDL
MODEL 2
REMARK VINA RESULT:      -9.0      3.915      6.237
REMARK  3 active torsions:
REMARK  status: ('A' for Active; 'I' for Inactive)
REMARK    1  A    between atoms: C3_3  and  C4_4 
REMARK    2  A    between atoms: C13_14  and  N2_15 
REMARK    3  A    between atoms: N2_15  and  C14_16 
ROOT
HETATM    1  C1  UNL     1      17.146  -2.137  52.966  1.00  0.00     0.112 C 
HETATM    2  C2  UNL     1      18.151  -1.084  52.809  1.00  0.00    -0.108 C 
HETATM    3  C3  UNL     1      18.989  -0.232  52.674  1.00  0.00    -0.071 C 
ENDROOT
BRANCH   3   4
HETATM    4  C4  UNL     1      20.013   0.785  52.530  1.00  0.00     0.222 C 
HETATM    5  C5  UNL     1      21.140   0.126  51.714  1.00  0.00     0.013 C 
HETATM    6  C6  UNL     1      22.368   0.181  52.148  1.00  0.00    -0.024 C 
HETATM    7  C7  UNL     1      23.170   0.688  53.277  1.00  0.00     0.054 C 
HETATM    8  C8  UNL     1      24.151  -0.253  53.785  1.00  0.00    -0.021 C 
HETATM    9  C9  UNL     1      25.045   0.669  53.343  1.00  0.00     0.019 C 
HETATM   10  C10 UNL     1      25.330   1.951  52.705  1.00  0.00     0.044 C 
HETATM   11  C11 UNL     1      26.809   2.106  52.629  1.00  0.00     0.099 C 
HETATM   12  C12 UNL     1      24.540   2.940  52.207  1.00  0.00     0.048 C 
HETATM   13  N1  UNL     1      27.989   2.245  52.553  1.00  0.00    -0.191 NA
HETATM   14  C13 UNL     1      23.480   3.868  51.737  1.00  0.00     0.246 C 
HETATM   15  O1  UNL     1      22.245   3.282  51.477  1.00  0.00    -0.361 OA
HETATM   16  C20 UNL     1      21.269   3.575  52.407  1.00  0.00     0.197 C 
HETATM   17  C21 UNL     1      19.894   3.124  52.009  1.00  0.00     0.196 C 
HETATM   18  O2  UNL     1      19.678   1.844  51.728  1.00  0.00    -0.368 OA
BRANCH  14  19
HETATM   19  N2  UNL     1      23.822   4.646  50.581  1.00  0.00    -0.360 N 
HETATM   20  H13 UNL     1      23.042   5.153  50.061  1.00  0.00     0.162 HD
BRANCH  19  21
HETATM   21  C14 UNL     1      25.072   4.906  49.926  1.00  0.00     0.031 A 
HETATM   22  C15 UNL     1      26.018   3.939  49.589  1.00  0.00     0.029 A 
HETATM   23  C16 UNL     1      27.166   4.272  48.952  1.00  0.00     0.004 A 
HETATM   24  C17 UNL     1      27.489   5.548  48.596  1.00  0.00     0.019 A 
HETATM   25  C18 UNL     1      26.573   6.546  48.912  1.00  0.00     0.013 A 
HETATM   26 BR1  UNL     1      27.045   8.316  48.404  1.00  0.00    -0.051 Br
HETATM   27  C19 UNL     1      25.397   6.195  49.565  1.00  0.00     0.048 A 
ENDBRANCH  19  21
ENDBRANCH  14  19
ENDBRANCH   3   4
TORSDOF 3
ENDMDL
MODEL 3
REMARK VINA RESULT:      -8.9      4.161      6.539
REMARK  3 active torsions:
REMARK  status: ('A' for Active; 'I' for Inactive)
REMARK    1  A    between atoms: C3_3  and  C4_4 
REMARK    2  A    between atoms: C13_14  and  N2_15 
REMARK    3  A    between atoms: N2_15  and  C14_16 
ROOT
HETATM    1  C1  UNL     1      19.326   9.722  50.087  1.00  0.00     0.112 C 
HETATM    2  C2  UNL     1      20.350   8.676  50.050  1.00  0.00    -0.108 C 
HETATM    3  C3  UNL     1      21.198   7.824  50.036  1.00  0.00    -0.071 C 
ENDROOT
BRANCH   3   4
HETATM    4  C4  UNL     1      22.238   6.813  50.018  1.00  0.00     0.222 C 
HETATM    5  C5  UNL     1      23.526   7.535  50.455  1.00  0.00     0.013 C 
HETATM    6  C6  UNL     1      24.605   7.422  49.732  1.00  0.00    -0.024 C 
HETATM    7  C7  UNL     1      25.104   6.796  48.494  1.00  0.00     0.054 C 
HETATM    8  C8  UNL     1      25.913   7.669  47.666  1.00  0.00    -0.021 C 
HETATM    9  C9  UNL     1      26.901   6.785  47.957  1.00  0.00     0.019 C 
HETATM   10  C10 UNL     1      27.354   5.569  48.626  1.00  0.00     0.044 C 
HETATM   11  C11 UNL     1      28.806   5.403  48.342  1.00  0.00     0.099 C 
HETATM   12  C12 UNL     1      26.727   4.643  49.402  1.00  0.00     0.048 C 
HETATM   13  N1  UNL     1      29.969   5.257  48.132  1.00  0.00    -0.191 NA
HETATM   14  C13 UNL     1      25.831   3.779  50.213  1.00  0.00     0.246 C 
HETATM   15  O1  UNL     1      24.695   4.404  50.716  1.00  0.00    -0.361 OA
HETATM   16  C20 UNL     1      23.519   4.033  50.096  1.00  0.00     0.197 C 
HETATM   17  C21 UNL     1      22.284   4.539  50.780  1.00  0.00     0.196 C 
HETATM   18  O2  UNL     1      22.129   5.843  50.978  1.00  0.00    -0.368 OA
BRANCH  14  19
HETATM   19  N2  UNL     1      26.463   3.115  51.317  1.00  0.00    -0.360 N 
HETATM   20  H13 UNL     1      27.250   3.619  51.829  1.00  0.00     0.162 HD
BRANCH  19  21
HETATM   21  C14 UNL     1      26.253   1.831  51.921  1.00  0.00     0.031 A 
HETATM   22  C15 UNL     1      27.251   0.893  52.179  1.00  0.00     0.029 A 
HETATM   23  C16 UNL     1      26.965  -0.291  52.773  1.00  0.00     0.004 A 
HETATM   24  C17 UNL     1      25.709  -0.659  53.157  1.00  0.00     0.019 A 
HETATM   25  C18 UNL     1      24.681   0.247  52.918  1.00  0.00     0.013 A 
HETATM   26 BR1  UNL     1      22.940  -0.287  53.464  1.00  0.00    -0.051 Br
HETATM   27  C19 UNL     1      24.984   1.460  52.310  1.00  0.00     0.048 A 
ENDBRANCH  19  21
ENDBRANCH  14  19
ENDBRANCH   3   4
TORSDOF 3
ENDMDL
MODEL 4
REMARK VINA RESULT:      -8.8      3.594      5.512
REMARK  3 active torsions:
REMARK  status: ('A' for Active; 'I' for Inactive)
REMARK    1  A    between atoms: C3_3  and  C4_4 
REMARK    2  A    between atoms: C13_14  and  N2_15 
REMARK    3  A    between atoms: N2_15  and  C14_16 
ROOT
HETATM    1  C1  UNL     1      16.319  -0.232  51.048  1.00  0.00     0.112 C 
HETATM    2  C2  UNL     1      17.689   0.255  51.220  1.00  0.00    -0.108 C 
HETATM    3  C3  UNL     1      18.807   0.673  51.362  1.00  0.00    -0.071 C 
ENDROOT
BRANCH   3   4
HETATM    4  C4  UNL     1      20.155   1.189  51.511  1.00  0.00     0.222 C 
HETATM    5  C5  UNL     1      21.088  -0.011  51.262  1.00  0.00     0.013 C 
HETATM    6  C6  UNL     1      22.026  -0.288  52.123  1.00  0.00    -0.024 C 
HETATM    7  C7  UNL     1      22.581   0.168  53.410  1.00  0.00     0.054 C 
HETATM    8  C8  UNL     1      22.865  -0.899  54.351  1.00  0.00    -0.021 C 
HETATM    9  C9  UNL     1      24.152  -0.499  54.188  1.00  0.00     0.019 C 
HETATM   10  C10 UNL     1      25.132   0.392  53.573  1.00  0.00     0.044 C 
HETATM   11  C11 UNL     1      26.483  -0.012  54.051  1.00  0.00     0.099 C 
HETATM   12  C12 UNL     1      25.028   1.438  52.709  1.00  0.00     0.048 C 
HETATM   13  N1  UNL     1      27.572  -0.326  54.415  1.00  0.00    -0.191 NA
HETATM   14  C13 UNL     1      24.659   2.532  51.774  1.00  0.00     0.246 C 
HETATM   15  O1  UNL     1      23.436   2.377  51.128  1.00  0.00    -0.361 OA
HETATM   16  C20 UNL     1      22.443   3.223  51.578  1.00  0.00     0.197 C 
HETATM   17  C21 UNL     1      21.201   3.204  50.737  1.00  0.00     0.196 C 
HETATM   18  O2  UNL     1      20.561   2.058  50.534  1.00  0.00    -0.368 OA
BRANCH  14  19
HETATM   19  N2  UNL     1      25.632   2.819  50.760  1.00  0.00    -0.360 N 
HETATM   20  H13 UNL     1      26.225   2.017  50.385  1.00  0.00     0.162 HD
BRANCH  19  21
HETATM   21  C14 UNL     1      26.007   4.035  50.097  1.00  0.00     0.031 A 
HETATM   22  C15 UNL     1      27.040   4.157  49.169  1.00  0.00     0.029 A 
HETATM   23  C16 UNL     1      27.313   5.344  48.576  1.00  0.00     0.004 A 
HETATM   24  C17 UNL     1      26.621   6.491  48.828  1.00  0.00     0.019 A 
HETATM   25  C18 UNL     1      25.580   6.416  49.748  1.00  0.00     0.013 A 
HETATM   26 BR1  UNL     1      24.629   8.027  50.082  1.00  0.00    -0.051 Br
HETATM   27  C19 UNL     1      25.306   5.194  50.351  1.00  0.00     0.048 A 
ENDBRANCH  19  21
ENDBRANCH  14  19
ENDBRANCH   3   4
TORSDOF 3
ENDMDL
MODEL 5
REMARK VINA RESULT:      -8.8      3.838      6.224
REMARK  3 active torsions:
REMARK  status: ('A' for Active; 'I' for Inactive)
REMARK    1  A    between atoms: C3_3  and  C4_4 
REMARK    2  A    between atoms: C13_14  and  N2_15 
REMARK    3  A    between atoms: N2_15  and  C14_16 
ROOT
HETATM    1  C1  UNL     1      17.381  -1.633  53.256  1.00  0.00     0.112 C 
HETATM    2  C2  UNL     1      18.642  -0.904  53.114  1.00  0.00    -0.108 C 
HETATM    3  C3  UNL     1      19.677  -0.306  52.978  1.00  0.00    -0.071 C 
ENDROOT
BRANCH   3   4
HETATM    4  C4  UNL     1      20.934   0.396  52.804  1.00  0.00     0.222 C 
HETATM    5  C5  UNL     1      21.961  -0.684  52.417  1.00  0.00     0.013 C 
HETATM    6  C6  UNL     1      23.090  -0.762  53.066  1.00  0.00    -0.024 C 
HETATM    7  C7  UNL     1      23.827  -0.133  54.177  1.00  0.00     0.054 C 
HETATM    8  C8  UNL     1      24.457  -1.073  55.085  1.00  0.00    -0.021 C 
HETATM    9  C9  UNL     1      25.607  -0.518  54.625  1.00  0.00     0.019 C 
HETATM   10  C10 UNL     1      26.294   0.445  53.768  1.00  0.00     0.044 C 
HETATM   11  C11 UNL     1      27.760   0.265  53.958  1.00  0.00     0.099 C 
HETATM   12  C12 UNL     1      25.857   1.393  52.896  1.00  0.00     0.048 C 
HETATM   13  N1  UNL     1      28.935   0.130  54.092  1.00  0.00    -0.191 NA
HETATM   14  C13 UNL     1      25.143   2.349  52.010  1.00  0.00     0.246 C 
HETATM   15  O1  UNL     1      23.849   1.980  51.656  1.00  0.00    -0.361 OA
HETATM   16  C20 UNL     1      22.858   2.718  52.269  1.00  0.00     0.197 C 
HETATM   17  C21 UNL     1      21.484   2.465  51.721  1.00  0.00     0.196 C 
HETATM   18  O2  UNL     1      20.993   1.231  51.720  1.00  0.00    -0.368 OA
BRANCH  14  19
HETATM   19  N2  UNL     1      25.829   2.681  50.795  1.00  0.00    -0.360 N 
HETATM   20  H13 UNL     1      26.277   1.894  50.234  1.00  0.00     0.162 HD
BRANCH  19  21
HETATM   21  C14 UNL     1      26.062   3.929  50.127  1.00  0.00     0.031 A 
HETATM   22  C15 UNL     1      27.058   4.159  49.180  1.00  0.00     0.029 A 
HETATM   23  C16 UNL     1      27.193   5.367  48.583  1.00  0.00     0.004 A 
HETATM   24  C17 UNL     1      26.390   6.436  48.850  1.00  0.00     0.019 A 
HETATM   25  C18 UNL     1      25.380   6.252  49.788  1.00  0.00     0.013 A 
HETATM   26 BR1  UNL     1      24.271   7.755  50.142  1.00  0.00    -0.051 Br
HETATM   27  C19 UNL     1      25.248   5.008  50.396  1.00  0.00     0.048 A 
ENDBRANCH  19  21
ENDBRANCH  14  19
ENDBRANCH   3   4
TORSDOF 3
ENDMDL
MODEL 6
REMARK VINA RESULT:      -8.7      2.896      5.401
REMARK  3 active torsions:
REMARK  status: ('A' for Active; 'I' for Inactive)
REMARK    1  A    between atoms: C3_3  and  C4_4 
REMARK    2  A    between atoms: C13_14  and  N2_15 
REMARK    3  A    between atoms: N2_15  and  C14_16 
ROOT
HETATM    1  C1  UNL     1      17.138   3.834  51.673  1.00  0.00     0.112 C 
HETATM    2  C2  UNL     1      18.574   3.622  51.487  1.00  0.00    -0.108 C 
HETATM    3  C3  UNL     1      19.757   3.451  51.353  1.00  0.00    -0.071 C 
ENDROOT
BRANCH   3   4
HETATM    4  C4  UNL     1      21.188   3.268  51.196  1.00  0.00     0.222 C 
HETATM    5  C5  UNL     1      21.811   4.657  51.430  1.00  0.00     0.013 C 
HETATM    6  C6  UNL     1      22.652   5.141  50.559  1.00  0.00    -0.024 C 
HETATM    7  C7  UNL     1      23.291   4.818  49.270  1.00  0.00     0.054 C 
HETATM    8  C8  UNL     1      23.308   5.914  48.320  1.00  0.00    -0.021 C 
HETATM    9  C9  UNL     1      24.655   5.831  48.476  1.00  0.00     0.019 C 
HETATM   10  C10 UNL     1      25.821   5.203  49.088  1.00  0.00     0.044 C 
HETATM   11  C11 UNL     1      27.035   5.912  48.597  1.00  0.00     0.099 C 
HETATM   12  C12 UNL     1      25.973   4.170  49.960  1.00  0.00     0.048 C 
HETATM   13  N1  UNL     1      28.017   6.472  48.221  1.00  0.00    -0.191 NA
HETATM   14  C13 UNL     1      25.879   3.028  50.906  1.00  0.00     0.246 C 
HETATM   15  O1  UNL     1      24.659   2.894  51.561  1.00  0.00    -0.361 OA
HETATM   16  C20 UNL     1      23.892   1.833  51.124  1.00  0.00     0.197 C 
HETATM   17  C21 UNL     1      22.686   1.564  51.975  1.00  0.00     0.196 C 
HETATM   18  O2  UNL     1      21.794   2.528  52.176  1.00  0.00    -0.368 OA
BRANCH  14  19
HETATM   19  N2  UNL     1      26.899   2.988  51.915  1.00  0.00    -0.360 N 
HETATM   20  H13 UNL     1      27.316   3.910  52.250  1.00  0.00     0.162 HD
BRANCH  19  21
HETATM   21  C14 UNL     1      27.523   1.903  52.616  1.00  0.00     0.031 A 
HETATM   22  C15 UNL     1      28.481   2.041  53.619  1.00  0.00     0.029 A 
HETATM   23  C16 UNL     1      29.004   0.959  54.243  1.00  0.00     0.004 A 
HETATM   24  C17 UNL     1      28.651  -0.325  53.951  1.00  0.00     0.019 A 
HETATM   25  C18 UNL     1      27.698  -0.510  52.955  1.00  0.00     0.013 A 
HETATM   26 BR1  UNL     1      27.222  -2.309  52.567  1.00  0.00    -0.051 Br
HETATM   27  C19 UNL     1      27.166   0.606  52.321  1.00  0.00     0.048 A 
ENDBRANCH  19  21
ENDBRANCH  14  19
ENDBRANCH   3   4
TORSDOF 3
ENDMDL
MODEL 7
REMARK VINA RESULT:      -8.4      4.484      7.042
REMARK  3 active torsions:
REMARK  status: ('A' for Active; 'I' for Inactive)
REMARK    1  A    between atoms: C3_3  and  C4_4 
REMARK    2  A    between atoms: C13_14  and  N2_15 
REMARK    3  A    between atoms: N2_15  and  C14_16 
ROOT
HETATM    1  C1  UNL     1      20.916  11.152  48.434  1.00  0.00     0.112 C 
HETATM    2  C2  UNL     1      21.764   9.970  48.602  1.00  0.00    -0.108 C 
HETATM    3  C3  UNL     1      22.476   9.010  48.734  1.00  0.00    -0.071 C 
ENDROOT
BRANCH   3   4
HETATM    4  C4  UNL     1      23.339   7.852  48.869  1.00  0.00     0.222 C 
HETATM    5  C5  UNL     1      24.654   8.382  49.470  1.00  0.00     0.013 C 
HETATM    6  C6  UNL     1      25.789   8.081  48.903  1.00  0.00    -0.024 C 
HETATM    7  C7  UNL     1      26.344   7.347  47.751  1.00  0.00     0.054 C 
HETATM    8  C8  UNL     1      27.382   8.059  47.032  1.00  0.00    -0.021 C 
HETATM    9  C9  UNL     1      28.172   7.043  47.464  1.00  0.00     0.019 C 
HETATM   10  C10 UNL     1      28.336   5.794  48.202  1.00  0.00     0.044 C 
HETATM   11  C11 UNL     1      29.770   5.398  48.121  1.00  0.00     0.099 C 
HETATM   12  C12 UNL     1      27.475   5.001  48.895  1.00  0.00     0.048 C 
HETATM   13  N1  UNL     1      30.913   5.070  48.074  1.00  0.00    -0.191 NA
HETATM   14  C13 UNL     1      26.355   4.311  49.586  1.00  0.00     0.246 C 
HETATM   15  O1  UNL     1      25.274   5.119  49.922  1.00  0.00    -0.361 OA
HETATM   16  C20 UNL     1      24.148   4.912  49.151  1.00  0.00     0.197 C 
HETATM   17  C21 UNL     1      22.927   5.623  49.655  1.00  0.00     0.196 C 
HETATM   18  O2  UNL     1      22.953   6.941  49.816  1.00  0.00    -0.368 OA
BRANCH  14  19
HETATM   19  N2  UNL     1      26.723   3.593  50.773  1.00  0.00    -0.360 N 
HETATM   20  H13 UNL     1      27.557   3.940  51.338  1.00  0.00     0.162 HD
BRANCH  19  21
HETATM   21  C14 UNL     1      26.175   2.429  51.407  1.00  0.00     0.031 A 
HETATM   22  C15 UNL     1      24.816   2.171  51.576  1.00  0.00     0.029 A 
HETATM   23  C16 UNL     1      24.386   1.033  52.170  1.00  0.00     0.004 A 
HETATM   24  C17 UNL     1      25.222   0.065  52.643  1.00  0.00     0.019 A 
HETATM   25  C18 UNL     1      26.588   0.280  52.496  1.00  0.00     0.013 A 
HETATM   26 BR1  UNL     1      27.734  -1.083  53.162  1.00  0.00    -0.051 Br
HETATM   27  C19 UNL     1      27.021   1.451  51.884  1.00  0.00     0.048 A 
ENDBRANCH  19  21
ENDBRANCH  14  19
ENDBRANCH   3   4
TORSDOF 3
ENDMDL
MODEL 8
REMARK VINA RESULT:      -8.3      3.402      5.246
REMARK  3 active torsions:
REMARK  status: ('A' for Active; 'I' for Inactive)
REMARK    1  A    between atoms: C3_3  and  C4_4 
REMARK    2  A    between atoms: C13_14  and  N2_15 
REMARK    3  A    between atoms: N2_15  and  C14_16 
ROOT
HETATM    1  C1  UNL     1      15.475   3.284  51.600  1.00  0.00     0.112 C 
HETATM    2  C2  UNL     1      16.938   3.347  51.588  1.00  0.00    -0.108 C 
HETATM    3  C3  UNL     1      18.139   3.384  51.565  1.00  0.00    -0.071 C 
ENDROOT
BRANCH   3   4
HETATM    4  C4  UNL     1      19.590   3.407  51.548  1.00  0.00     0.222 C 
HETATM    5  C5  UNL     1      20.019   2.032  51.004  1.00  0.00     0.013 C 
HETATM    6  C6  UNL     1      20.900   1.326  51.657  1.00  0.00    -0.024 C 
HETATM    7  C7  UNL     1      21.724   1.355  52.879  1.00  0.00     0.054 C 
HETATM    8  C8  UNL     1      21.733   0.110  53.624  1.00  0.00    -0.021 C 
HETATM    9  C9  UNL     1      23.051   0.097  53.298  1.00  0.00     0.019 C 
HETATM   10  C10 UNL     1      24.198   0.718  52.640  1.00  0.00     0.044 C 
HETATM   11  C11 UNL     1      25.375  -0.174  52.833  1.00  0.00     0.099 C 
HETATM   12  C12 UNL     1      24.358   1.872  51.939  1.00  0.00     0.048 C 
HETATM   13  N1  UNL     1      26.325  -0.878  52.971  1.00  0.00    -0.191 NA
HETATM   14  C13 UNL     1      24.279   3.169  51.217  1.00  0.00     0.246 C 
HETATM   15  O1  UNL     1      23.011   3.526  50.770  1.00  0.00    -0.361 OA
HETATM   16  C20 UNL     1      22.427   4.557  51.478  1.00  0.00     0.197 C 
HETATM   17  C21 UNL     1      21.164   5.081  50.860  1.00  0.00     0.196 C 
HETATM   18  O2  UNL     1      20.152   4.252  50.630  1.00  0.00    -0.368 OA
BRANCH  14  19
HETATM   19  N2  UNL     1      25.166   3.296  50.097  1.00  0.00    -0.360 N 
HETATM   20  H13 UNL     1      25.506   2.408  49.616  1.00  0.00     0.162 HD
BRANCH  19  21
HETATM   21  C14 UNL     1      25.736   4.437  49.440  1.00  0.00     0.031 A 
HETATM   22  C15 UNL     1      25.035   5.586  49.076  1.00  0.00     0.029 A 
HETATM   23  C16 UNL     1      25.660   6.627  48.475  1.00  0.00     0.004 A 
HETATM   24  C17 UNL     1      26.991   6.642  48.180  1.00  0.00     0.019 A 
HETATM   25  C18 UNL     1      27.730   5.515  48.526  1.00  0.00     0.013 A 
HETATM   26 BR1  UNL     1      29.583   5.559  48.107  1.00  0.00    -0.051 Br
HETATM   27  C19 UNL     1      27.081   4.451  49.143  1.00  0.00     0.048 A 
ENDBRANCH  19  21
ENDBRANCH  14  19
ENDBRANCH   3   4
TORSDOF 3
ENDMDL
MODEL 9
REMARK VINA RESULT:      -8.1      4.181      7.321
REMARK  3 active torsions:
REMARK  status: ('A' for Active; 'I' for Inactive)
REMARK    1  A    between atoms: C3_3  and  C4_4 
REMARK    2  A    between atoms: C13_14  and  N2_15 
REMARK    3  A    between atoms: N2_15  and  C14_16 
ROOT
HETATM    1  C1  UNL     1      29.221  -1.799  53.480  1.00  0.00     0.112 C 
HETATM    2  C2  UNL     1      28.236  -0.815  53.027  1.00  0.00    -0.108 C 
HETATM    3  C3  UNL     1      27.428  -0.014  52.637  1.00  0.00    -0.071 C 
ENDROOT
BRANCH   3   4
HETATM    4  C4  UNL     1      26.472   0.965  52.154  1.00  0.00     0.222 C 
HETATM    5  C5  UNL     1      25.505   1.212  53.327  1.00  0.00     0.013 C 
HETATM    6  C6  UNL     1      24.218   1.136  53.128  1.00  0.00    -0.024 C 
HETATM    7  C7  UNL     1      23.229   0.849  52.073  1.00  0.00     0.054 C 
HETATM    8  C8  UNL     1      22.151  -0.028  52.487  1.00  0.00    -0.021 C 
HETATM    9  C9  UNL     1      21.376   1.065  52.265  1.00  0.00     0.019 C 
HETATM   10  C10 UNL     1      21.244   2.461  51.859  1.00  0.00     0.044 C 
HETATM   11  C11 UNL     1      19.810   2.841  51.983  1.00  0.00     0.099 C 
HETATM   12  C12 UNL     1      22.135   3.394  51.428  1.00  0.00     0.048 C 
HETATM   13  N1  UNL     1      18.669   3.166  52.082  1.00  0.00    -0.191 NA
HETATM   14  C13 UNL     1      23.285   4.225  50.987  1.00  0.00     0.246 C 
HETATM   15  O1  UNL     1      24.533   3.800  51.430  1.00  0.00    -0.361 OA
HETATM   16  C20 UNL     1      25.324   3.235  50.450  1.00  0.00     0.197 C 
HETATM   17  C21 UNL     1      26.738   2.980  50.881  1.00  0.00     0.196 C 
HETATM   18  O2  UNL     1      26.975   2.221  51.944  1.00  0.00    -0.368 OA
BRANCH  14  19
HETATM   19  N2  UNL     1      23.184   5.621  51.305  1.00  0.00    -0.360 N 
HETATM   20  H13 UNL     1      23.563   5.956  52.242  1.00  0.00     0.162 HD
BRANCH  19  21
HETATM   21  C14 UNL     1      22.644   6.739  50.586  1.00  0.00     0.031 A 
HETATM   22  C15 UNL     1      21.311   7.145  50.616  1.00  0.00     0.029 A 
HETATM   23  C16 UNL     1      20.891   8.228  49.920  1.00  0.00     0.004 A 
HETATM   24  C17 UNL     1      21.713   8.994  49.148  1.00  0.00     0.019 A 
HETATM   25  C18 UNL     1      23.053   8.627  49.088  1.00  0.00     0.013 A 
HETATM   26 BR1  UNL     1      24.179   9.711  48.007  1.00  0.00    -0.051 Br
HETATM   27  C19 UNL     1      23.476   7.514  49.807  1.00  0.00     0.048 A 
ENDBRANCH  19  21
ENDBRANCH  14  19
ENDBRANCH   3   4
TORSDOF 3
ENDMDL
