MODEL 1
REMARK VINA RESULT:      -7.6      0.000      0.000
REMARK  3 active torsions:
REMARK  status: ('A' for Active; 'I' for Inactive)
REMARK    1  A    between atoms: C6_6  and  N1_7 
REMARK    2  A    between atoms: N1_7  and  C7_8 
REMARK    3  A    between atoms: C10_12  and  C11_13 
ROOT
HETATM    1  C7  UNL     1      24.261  -0.383  53.880  1.00  0.00     0.727 A 
HETATM    2  N2  UNL     1      23.036  -0.875  54.228  1.00  0.00    -0.075 NA
HETATM    3  C8  UNL     1      21.904  -0.285  53.788  1.00  0.00     0.139 A 
HETATM    4  C9  UNL     1      22.063   0.821  52.980  1.00  0.00     0.053 A 
HETATM    5  C10 UNL     1      23.269   1.363  52.596  1.00  0.00     0.089 A 
HETATM    6  N4  UNL     1      24.315   0.692  53.095  1.00  0.00    -0.062 NA
ENDROOT
BRANCH   1   7
HETATM    7  N1  UNL     1      25.441  -1.022  54.357  1.00  0.00    -0.192 N 
HETATM    8  H9  UNL     1      25.346  -1.895  54.901  1.00  0.00     0.184 HD
BRANCH   7   9
HETATM    9  C6  UNL     1      26.719  -0.483  54.099  1.00  0.00     0.027 C 
HETATM   10  C5  UNL     1      27.394  -0.862  52.817  1.00  0.00     0.084 C 
HETATM   11  C4  UNL     1      28.807  -1.217  53.193  1.00  0.00    -0.024 C 
HETATM   12  C3  UNL     1      29.447  -0.390  54.016  1.00  0.00    -0.022 C 
HETATM   13  C2  UNL     1      28.721   0.834  54.512  1.00  0.00     0.028 C 
HETATM   14  C1  UNL     1      28.675   1.885  53.452  1.00  0.00     0.018 C 
HETATM   15  C15 UNL     1      27.364   0.337  54.914  1.00  0.00     0.007 C 
ENDBRANCH   7   9
ENDBRANCH   1   7
BRANCH   5  16
HETATM   16  C11 UNL     1      23.383   2.539  51.738  1.00  0.00     0.011 A 
HETATM   17  C12 UNL     1      23.436   2.439  50.377  1.00  0.00     0.018 A 
HETATM   18  C13 UNL     1      23.543   3.498  49.501  1.00  0.00     0.037 A 
HETATM   19  P1  UNL     1      23.616   5.085  50.243  1.00  0.00     0.086 P 
HETATM   20  N3  UNL     1      23.535   4.981  51.951  1.00  0.00    -0.262 NA
HETATM   21  C14 UNL     1      23.433   3.749  52.433  1.00  0.00     0.130 A 
ENDBRANCH   5  16
TORSDOF 3
ENDMDL
MODEL 2
REMARK VINA RESULT:      -7.5      1.748      2.417
REMARK  3 active torsions:
REMARK  status: ('A' for Active; 'I' for Inactive)
REMARK    1  A    between atoms: C6_6  and  N1_7 
REMARK    2  A    between atoms: N1_7  and  C7_8 
REMARK    3  A    between atoms: C10_12  and  C11_13 
ROOT
HETATM    1  C7  UNL     1      23.559  -0.893  54.438  1.00  0.00     0.727 A 
HETATM    2  N2  UNL     1      22.476  -1.349  55.133  1.00  0.00    -0.075 NA
HETATM    3  C8  UNL     1      21.224  -1.151  54.668  1.00  0.00     0.139 A 
HETATM    4  C9  UNL     1      21.114  -0.475  53.472  1.00  0.00     0.053 A 
HETATM    5  C10 UNL     1      22.166   0.008  52.726  1.00  0.00     0.089 A 
HETATM    6  N4  UNL     1      23.353  -0.249  53.291  1.00  0.00    -0.062 NA
ENDROOT
BRANCH   1   7
HETATM    7  N1  UNL     1      24.871  -1.112  54.949  1.00  0.00    -0.192 N 
HETATM    8  H9  UNL     1      24.983  -1.709  55.785  1.00  0.00     0.184 HD
BRANCH   7   9
HETATM    9  C6  UNL     1      26.000  -0.534  54.335  1.00  0.00     0.027 C 
HETATM   10  C5  UNL     1      26.512   0.762  54.886  1.00  0.00     0.084 C 
HETATM   11  C4  UNL     1      26.753   1.645  53.691  1.00  0.00    -0.024 C 
HETATM   12  C3  UNL     1      27.394   1.109  52.655  1.00  0.00    -0.022 C 
HETATM   13  C2  UNL     1      27.831  -0.331  52.747  1.00  0.00     0.028 C 
HETATM   14  C1  UNL     1      29.051  -0.458  53.599  1.00  0.00     0.018 C 
HETATM   15  C15 UNL     1      26.641  -1.057  53.301  1.00  0.00     0.007 C 
ENDBRANCH   7   9
ENDBRANCH   1   7
BRANCH   5  16
HETATM   16  C11 UNL     1      21.995   0.719  51.463  1.00  0.00     0.011 A 
HETATM   17  C12 UNL     1      20.887   0.552  50.683  1.00  0.00     0.018 A 
HETATM   18  C13 UNL     1      20.651   1.185  49.482  1.00  0.00     0.037 A 
HETATM   19  P1  UNL     1      21.908   2.286  48.952  1.00  0.00     0.086 P 
HETATM   20  N3  UNL     1      23.202   2.346  50.074  1.00  0.00    -0.262 NA
HETATM   21  C14 UNL     1      23.055   1.569  51.140  1.00  0.00     0.130 A 
ENDBRANCH   5  16
TORSDOF 3
ENDMDL
MODEL 3
REMARK VINA RESULT:      -7.4      2.653      3.752
REMARK  3 active torsions:
REMARK  status: ('A' for Active; 'I' for Inactive)
REMARK    1  A    between atoms: C6_6  and  N1_7 
REMARK    2  A    between atoms: N1_7  and  C7_8 
REMARK    3  A    between atoms: C10_12  and  C11_13 
ROOT
HETATM    1  C7  UNL     1      24.014   0.309  53.341  1.00  0.00     0.727 A 
HETATM    2  N2  UNL     1      24.356   1.590  53.019  1.00  0.00    -0.075 NA
HETATM    3  C8  UNL     1      23.435   2.448  52.531  1.00  0.00     0.139 A 
HETATM    4  C9  UNL     1      22.155   1.956  52.383  1.00  0.00     0.053 A 
HETATM    5  C10 UNL     1      21.751   0.676  52.690  1.00  0.00     0.089 A 
HETATM    6  N4  UNL     1      22.753  -0.077  53.164  1.00  0.00    -0.062 NA
ENDROOT
BRANCH   1   7
HETATM    7  N1  UNL     1      25.004  -0.579  53.854  1.00  0.00    -0.192 N 
HETATM    8  H9  UNL     1      24.700  -1.483  54.252  1.00  0.00     0.184 HD
BRANCH   7   9
HETATM    9  C6  UNL     1      26.373  -0.242  53.826  1.00  0.00     0.027 C 
HETATM   10  C5  UNL     1      27.149  -0.564  52.585  1.00  0.00     0.084 C 
HETATM   11  C4  UNL     1      28.425  -1.205  53.059  1.00  0.00    -0.024 C 
HETATM   12  C3  UNL     1      29.068  -0.616  54.065  1.00  0.00    -0.022 C 
HETATM   13  C2  UNL     1      28.481   0.641  54.655  1.00  0.00     0.028 C 
HETATM   14  C1  UNL     1      28.745   1.813  53.767  1.00  0.00     0.018 C 
HETATM   15  C15 UNL     1      27.022   0.340  54.822  1.00  0.00     0.007 C 
ENDBRANCH   7   9
ENDBRANCH   1   7
BRANCH   5  16
HETATM   16  C11 UNL     1      20.382   0.203  52.514  1.00  0.00     0.011 A 
HETATM   17  C12 UNL     1      19.779  -0.621  53.422  1.00  0.00     0.018 A 
HETATM   18  C13 UNL     1      18.493  -1.109  53.329  1.00  0.00     0.037 A 
HETATM   19  P1  UNL     1      17.598  -0.604  51.909  1.00  0.00     0.086 P 
HETATM   20  N3  UNL     1      18.537   0.421  50.908  1.00  0.00    -0.262 NA
HETATM   21  C14 UNL     1      19.764   0.666  51.351  1.00  0.00     0.130 A 
ENDBRANCH   5  16
TORSDOF 3
ENDMDL
MODEL 4
REMARK VINA RESULT:      -7.4      2.411      4.003
REMARK  3 active torsions:
REMARK  status: ('A' for Active; 'I' for Inactive)
REMARK    1  A    between atoms: C6_6  and  N1_7 
REMARK    2  A    between atoms: N1_7  and  C7_8 
REMARK    3  A    between atoms: C10_12  and  C11_13 
ROOT
HETATM    1  C7  UNL     1      25.563   2.736  51.148  1.00  0.00     0.727 A 
HETATM    2  N2  UNL     1      25.284   3.276  49.926  1.00  0.00    -0.075 NA
HETATM    3  C8  UNL     1      24.057   3.144  49.377  1.00  0.00     0.139 A 
HETATM    4  C9  UNL     1      23.126   2.445  50.116  1.00  0.00     0.053 A 
HETATM    5  C10 UNL     1      23.349   1.879  51.352  1.00  0.00     0.089 A 
HETATM    6  N4  UNL     1      24.600   2.077  51.788  1.00  0.00    -0.062 NA
ENDROOT
BRANCH   1   7
HETATM    7  N1  UNL     1      26.865   2.887  51.706  1.00  0.00    -0.192 N 
HETATM    8  H9  UNL     1      27.400   3.745  51.491  1.00  0.00     0.184 HD
BRANCH   7   9
HETATM    9  C6  UNL     1      27.424   1.894  52.537  1.00  0.00     0.027 C 
HETATM   10  C5  UNL     1      27.023   0.471  52.295  1.00  0.00     0.084 C 
HETATM   11  C4  UNL     1      26.709  -0.099  53.652  1.00  0.00    -0.024 C 
HETATM   12  C3  UNL     1      27.572   0.151  54.634  1.00  0.00    -0.022 C 
HETATM   13  C2  UNL     1      28.795   0.977  54.324  1.00  0.00     0.028 C 
HETATM   14  C1  UNL     1      29.814   0.160  53.601  1.00  0.00     0.018 C 
HETATM   15  C15 UNL     1      28.280   2.133  53.518  1.00  0.00     0.007 C 
ENDBRANCH   7   9
ENDBRANCH   1   7
BRANCH   5  16
HETATM   16  C11 UNL     1      22.327   1.147  52.094  1.00  0.00     0.011 A 
HETATM   17  C12 UNL     1      22.561   0.645  53.343  1.00  0.00     0.018 A 
HETATM   18  C13 UNL     1      21.652  -0.054  54.107  1.00  0.00     0.037 A 
HETATM   19  P1  UNL     1      20.079  -0.297  53.371  1.00  0.00     0.086 P 
HETATM   20  N3  UNL     1      20.002   0.409  51.812  1.00  0.00    -0.262 NA
HETATM   21  C14 UNL     1      21.115   1.013  51.415  1.00  0.00     0.130 A 
ENDBRANCH   5  16
TORSDOF 3
ENDMDL
MODEL 5
REMARK VINA RESULT:      -7.4      2.634      5.683
REMARK  3 active torsions:
REMARK  status: ('A' for Active; 'I' for Inactive)
REMARK    1  A    between atoms: C6_6  and  N1_7 
REMARK    2  A    between atoms: N1_7  and  C7_8 
REMARK    3  A    between atoms: C10_12  and  C11_13 
ROOT
HETATM    1  C7  UNL     1      26.733   1.636  52.538  1.00  0.00     0.727 A 
HETATM    2  N2  UNL     1      27.757   0.889  53.042  1.00  0.00    -0.075 NA
HETATM    3  C8  UNL     1      27.508  -0.243  53.736  1.00  0.00     0.139 A 
HETATM    4  C9  UNL     1      26.183  -0.586  53.896  1.00  0.00     0.053 A 
HETATM    5  C10 UNL     1      25.109   0.126  53.411  1.00  0.00     0.089 A 
HETATM    6  N4  UNL     1      25.483   1.225  52.743  1.00  0.00    -0.062 NA
ENDROOT
BRANCH   1   7
HETATM    7  N1  UNL     1      27.019   2.827  51.810  1.00  0.00    -0.192 N 
HETATM    8  H9  UNL     1      27.903   3.326  52.004  1.00  0.00     0.184 HD
BRANCH   7   9
HETATM    9  C6  UNL     1      26.123   3.325  50.841  1.00  0.00     0.027 C 
HETATM   10  C5  UNL     1      26.633   3.514  49.446  1.00  0.00     0.084 C 
HETATM   11  C4  UNL     1      26.156   4.876  49.020  1.00  0.00    -0.024 C 
HETATM   12  C3  UNL     1      24.885   5.184  49.270  1.00  0.00    -0.022 C 
HETATM   13  C2  UNL     1      24.018   4.158  49.954  1.00  0.00     0.028 C 
HETATM   14  C1  UNL     1      23.598   3.097  48.991  1.00  0.00     0.018 C 
HETATM   15  C15 UNL     1      24.859   3.637  51.081  1.00  0.00     0.007 C 
ENDBRANCH   7   9
ENDBRANCH   1   7
BRANCH   5  16
HETATM   16  C11 UNL     1      23.721  -0.280  53.609  1.00  0.00     0.011 A 
HETATM   17  C12 UNL     1      22.733   0.072  52.734  1.00  0.00     0.018 A 
HETATM   18  C13 UNL     1      21.403  -0.271  52.850  1.00  0.00     0.037 A 
HETATM   19  P1  UNL     1      20.994  -1.239  54.254  1.00  0.00     0.086 P 
HETATM   20  N3  UNL     1      22.376  -1.565  55.213  1.00  0.00    -0.262 NA
HETATM   21  C14 UNL     1      23.510  -1.047  54.756  1.00  0.00     0.130 A 
ENDBRANCH   5  16
TORSDOF 3
ENDMDL
MODEL 6
REMARK VINA RESULT:      -7.3      2.808      6.361
REMARK  3 active torsions:
REMARK  status: ('A' for Active; 'I' for Inactive)
REMARK    1  A    between atoms: C6_6  and  N1_7 
REMARK    2  A    between atoms: N1_7  and  C7_8 
REMARK    3  A    between atoms: C10_12  and  C11_13 
ROOT
HETATM    1  C7  UNL     1      23.884   2.779  50.899  1.00  0.00     0.727 A 
HETATM    2  N2  UNL     1      24.365   3.476  49.828  1.00  0.00    -0.075 NA
HETATM    3  C8  UNL     1      25.690   3.513  49.568  1.00  0.00     0.139 A 
HETATM    4  C9  UNL     1      26.505   2.815  50.433  1.00  0.00     0.053 A 
HETATM    5  C10 UNL     1      26.079   2.096  51.527  1.00  0.00     0.089 A 
HETATM    6  N4  UNL     1      24.749   2.136  51.680  1.00  0.00    -0.062 NA
ENDROOT
BRANCH   1   7
HETATM    7  N1  UNL     1      22.482   2.756  51.155  1.00  0.00    -0.192 N 
HETATM    8  H9  UNL     1      21.919   3.585  50.903  1.00  0.00     0.184 HD
BRANCH   7   9
HETATM    9  C6  UNL     1      21.866   1.630  51.738  1.00  0.00     0.027 C 
HETATM   10  C5  UNL     1      21.338   0.567  50.824  1.00  0.00     0.084 C 
HETATM   11  C4  UNL     1      19.961   0.239  51.336  1.00  0.00    -0.024 C 
HETATM   12  C3  UNL     1      19.823   0.062  52.647  1.00  0.00    -0.022 C 
HETATM   13  C2  UNL     1      21.042   0.200  53.524  1.00  0.00     0.028 C 
HETATM   14  C1  UNL     1      21.902  -1.017  53.425  1.00  0.00     0.018 C 
HETATM   15  C15 UNL     1      21.720   1.447  53.041  1.00  0.00     0.007 C 
ENDBRANCH   7   9
ENDBRANCH   1   7
BRANCH   5  16
HETATM   16  C11 UNL     1      26.985   1.374  52.415  1.00  0.00     0.011 A 
HETATM   17  C12 UNL     1      27.048   0.009  52.430  1.00  0.00     0.018 A 
HETATM   18  C13 UNL     1      27.875  -0.744  53.235  1.00  0.00     0.037 A 
HETATM   19  P1  UNL     1      28.911   0.169  54.315  1.00  0.00     0.086 P 
HETATM   20  N3  UNL     1      28.671   1.856  54.135  1.00  0.00    -0.262 NA
HETATM   21  C14 UNL     1      27.762   2.199  53.230  1.00  0.00     0.130 A 
ENDBRANCH   5  16
TORSDOF 3
ENDMDL
MODEL 7
REMARK VINA RESULT:      -7.2      3.121      4.264
REMARK  3 active torsions:
REMARK  status: ('A' for Active; 'I' for Inactive)
REMARK    1  A    between atoms: C6_6  and  N1_7 
REMARK    2  A    between atoms: N1_7  and  C7_8 
REMARK    3  A    between atoms: C10_12  and  C11_13 
ROOT
HETATM    1  C7  UNL     1      23.157   0.230  53.086  1.00  0.00     0.727 A 
HETATM    2  N2  UNL     1      23.488  -0.516  54.180  1.00  0.00    -0.075 NA
HETATM    3  C8  UNL     1      22.553  -1.245  54.826  1.00  0.00     0.139 A 
HETATM    4  C9  UNL     1      21.272  -1.189  54.319  1.00  0.00     0.053 A 
HETATM    5  C10 UNL     1      20.879  -0.456  53.222  1.00  0.00     0.089 A 
HETATM    6  N4  UNL     1      21.893   0.222  52.669  1.00  0.00    -0.062 NA
ENDROOT
BRANCH   1   7
HETATM    7  N1  UNL     1      24.161   0.992  52.420  1.00  0.00    -0.192 N 
HETATM    8  H9  UNL     1      23.884   1.580  51.617  1.00  0.00     0.184 HD
BRANCH   7   9
HETATM    9  C6  UNL     1      25.506   0.951  52.839  1.00  0.00     0.027 C 
HETATM   10  C5  UNL     1      26.450   0.067  52.084  1.00  0.00     0.084 C 
HETATM   11  C4  UNL     1      27.229  -0.683  53.130  1.00  0.00    -0.024 C 
HETATM   12  C3  UNL     1      27.712   0.019  54.152  1.00  0.00    -0.022 C 
HETATM   13  C2  UNL     1      27.450   1.503  54.192  1.00  0.00     0.028 C 
HETATM   14  C1  UNL     1      28.348   2.223  53.241  1.00  0.00     0.018 C 
HETATM   15  C15 UNL     1      25.995   1.643  53.857  1.00  0.00     0.007 C 
ENDBRANCH   7   9
ENDBRANCH   1   7
BRANCH   5  16
HETATM   16  C11 UNL     1      19.507  -0.430  52.725  1.00  0.00     0.011 A 
HETATM   17  C12 UNL     1      19.152   0.289  51.619  1.00  0.00     0.018 A 
HETATM   18  C13 UNL     1      17.882   0.365  51.088  1.00  0.00     0.037 A 
HETATM   19  P1  UNL     1      16.654  -0.553  51.938  1.00  0.00     0.086 P 
HETATM   20  N3  UNL     1      17.312  -1.376  53.289  1.00  0.00    -0.262 NA
HETATM   21  C14 UNL     1      18.613  -1.195  53.477  1.00  0.00     0.130 A 
ENDBRANCH   5  16
TORSDOF 3
ENDMDL
MODEL 8
REMARK VINA RESULT:      -7.2      3.283      6.253
REMARK  3 active torsions:
REMARK  status: ('A' for Active; 'I' for Inactive)
REMARK    1  A    between atoms: C6_6  and  N1_7 
REMARK    2  A    between atoms: N1_7  and  C7_8 
REMARK    3  A    between atoms: C10_12  and  C11_13 
ROOT
HETATM    1  C7  UNL     1      24.264   3.596  51.655  1.00  0.00     0.727 A 
HETATM    2  N2  UNL     1      23.089   2.924  51.484  1.00  0.00    -0.075 NA
HETATM    3  C8  UNL     1      23.000   1.606  51.768  1.00  0.00     0.139 A 
HETATM    4  C9  UNL     1      24.148   0.999  52.230  1.00  0.00     0.053 A 
HETATM    5  C10 UNL     1      25.360   1.624  52.422  1.00  0.00     0.089 A 
HETATM    6  N4  UNL     1      25.321   2.925  52.107  1.00  0.00    -0.062 NA
ENDROOT
BRANCH   1   7
HETATM    7  N1  UNL     1      24.334   4.986  51.349  1.00  0.00    -0.192 N 
HETATM    8  H9  UNL     1      23.810   5.651  51.942  1.00  0.00     0.184 HD
BRANCH   7   9
HETATM    9  C6  UNL     1      25.099   5.457  50.262  1.00  0.00     0.027 C 
HETATM   10  C5  UNL     1      25.415   4.496  49.158  1.00  0.00     0.084 C 
HETATM   11  C4  UNL     1      26.882   4.674  48.871  1.00  0.00    -0.024 C 
HETATM   12  C3  UNL     1      27.336   5.920  48.765  1.00  0.00    -0.022 C 
HETATM   13  C2  UNL     1      26.361   7.058  48.937  1.00  0.00     0.028 C 
HETATM   14  C1  UNL     1      25.531   7.230  47.708  1.00  0.00     0.018 C 
HETATM   15  C15 UNL     1      25.559   6.694  50.150  1.00  0.00     0.007 C 
ENDBRANCH   7   9
ENDBRANCH   1   7
BRANCH   5  16
HETATM   16  C11 UNL     1      26.549   0.934  52.914  1.00  0.00     0.011 A 
HETATM   17  C12 UNL     1      26.828  -0.359  52.574  1.00  0.00     0.018 A 
HETATM   18  C13 UNL     1      27.926  -1.078  52.995  1.00  0.00     0.037 A 
HETATM   19  P1  UNL     1      29.026  -0.219  54.057  1.00  0.00     0.086 P 
HETATM   20  N3  UNL     1      28.488   1.381  54.353  1.00  0.00    -0.262 NA
HETATM   21  C14 UNL     1      27.353   1.711  53.750  1.00  0.00     0.130 A 
ENDBRANCH   5  16
TORSDOF 3
ENDMDL
MODEL 9
REMARK VINA RESULT:      -7.1      2.603      6.417
REMARK  3 active torsions:
REMARK  status: ('A' for Active; 'I' for Inactive)
REMARK    1  A    between atoms: C6_6  and  N1_7 
REMARK    2  A    between atoms: N1_7  and  C7_8 
REMARK    3  A    between atoms: C10_12  and  C11_13 
ROOT
HETATM    1  C7  UNL     1      23.282   1.556  52.657  1.00  0.00     0.727 A 
HETATM    2  N2  UNL     1      22.408   0.666  53.210  1.00  0.00    -0.075 NA
HETATM    3  C8  UNL     1      22.857  -0.423  53.872  1.00  0.00     0.139 A 
HETATM    4  C9  UNL     1      24.225  -0.572  53.950  1.00  0.00     0.053 A 
HETATM    5  C10 UNL     1      25.155   0.291  53.413  1.00  0.00     0.089 A 
HETATM    6  N4  UNL     1      24.588   1.328  52.784  1.00  0.00    -0.062 NA
ENDROOT
BRANCH   1   7
HETATM    7  N1  UNL     1      22.785   2.697  51.963  1.00  0.00    -0.192 N 
HETATM    8  H9  UNL     1      22.665   3.581  52.486  1.00  0.00     0.184 HD
BRANCH   7   9
HETATM    9  C6  UNL     1      22.460   2.634  50.593  1.00  0.00     0.027 C 
HETATM   10  C5  UNL     1      21.023   2.430  50.221  1.00  0.00     0.084 C 
HETATM   11  C4  UNL     1      21.025   1.361  49.163  1.00  0.00    -0.024 C 
HETATM   12  C3  UNL     1      21.916   1.475  48.180  1.00  0.00    -0.022 C 
HETATM   13  C2  UNL     1      22.852   2.657  48.193  1.00  0.00     0.028 C 
HETATM   14  C1  UNL     1      22.148   3.892  47.734  1.00  0.00     0.018 C 
HETATM   15  C15 UNL     1      23.339   2.743  49.609  1.00  0.00     0.007 C 
ENDBRANCH   7   9
ENDBRANCH   1   7
BRANCH   5  16
HETATM   16  C11 UNL     1      26.596   0.087  53.524  1.00  0.00     0.011 A 
HETATM   17  C12 UNL     1      27.442   1.091  53.901  1.00  0.00     0.018 A 
HETATM   18  C13 UNL     1      28.809   0.979  54.029  1.00  0.00     0.037 A 
HETATM   19  P1  UNL     1      29.473  -0.602  53.664  1.00  0.00     0.086 P 
HETATM   20  N3  UNL     1      28.244  -1.708  53.214  1.00  0.00    -0.262 NA
HETATM   21  C14 UNL     1      27.014  -1.208  53.210  1.00  0.00     0.130 A 
ENDBRANCH   5  16
TORSDOF 3
ENDMDL
