MODEL 1
REMARK VINA RESULT:      -7.5      0.000      0.000
REMARK  5 active torsions:
REMARK  status: ('A' for Active; 'I' for Inactive)
REMARK    1  A    between atoms: N1_8  and  N2_9 
REMARK    2  A    between atoms: N2_9  and  C7_10 
REMARK    3  A    between atoms: N3_11  and  C8_12 
REMARK    4  A    between atoms: C8_12  and  C9_13 
REMARK    5  A    between atoms: C9_13  and  C10_14 
ROOT
HETATM    1  N2  UNL     1      26.727   2.220  51.773  1.00  0.00    -0.296 N 
HETATM    2  H9  UNL     1      27.198   2.428  50.842  1.00  0.00     0.187 HD
ENDROOT
BRANCH   1   3
HETATM    3  N1  UNL     1      27.650   1.553  52.522  1.00  0.00    -0.316 N 
HETATM    4  C6  UNL     1      27.263   0.296  53.059  1.00  0.00     0.137 C 
HETATM    5  C3  UNL     1      28.563  -0.480  53.205  1.00  0.00     0.168 C 
HETATM    6  C5  UNL     1      26.542  -0.613  52.105  1.00  0.00     0.056 C 
HETATM    7  C2  UNL     1      29.223   0.126  54.383  1.00  0.00     0.004 C 
HETATM    8  O1  UNL     1      28.118  -1.753  53.393  1.00  0.00    -0.380 OA
HETATM    9  C1  UNL     1      29.092   1.444  54.432  1.00  0.00    -0.007 C 
HETATM   10  C16 UNL     1      28.386   2.298  53.470  1.00  0.00     0.170 C 
HETATM   11  C4  UNL     1      26.974  -1.963  52.647  1.00  0.00     0.170 C 
ENDBRANCH   1   3
BRANCH   1  12
HETATM   12  C7  UNL     1      25.388   2.605  52.087  1.00  0.00     0.216 C 
HETATM   13  N3  UNL     1      24.547   2.200  51.224  1.00  0.00    -0.283 NA
BRANCH  13  14
HETATM   14  C8  UNL     1      23.122   2.448  51.293  1.00  0.00     0.154 C 
BRANCH  14  15
HETATM   15  C9  UNL     1      22.316   1.177  51.153  1.00  0.00     0.060 C 
BRANCH  15  16
HETATM   16  C10 UNL     1      22.069   0.539  52.469  1.00  0.00    -0.057 A 
HETATM   17  C11 UNL     1      22.909  -0.441  52.954  1.00  0.00     0.007 A 
HETATM   18  C12 UNL     1      22.676  -1.043  54.195  1.00  0.00     0.001 A 
HETATM   19  C13 UNL     1      21.561  -0.583  54.873  1.00  0.00     0.000 A 
HETATM   20  C14 UNL     1      20.708   0.391  54.412  1.00  0.00     0.001 A 
HETATM   21  C15 UNL     1      20.972   0.968  53.172  1.00  0.00     0.007 A 
ENDBRANCH  15  16
ENDBRANCH  14  15
ENDBRANCH  13  14
ENDBRANCH   1  12
TORSDOF 5
ENDMDL
MODEL 2
REMARK VINA RESULT:      -7.3      3.697      6.158
REMARK  5 active torsions:
REMARK  status: ('A' for Active; 'I' for Inactive)
REMARK    1  A    between atoms: N1_8  and  N2_9 
REMARK    2  A    between atoms: N2_9  and  C7_10 
REMARK    3  A    between atoms: N3_11  and  C8_12 
REMARK    4  A    between atoms: C8_12  and  C9_13 
REMARK    5  A    between atoms: C9_13  and  C10_14 
ROOT
HETATM    1  N2  UNL     1      26.418   2.402  52.845  1.00  0.00    -0.296 N 
HETATM    2  H9  UNL     1      25.956   2.603  53.783  1.00  0.00     0.187 HD
ENDROOT
BRANCH   1   3
HETATM    3  N1  UNL     1      27.484   1.595  53.114  1.00  0.00    -0.316 N 
HETATM    4  C6  UNL     1      27.203   0.253  53.484  1.00  0.00     0.137 C 
HETATM    5  C3  UNL     1      28.432  -0.533  53.052  1.00  0.00     0.168 C 
HETATM    6  C5  UNL     1      26.165  -0.438  52.646  1.00  0.00     0.056 C 
HETATM    7  C2  UNL     1      29.463  -0.185  54.055  1.00  0.00     0.004 C 
HETATM    8  O1  UNL     1      27.987  -1.818  53.113  1.00  0.00    -0.380 OA
HETATM    9  C1  UNL     1      29.437   1.092  54.406  1.00  0.00    -0.007 C 
HETATM   10  C16 UNL     1      28.523   2.128  53.908  1.00  0.00     0.170 C 
HETATM   11  C4  UNL     1      26.657  -1.870  52.742  1.00  0.00     0.170 C 
ENDBRANCH   1   3
BRANCH   1  12
HETATM   12  C7  UNL     1      25.944   2.921  51.602  1.00  0.00     0.216 C 
HETATM   13  N3  UNL     1      26.833   2.908  50.695  1.00  0.00    -0.283 NA
BRANCH  13  14
HETATM   14  C8  UNL     1      26.625   3.374  49.340  1.00  0.00     0.154 C 
BRANCH  14  15
HETATM   15  C9  UNL     1      26.135   4.803  49.298  1.00  0.00     0.060 C 
BRANCH  15  16
HETATM   16  C10 UNL     1      27.106   5.694  48.617  1.00  0.00    -0.057 A 
HETATM   17  C11 UNL     1      28.423   5.320  48.454  1.00  0.00     0.007 A 
HETATM   18  C12 UNL     1      29.338   6.161  47.812  1.00  0.00     0.001 A 
HETATM   19  C13 UNL     1      28.822   7.364  47.367  1.00  0.00     0.000 A 
HETATM   20  C14 UNL     1      27.515   7.761  47.517  1.00  0.00     0.001 A 
HETATM   21  C15 UNL     1      26.631   6.899  48.162  1.00  0.00     0.007 A 
ENDBRANCH  15  16
ENDBRANCH  14  15
ENDBRANCH  13  14
ENDBRANCH   1  12
TORSDOF 5
ENDMDL
MODEL 3
REMARK VINA RESULT:      -7.2      3.999      6.702
REMARK  5 active torsions:
REMARK  status: ('A' for Active; 'I' for Inactive)
REMARK    1  A    between atoms: N1_8  and  N2_9 
REMARK    2  A    between atoms: N2_9  and  C7_10 
REMARK    3  A    between atoms: N3_11  and  C8_12 
REMARK    4  A    between atoms: C8_12  and  C9_13 
REMARK    5  A    between atoms: C9_13  and  C10_14 
ROOT
HETATM    1  N2  UNL     1      25.412   2.894  52.757  1.00  0.00    -0.296 N 
HETATM    2  H9  UNL     1      25.646   3.640  53.480  1.00  0.00     0.187 HD
ENDROOT
BRANCH   1   3
HETATM    3  N1  UNL     1      25.298   1.723  53.446  1.00  0.00    -0.316 N 
HETATM    4  C6  UNL     1      26.449   0.895  53.512  1.00  0.00     0.137 C 
HETATM    5  C3  UNL     1      26.290   0.111  54.806  1.00  0.00     0.168 C 
HETATM    6  C5  UNL     1      27.735   1.609  53.815  1.00  0.00     0.056 C 
HETATM    7  C2  UNL     1      25.249  -0.895  54.501  1.00  0.00     0.004 C 
HETATM    8  O1  UNL     1      27.539  -0.398  54.989  1.00  0.00    -0.380 OA
HETATM    9  C1  UNL     1      24.266  -0.416  53.753  1.00  0.00    -0.007 C 
HETATM   10  C16 UNL     1      24.135   0.951  53.234  1.00  0.00     0.170 C 
HETATM   11  C4  UNL     1      28.483   0.509  54.547  1.00  0.00     0.170 C 
ENDBRANCH   1   3
BRANCH   1  12
HETATM   12  C7  UNL     1      25.266   3.162  51.362  1.00  0.00     0.216 C 
HETATM   13  N3  UNL     1      26.380   3.344  50.779  1.00  0.00    -0.283 NA
BRANCH  13  14
HETATM   14  C8  UNL     1      26.526   3.633  49.368  1.00  0.00     0.154 C 
BRANCH  14  15
HETATM   15  C9  UNL     1      26.198   5.072  49.043  1.00  0.00     0.060 C 
BRANCH  15  16
HETATM   16  C10 UNL     1      27.365   5.781  48.462  1.00  0.00    -0.057 A 
HETATM   17  C11 UNL     1      28.613   5.194  48.436  1.00  0.00     0.007 A 
HETATM   18  C12 UNL     1      29.712   5.863  47.888  1.00  0.00     0.001 A 
HETATM   19  C13 UNL     1      29.447   7.126  47.389  1.00  0.00     0.000 A 
HETATM   20  C14 UNL     1      28.214   7.732  47.404  1.00  0.00     0.001 A 
HETATM   21  C15 UNL     1      27.141   7.037  47.958  1.00  0.00     0.007 A 
ENDBRANCH  15  16
ENDBRANCH  14  15
ENDBRANCH  13  14
ENDBRANCH   1  12
TORSDOF 5
ENDMDL
MODEL 4
REMARK VINA RESULT:      -7.1      3.020      5.662
REMARK  5 active torsions:
REMARK  status: ('A' for Active; 'I' for Inactive)
REMARK    1  A    between atoms: N1_8  and  N2_9 
REMARK    2  A    between atoms: N2_9  and  C7_10 
REMARK    3  A    between atoms: N3_11  and  C8_12 
REMARK    4  A    between atoms: C8_12  and  C9_13 
REMARK    5  A    between atoms: C9_13  and  C10_14 
ROOT
HETATM    1  N2  UNL     1      25.101   1.173  53.294  1.00  0.00    -0.296 N 
HETATM    2  H9  UNL     1      24.752   1.365  54.282  1.00  0.00     0.187 HD
ENDROOT
BRANCH   1   3
HETATM    3  N1  UNL     1      26.145   0.307  53.425  1.00  0.00    -0.316 N 
HETATM    4  C6  UNL     1      27.447   0.820  53.185  1.00  0.00     0.137 C 
HETATM    5  C3  UNL     1      28.370  -0.051  54.025  1.00  0.00     0.168 C 
HETATM    6  C5  UNL     1      27.735   2.155  53.812  1.00  0.00     0.056 C 
HETATM    7  C2  UNL     1      28.442  -1.330  53.285  1.00  0.00     0.004 C 
HETATM    8  O1  UNL     1      29.523   0.672  54.029  1.00  0.00    -0.380 OA
HETATM    9  C1  UNL     1      27.279  -1.698  52.767  1.00  0.00    -0.007 C 
HETATM   10  C16 UNL     1      26.002  -0.981  52.862  1.00  0.00     0.170 C 
HETATM   11  C4  UNL     1      29.228   2.022  54.046  1.00  0.00     0.170 C 
ENDBRANCH   1   3
BRANCH   1  12
HETATM   12  C7  UNL     1      24.524   1.753  52.124  1.00  0.00     0.216 C 
HETATM   13  N3  UNL     1      24.826   2.979  51.986  1.00  0.00    -0.283 NA
BRANCH  13  14
HETATM   14  C8  UNL     1      24.379   3.812  50.890  1.00  0.00     0.154 C 
BRANCH  14  15
HETATM   15  C9  UNL     1      25.084   3.478  49.595  1.00  0.00     0.060 C 
BRANCH  15  16
HETATM   16  C10 UNL     1      25.917   4.609  49.118  1.00  0.00    -0.057 A 
HETATM   17  C11 UNL     1      25.362   5.847  48.871  1.00  0.00     0.007 A 
HETATM   18  C12 UNL     1      26.148   6.913  48.421  1.00  0.00     0.001 A 
HETATM   19  C13 UNL     1      27.490   6.626  48.251  1.00  0.00     0.000 A 
HETATM   20  C14 UNL     1      28.067   5.402  48.489  1.00  0.00     0.001 A 
HETATM   21  C15 UNL     1      27.254   4.363  48.936  1.00  0.00     0.007 A 
ENDBRANCH  15  16
ENDBRANCH  14  15
ENDBRANCH  13  14
ENDBRANCH   1  12
TORSDOF 5
ENDMDL
MODEL 5
REMARK VINA RESULT:      -6.9      2.246      3.343
REMARK  5 active torsions:
REMARK  status: ('A' for Active; 'I' for Inactive)
REMARK    1  A    between atoms: N1_8  and  N2_9 
REMARK    2  A    between atoms: N2_9  and  C7_10 
REMARK    3  A    between atoms: N3_11  and  C8_12 
REMARK    4  A    between atoms: C8_12  and  C9_13 
REMARK    5  A    between atoms: C9_13  and  C10_14 
ROOT
HETATM    1  N2  UNL     1      25.727  -0.513  52.707  1.00  0.00    -0.296 N 
HETATM    2  H9  UNL     1      25.735  -0.859  51.700  1.00  0.00     0.187 HD
ENDROOT
BRANCH   1   3
HETATM    3  N1  UNL     1      26.983  -0.729  53.190  1.00  0.00    -0.316 N 
HETATM    4  C6  UNL     1      27.931   0.315  53.023  1.00  0.00     0.137 C 
HETATM    5  C3  UNL     1      28.913   0.136  54.171  1.00  0.00     0.168 C 
HETATM    6  C5  UNL     1      27.428   1.694  53.345  1.00  0.00     0.056 C 
HETATM    7  C2  UNL     1      29.728  -1.035  53.778  1.00  0.00     0.004 C 
HETATM    8  O1  UNL     1      29.580   1.323  54.167  1.00  0.00    -0.380 OA
HETATM    9  C1  UNL     1      29.017  -1.993  53.203  1.00  0.00    -0.007 C 
HETATM   10  C16 UNL     1      27.573  -1.987  52.938  1.00  0.00     0.170 C 
HETATM   11  C4  UNL     1      28.716   2.343  53.816  1.00  0.00     0.170 C 
ENDBRANCH   1   3
BRANCH   1  12
HETATM   12  C7  UNL     1      24.579   0.053  53.340  1.00  0.00     0.216 C 
HETATM   13  N3  UNL     1      23.537  -0.660  53.192  1.00  0.00    -0.283 NA
BRANCH  13  14
HETATM   14  C8  UNL     1      22.235  -0.325  53.729  1.00  0.00     0.154 C 
BRANCH  14  15
HETATM   15  C9  UNL     1      21.466   0.606  52.821  1.00  0.00     0.060 C 
BRANCH  15  16
HETATM   16  C10 UNL     1      20.097   0.100  52.552  1.00  0.00    -0.057 A 
HETATM   17  C11 UNL     1      19.413   0.469  51.413  1.00  0.00     0.007 A 
HETATM   18  C12 UNL     1      18.122  -0.008  51.161  1.00  0.00     0.001 A 
HETATM   19  C13 UNL     1      17.608  -0.857  52.125  1.00  0.00     0.000 A 
HETATM   20  C14 UNL     1      18.268  -1.239  53.268  1.00  0.00     0.001 A 
HETATM   21  C15 UNL     1      19.552  -0.744  53.487  1.00  0.00     0.007 A 
ENDBRANCH  15  16
ENDBRANCH  14  15
ENDBRANCH  13  14
ENDBRANCH   1  12
TORSDOF 5
ENDMDL
MODEL 6
REMARK VINA RESULT:      -6.7      3.824      6.760
REMARK  5 active torsions:
REMARK  status: ('A' for Active; 'I' for Inactive)
REMARK    1  A    between atoms: N1_8  and  N2_9 
REMARK    2  A    between atoms: N2_9  and  C7_10 
REMARK    3  A    between atoms: N3_11  and  C8_12 
REMARK    4  A    between atoms: C8_12  and  C9_13 
REMARK    5  A    between atoms: C9_13  and  C10_14 
ROOT
HETATM    1  N2  UNL     1      24.659   3.997  51.210  1.00  0.00    -0.296 N 
HETATM    2  H9  UNL     1      23.887   4.697  51.428  1.00  0.00     0.187 HD
ENDROOT
BRANCH   1   3
HETATM    3  N1  UNL     1      25.577   4.669  50.459  1.00  0.00    -0.316 N 
HETATM    4  C6  UNL     1      25.097   5.729  49.644  1.00  0.00     0.137 C 
HETATM    5  C3  UNL     1      26.279   6.677  49.504  1.00  0.00     0.168 C 
HETATM    6  C5  UNL     1      24.120   6.655  50.309  1.00  0.00     0.056 C 
HETATM    7  C2  UNL     1      27.187   5.994  48.555  1.00  0.00     0.004 C 
HETATM    8  O1  UNL     1      25.689   7.803  49.018  1.00  0.00    -0.380 OA
HETATM    9  C1  UNL     1      27.255   4.685  48.750  1.00  0.00    -0.007 C 
HETATM   10  C16 UNL     1      26.545   3.905  49.770  1.00  0.00     0.170 C 
HETATM   11  C4  UNL     1      24.428   7.943  49.568  1.00  0.00     0.170 C 
ENDBRANCH   1   3
BRANCH   1  12
HETATM   12  C7  UNL     1      24.649   2.641  51.659  1.00  0.00     0.216 C 
HETATM   13  N3  UNL     1      25.318   2.475  52.726  1.00  0.00    -0.283 NA
BRANCH  13  14
HETATM   14  C8  UNL     1      25.476   1.203  53.401  1.00  0.00     0.154 C 
BRANCH  14  15
HETATM   15  C9  UNL     1      26.043   0.140  52.489  1.00  0.00     0.060 C 
BRANCH  15  16
HETATM   16  C10 UNL     1      27.410  -0.262  52.902  1.00  0.00    -0.057 A 
HETATM   17  C11 UNL     1      28.327   0.673  53.336  1.00  0.00     0.007 A 
HETATM   18  C12 UNL     1      29.615   0.293  53.725  1.00  0.00     0.001 A 
HETATM   19  C13 UNL     1      29.882  -1.061  53.640  1.00  0.00     0.000 A 
HETATM   20  C14 UNL     1      28.988  -2.013  53.211  1.00  0.00     0.001 A 
HETATM   21  C15 UNL     1      27.714  -1.598  52.831  1.00  0.00     0.007 A 
ENDBRANCH  15  16
ENDBRANCH  14  15
ENDBRANCH  13  14
ENDBRANCH   1  12
TORSDOF 5
ENDMDL
MODEL 7
REMARK VINA RESULT:      -6.7      3.288      6.252
REMARK  5 active torsions:
REMARK  status: ('A' for Active; 'I' for Inactive)
REMARK    1  A    between atoms: N1_8  and  N2_9 
REMARK    2  A    between atoms: N2_9  and  C7_10 
REMARK    3  A    between atoms: N3_11  and  C8_12 
REMARK    4  A    between atoms: C8_12  and  C9_13 
REMARK    5  A    between atoms: C9_13  and  C10_14 
ROOT
HETATM    1  N2  UNL     1      23.196   1.461  52.012  1.00  0.00    -0.296 N 
HETATM    2  H9  UNL     1      23.204   0.781  51.193  1.00  0.00     0.187 HD
ENDROOT
BRANCH   1   3
HETATM    3  N1  UNL     1      23.265   0.697  53.139  1.00  0.00    -0.316 N 
HETATM    4  C6  UNL     1      24.246  -0.329  53.168  1.00  0.00     0.137 C 
HETATM    5  C3  UNL     1      24.569  -0.517  54.643  1.00  0.00     0.168 C 
HETATM    6  C5  UNL     1      25.606   0.072  52.670  1.00  0.00     0.056 C 
HETATM    7  C2  UNL     1      23.400  -1.245  55.185  1.00  0.00     0.004 C 
HETATM    8  O1  UNL     1      25.720  -1.241  54.596  1.00  0.00    -0.380 OA
HETATM    9  C1  UNL     1      22.247  -0.823  54.685  1.00  0.00    -0.007 C 
HETATM   10  C16 UNL     1      22.049   0.243  53.696  1.00  0.00     0.170 C 
HETATM   11  C4  UNL     1      26.477  -0.846  53.509  1.00  0.00     0.170 C 
ENDBRANCH   1   3
BRANCH   1  12
HETATM   12  C7  UNL     1      23.126   2.880  51.862  1.00  0.00     0.216 C 
HETATM   13  N3  UNL     1      24.056   3.341  51.130  1.00  0.00    -0.283 NA
BRANCH  13  14
HETATM   14  C8  UNL     1      24.225   4.743  50.810  1.00  0.00     0.154 C 
BRANCH  14  15
HETATM   15  C9  UNL     1      24.307   4.981  49.320  1.00  0.00     0.060 C 
BRANCH  15  16
HETATM   16  C10 UNL     1      25.663   5.424  48.911  1.00  0.00    -0.057 A 
HETATM   17  C11 UNL     1      26.748   4.579  49.012  1.00  0.00     0.007 A 
HETATM   18  C12 UNL     1      28.026   4.998  48.627  1.00  0.00     0.001 A 
HETATM   19  C13 UNL     1      28.104   6.294  48.151  1.00  0.00     0.000 A 
HETATM   20  C14 UNL     1      27.040   7.156  48.041  1.00  0.00     0.001 A 
HETATM   21  C15 UNL     1      25.781   6.705  48.435  1.00  0.00     0.007 A 
ENDBRANCH  15  16
ENDBRANCH  14  15
ENDBRANCH  13  14
ENDBRANCH   1  12
TORSDOF 5
ENDMDL
MODEL 8
REMARK VINA RESULT:      -6.6      2.309      5.964
REMARK  5 active torsions:
REMARK  status: ('A' for Active; 'I' for Inactive)
REMARK    1  A    between atoms: N1_8  and  N2_9 
REMARK    2  A    between atoms: N2_9  and  C7_10 
REMARK    3  A    between atoms: N3_11  and  C8_12 
REMARK    4  A    between atoms: C8_12  and  C9_13 
REMARK    5  A    between atoms: C9_13  and  C10_14 
ROOT
HETATM    1  N2  UNL     1      22.121   0.937  50.656  1.00  0.00    -0.296 N 
HETATM    2  H9  UNL     1      22.196   0.085  50.023  1.00  0.00     0.187 HD
ENDROOT
BRANCH   1   3
HETATM    3  N1  UNL     1      21.208   0.616  51.616  1.00  0.00    -0.316 N 
HETATM    4  C6  UNL     1      21.568  -0.402  52.539  1.00  0.00     0.137 C 
HETATM    5  C3  UNL     1      20.778  -0.081  53.798  1.00  0.00     0.168 C 
HETATM    6  C5  UNL     1      22.961  -0.299  53.092  1.00  0.00     0.056 C 
HETATM    7  C2  UNL     1      19.392  -0.486  53.476  1.00  0.00     0.004 C 
HETATM    8  O1  UNL     1      21.397  -0.855  54.731  1.00  0.00    -0.380 OA
HETATM    9  C1  UNL     1      19.038  -0.186  52.234  1.00  0.00    -0.007 C 
HETATM   10  C16 UNL     1      19.861   0.475  51.215  1.00  0.00     0.170 C 
HETATM   11  C4  UNL     1      22.750  -0.923  54.460  1.00  0.00     0.170 C 
ENDBRANCH   1   3
BRANCH   1  12
HETATM   12  C7  UNL     1      22.870   2.137  50.460  1.00  0.00     0.216 C 
HETATM   13  N3  UNL     1      23.999   2.110  51.043  1.00  0.00    -0.283 NA
BRANCH  13  14
HETATM   14  C8  UNL     1      24.961   3.192  51.011  1.00  0.00     0.154 C 
BRANCH  14  15
HETATM   15  C9  UNL     1      26.382   2.695  51.154  1.00  0.00     0.060 C 
BRANCH  15  16
HETATM   16  C10 UNL     1      26.481   1.604  52.155  1.00  0.00    -0.057 A 
HETATM   17  C11 UNL     1      26.699   0.299  51.765  1.00  0.00     0.007 A 
HETATM   18  C12 UNL     1      26.791  -0.729  52.709  1.00  0.00     0.001 A 
HETATM   19  C13 UNL     1      26.650  -0.335  54.027  1.00  0.00     0.000 A 
HETATM   20  C14 UNL     1      26.432   0.957  54.441  1.00  0.00     0.001 A 
HETATM   21  C15 UNL     1      26.345   1.956  53.474  1.00  0.00     0.007 A 
ENDBRANCH  15  16
ENDBRANCH  14  15
ENDBRANCH  13  14
ENDBRANCH   1  12
TORSDOF 5
ENDMDL
MODEL 9
REMARK VINA RESULT:      -6.4      4.074      7.164
REMARK  5 active torsions:
REMARK  status: ('A' for Active; 'I' for Inactive)
REMARK    1  A    between atoms: N1_8  and  N2_9 
REMARK    2  A    between atoms: N2_9  and  C7_10 
REMARK    3  A    between atoms: N3_11  and  C8_12 
REMARK    4  A    between atoms: C8_12  and  C9_13 
REMARK    5  A    between atoms: C9_13  and  C10_14 
ROOT
HETATM    1  N2  UNL     1      23.524   2.081  51.399  1.00  0.00    -0.296 N 
HETATM    2  H9  UNL     1      22.573   1.915  50.949  1.00  0.00     0.187 HD
ENDROOT
BRANCH   1   3
HETATM    3  N1  UNL     1      23.725   1.039  52.254  1.00  0.00    -0.316 N 
HETATM    4  C6  UNL     1      22.816   0.903  53.336  1.00  0.00     0.137 C 
HETATM    5  C3  UNL     1      22.818  -0.584  53.661  1.00  0.00     0.168 C 
HETATM    6  C5  UNL     1      21.367   1.072  52.979  1.00  0.00     0.056 C 
HETATM    7  C2  UNL     1      24.104  -0.806  54.358  1.00  0.00     0.004 C 
HETATM    8  O1  UNL     1      21.713  -0.708  54.447  1.00  0.00    -0.380 OA
HETATM    9  C1  UNL     1      25.108  -0.121  53.829  1.00  0.00    -0.007 C 
HETATM   10  C16 UNL     1      25.049   0.786  52.676  1.00  0.00     0.170 C 
HETATM   11  C4  UNL     1      20.730   0.161  54.012  1.00  0.00     0.170 C 
ENDBRANCH   1   3
BRANCH   1  12
HETATM   12  C7  UNL     1      24.355   3.204  51.100  1.00  0.00     0.216 C 
HETATM   13  N3  UNL     1      24.330   3.518  49.870  1.00  0.00    -0.283 NA
BRANCH  13  14
HETATM   14  C8  UNL     1      25.077   4.615  49.291  1.00  0.00     0.154 C 
BRANCH  14  15
HETATM   15  C9  UNL     1      26.562   4.338  49.257  1.00  0.00     0.060 C 
BRANCH  15  16
HETATM   16  C10 UNL     1      27.309   5.442  48.605  1.00  0.00    -0.057 A 
HETATM   17  C11 UNL     1      26.677   6.613  48.245  1.00  0.00     0.007 A 
HETATM   18  C12 UNL     1      27.382   7.653  47.630  1.00  0.00     0.001 A 
HETATM   19  C13 UNL     1      28.728   7.412  47.422  1.00  0.00     0.000 A 
HETATM   20  C14 UNL     1      29.381   6.254  47.771  1.00  0.00     0.001 A 
HETATM   21  C15 UNL     1      28.648   5.239  48.381  1.00  0.00     0.007 A 
ENDBRANCH  15  16
ENDBRANCH  14  15
ENDBRANCH  13  14
ENDBRANCH   1  12
TORSDOF 5
ENDMDL
