MODEL 1
REMARK VINA RESULT:      -7.1      0.000      0.000
REMARK  6 active torsions:
REMARK  status: ('A' for Active; 'I' for Inactive)
REMARK    1  A    between atoms: O1_2  and  C2_3 
REMARK    2  A    between atoms: C8_9  and  C9_10 
REMARK    3  A    between atoms: C9_10  and  N1_11 
REMARK    4  A    between atoms: N1_11  and  C10_12 
REMARK    5  A    between atoms: C10_12  and  C11_13 
REMARK    6  A    between atoms: C11_13  and  S1_14 
ROOT
HETATM    1  C2  UNL     1      25.230   2.181  51.237  1.00  0.00     0.069 A 
HETATM    2  C3  UNL     1      24.140   2.826  50.715  1.00  0.00     0.037 A 
HETATM    3  C4  UNL     1      22.921   2.460  51.247  1.00  0.00     0.017 A 
HETATM    4  C5  UNL     1      22.866   1.508  52.235  1.00  0.00    -0.001 A 
HETATM    5  C6  UNL     1      23.942   0.853  52.771  1.00  0.00    -0.010 A 
HETATM    6  C7  UNL     1      25.132   1.240  52.219  1.00  0.00     0.050 A 
HETATM    7  C8  UNL     1      23.864  -0.140  53.824  1.00  0.00    -0.013 C 
HETATM    8  C12 UNL     1      22.918  -0.888  54.328  1.00  0.00     0.013 C 
HETATM    9  C13 UNL     1      21.547  -1.327  54.363  1.00  0.00    -0.001 C 
HETATM   10  C14 UNL     1      20.427  -1.056  53.720  1.00  0.00     0.001 C 
HETATM   11  C15 UNL     1      20.180  -0.093  52.616  1.00  0.00     0.136 C 
HETATM   12  C16 UNL     1      20.185   1.297  53.222  1.00  0.00     0.091 C 
HETATM   13  C17 UNL     1      21.502   1.261  52.636  1.00  0.00     0.043 C 
HETATM   14  N2  UNL     1      21.385   0.187  51.903  1.00  0.00    -0.284 NA
ENDROOT
BRANCH   7  15
HETATM   15  C9  UNL     1      25.165  -0.330  54.508  1.00  0.00     0.227 C 
BRANCH  15  16
HETATM   16  N1  UNL     1      26.150  -0.452  55.325  1.00  0.00    -0.292 NA
BRANCH  16  17
HETATM   17  C10 UNL     1      27.427  -0.009  54.819  1.00  0.00     0.060 C 
BRANCH  17  18
HETATM   18  C11 UNL     1      28.655   0.183  54.365  1.00  0.00     0.052 C 
BRANCH  18  19
HETATM   19  S1  UNL     1      30.019  -0.610  53.528  1.00  0.00    -0.154 SA
HETATM   20  H10 UNL     1      30.841   0.356  52.914  1.00  0.00     0.106 HD
ENDBRANCH  18  19
ENDBRANCH  17  18
ENDBRANCH  16  17
ENDBRANCH  15  16
ENDBRANCH   7  15
BRANCH   1  21
HETATM   21  O1  UNL     1      26.476   2.502  50.746  1.00  0.00    -0.356 OA
HETATM   22  C1  UNL     1      26.646   3.463  49.733  1.00  0.00     0.210 C 
ENDBRANCH   1  21
TORSDOF 6
ENDMDL
MODEL 2
REMARK VINA RESULT:      -7.0      3.121      6.048
REMARK  6 active torsions:
REMARK  status: ('A' for Active; 'I' for Inactive)
REMARK    1  A    between atoms: O1_2  and  C2_3 
REMARK    2  A    between atoms: C8_9  and  C9_10 
REMARK    3  A    between atoms: C9_10  and  N1_11 
REMARK    4  A    between atoms: N1_11  and  C10_12 
REMARK    5  A    between atoms: C10_12  and  C11_13 
REMARK    6  A    between atoms: C11_13  and  S1_14 
ROOT
HETATM    1  C2  UNL     1      20.966  -0.454  53.596  1.00  0.00     0.069 A 
HETATM    2  C3  UNL     1      21.561  -1.215  54.568  1.00  0.00     0.037 A 
HETATM    3  C4  UNL     1      22.928  -1.067  54.686  1.00  0.00     0.017 A 
HETATM    4  C5  UNL     1      23.594  -0.198  53.857  1.00  0.00    -0.001 A 
HETATM    5  C6  UNL     1      23.019   0.572  52.882  1.00  0.00    -0.010 A 
HETATM    6  C7  UNL     1      21.665   0.398  52.793  1.00  0.00     0.050 A 
HETATM    7  C8  UNL     1      23.739   1.494  52.025  1.00  0.00    -0.013 C 
HETATM    8  C12 UNL     1      24.990   1.665  51.688  1.00  0.00     0.013 C 
HETATM    9  C13 UNL     1      26.377   1.289  51.772  1.00  0.00    -0.001 C 
HETATM   10  C14 UNL     1      27.097   0.380  52.402  1.00  0.00     0.001 C 
HETATM   11  C15 UNL     1      26.663  -0.684  53.344  1.00  0.00     0.136 C 
HETATM   12  C16 UNL     1      26.336  -0.010  54.663  1.00  0.00     0.091 C 
HETATM   13  C17 UNL     1      25.010  -0.208  54.132  1.00  0.00     0.043 C 
HETATM   14  N2  UNL     1      25.288  -1.014  53.143  1.00  0.00    -0.284 NA
ENDROOT
BRANCH   7  15
HETATM   15  C9  UNL     1      22.841   2.498  51.409  1.00  0.00     0.227 C 
BRANCH  15  16
HETATM   16  N1  UNL     1      22.217   3.547  51.002  1.00  0.00    -0.292 NA
BRANCH  16  17
HETATM   17  C10 UNL     1      22.935   4.789  51.160  1.00  0.00     0.060 C 
BRANCH  17  18
HETATM   18  C11 UNL     1      23.772   5.799  51.334  1.00  0.00     0.052 C 
BRANCH  18  19
HETATM   19  S1  UNL     1      24.942   6.856  50.494  1.00  0.00    -0.154 SA
HETATM   20  H10 UNL     1      26.186   6.824  51.155  1.00  0.00     0.106 HD
ENDBRANCH  18  19
ENDBRANCH  17  18
ENDBRANCH  16  17
ENDBRANCH  15  16
ENDBRANCH   7  15
BRANCH   1  21
HETATM   21  O1  UNL     1      19.603  -0.557  53.428  1.00  0.00    -0.356 OA
HETATM   22  C1  UNL     1      18.969  -0.125  52.249  1.00  0.00     0.210 C 
ENDBRANCH   1  21
TORSDOF 6
ENDMDL
MODEL 3
REMARK VINA RESULT:      -6.9      3.675      6.553
REMARK  6 active torsions:
REMARK  status: ('A' for Active; 'I' for Inactive)
REMARK    1  A    between atoms: O1_2  and  C2_3 
REMARK    2  A    between atoms: C8_9  and  C9_10 
REMARK    3  A    between atoms: C9_10  and  N1_11 
REMARK    4  A    between atoms: N1_11  and  C10_12 
REMARK    5  A    between atoms: C10_12  and  C11_13 
REMARK    6  A    between atoms: C11_13  and  S1_14 
ROOT
HETATM    1  C2  UNL     1      21.042  -0.532  53.601  1.00  0.00     0.069 A 
HETATM    2  C3  UNL     1      21.651  -1.265  54.585  1.00  0.00     0.037 A 
HETATM    3  C4  UNL     1      23.014  -1.087  54.702  1.00  0.00     0.017 A 
HETATM    4  C5  UNL     1      23.663  -0.218  53.860  1.00  0.00    -0.001 A 
HETATM    5  C6  UNL     1      23.074   0.524  52.872  1.00  0.00    -0.010 A 
HETATM    6  C7  UNL     1      21.724   0.321  52.785  1.00  0.00     0.050 A 
HETATM    7  C8  UNL     1      23.776   1.447  52.002  1.00  0.00    -0.013 C 
HETATM    8  C12 UNL     1      25.024   1.639  51.663  1.00  0.00     0.013 C 
HETATM    9  C13 UNL     1      26.418   1.293  51.755  1.00  0.00    -0.001 C 
HETATM   10  C14 UNL     1      27.156   0.409  52.399  1.00  0.00     0.001 C 
HETATM   11  C15 UNL     1      26.743  -0.649  53.357  1.00  0.00     0.136 C 
HETATM   12  C16 UNL     1      26.400   0.039  54.665  1.00  0.00     0.091 C 
HETATM   13  C17 UNL     1      25.079  -0.195  54.136  1.00  0.00     0.043 C 
HETATM   14  N2  UNL     1      25.375  -1.010  53.161  1.00  0.00    -0.284 NA
ENDROOT
BRANCH   7  15
HETATM   15  C9  UNL     1      22.858   2.423  51.369  1.00  0.00     0.227 C 
BRANCH  15  16
HETATM   16  N1  UNL     1      22.239   3.451  50.907  1.00  0.00    -0.292 NA
BRANCH  16  17
HETATM   17  C10 UNL     1      20.824   3.494  51.188  1.00  0.00     0.060 C 
BRANCH  17  18
HETATM   18  C11 UNL     1      19.588   3.588  51.653  1.00  0.00     0.052 C 
BRANCH  18  19
HETATM   19  S1  UNL     1      17.881   3.780  51.166  1.00  0.00    -0.154 SA
HETATM   20  H10 UNL     1      17.628   3.052  49.985  1.00  0.00     0.106 HD
ENDBRANCH  18  19
ENDBRANCH  17  18
ENDBRANCH  16  17
ENDBRANCH  15  16
ENDBRANCH   7  15
BRANCH   1  21
HETATM   21  O1  UNL     1      19.682  -0.666  53.433  1.00  0.00    -0.356 OA
HETATM   22  C1  UNL     1      19.015  -0.111  52.325  1.00  0.00     0.210 C 
ENDBRANCH   1  21
TORSDOF 6
ENDMDL
MODEL 4
REMARK VINA RESULT:      -6.6      2.390      4.314
REMARK  6 active torsions:
REMARK  status: ('A' for Active; 'I' for Inactive)
REMARK    1  A    between atoms: O1_2  and  C2_3 
REMARK    2  A    between atoms: C8_9  and  C9_10 
REMARK    3  A    between atoms: C9_10  and  N1_11 
REMARK    4  A    between atoms: N1_11  and  C10_12 
REMARK    5  A    between atoms: C10_12  and  C11_13 
REMARK    6  A    between atoms: C11_13  and  S1_14 
ROOT
HETATM    1  C2  UNL     1      26.540   1.227  54.041  1.00  0.00     0.069 A 
HETATM    2  C3  UNL     1      26.384   0.065  54.752  1.00  0.00     0.037 A 
HETATM    3  C4  UNL     1      25.167  -0.567  54.599  1.00  0.00     0.017 A 
HETATM    4  C5  UNL     1      24.214  -0.021  53.774  1.00  0.00    -0.001 A 
HETATM    5  C6  UNL     1      24.350   1.135  53.055  1.00  0.00    -0.010 A 
HETATM    6  C7  UNL     1      25.567   1.734  53.232  1.00  0.00     0.050 A 
HETATM    7  C8  UNL     1      23.336   1.688  52.178  1.00  0.00    -0.013 C 
HETATM    8  C12 UNL     1      22.049   1.520  52.025  1.00  0.00     0.013 C 
HETATM    9  C13 UNL     1      20.811   0.886  52.397  1.00  0.00    -0.001 C 
HETATM   10  C14 UNL     1      20.410  -0.016  53.273  1.00  0.00     0.001 C 
HETATM   11  C15 UNL     1      21.197  -0.764  54.287  1.00  0.00     0.136 C 
HETATM   12  C16 UNL     1      21.995  -1.819  53.546  1.00  0.00     0.091 C 
HETATM   13  C17 UNL     1      23.016  -0.825  53.771  1.00  0.00     0.043 C 
HETATM   14  N2  UNL     1      22.393  -0.062  54.627  1.00  0.00    -0.284 NA
ENDROOT
BRANCH   7  15
HETATM   15  C9  UNL     1      23.904   2.651  51.207  1.00  0.00     0.227 C 
BRANCH  15  16
HETATM   16  N1  UNL     1      24.163   3.614  50.394  1.00  0.00    -0.292 NA
BRANCH  16  17
HETATM   17  C10 UNL     1      25.520   3.657  49.906  1.00  0.00     0.060 C 
BRANCH  17  18
HETATM   18  C11 UNL     1      26.714   3.903  49.391  1.00  0.00     0.052 C 
BRANCH  18  19
HETATM   19  S1  UNL     1      27.710   5.163  48.609  1.00  0.00    -0.154 SA
HETATM   20  H10 UNL     1      28.988   4.652  48.303  1.00  0.00     0.106 HD
ENDBRANCH  18  19
ENDBRANCH  17  18
ENDBRANCH  16  17
ENDBRANCH  15  16
ENDBRANCH   7  15
BRANCH   1  21
HETATM   21  O1  UNL     1      27.733   1.905  54.152  1.00  0.00    -0.356 OA
HETATM   22  C1  UNL     1      28.971   1.244  54.054  1.00  0.00     0.210 C 
ENDBRANCH   1  21
TORSDOF 6
ENDMDL
MODEL 5
REMARK VINA RESULT:      -6.5      3.070      5.441
REMARK  6 active torsions:
REMARK  status: ('A' for Active; 'I' for Inactive)
REMARK    1  A    between atoms: O1_2  and  C2_3 
REMARK    2  A    between atoms: C8_9  and  C9_10 
REMARK    3  A    between atoms: C9_10  and  N1_11 
REMARK    4  A    between atoms: N1_11  and  C10_12 
REMARK    5  A    between atoms: C10_12  and  C11_13 
REMARK    6  A    between atoms: C11_13  and  S1_14 
ROOT
HETATM    1  C2  UNL     1      25.029   3.646  49.958  1.00  0.00     0.069 A 
HETATM    2  C3  UNL     1      26.378   3.490  50.143  1.00  0.00     0.037 A 
HETATM    3  C4  UNL     1      26.749   2.455  50.976  1.00  0.00     0.017 A 
HETATM    4  C5  UNL     1      25.785   1.665  51.553  1.00  0.00    -0.001 A 
HETATM    5  C6  UNL     1      24.434   1.802  51.381  1.00  0.00    -0.010 A 
HETATM    6  C7  UNL     1      24.104   2.838  50.550  1.00  0.00     0.050 A 
HETATM    7  C8  UNL     1      23.432   0.949  51.989  1.00  0.00    -0.013 C 
HETATM    8  C12 UNL     1      23.411   0.109  52.992  1.00  0.00     0.013 C 
HETATM    9  C13 UNL     1      24.069  -0.566  54.079  1.00  0.00    -0.001 C 
HETATM   10  C14 UNL     1      25.277  -0.598  54.610  1.00  0.00     0.001 C 
HETATM   11  C15 UNL     1      26.504   0.140  54.214  1.00  0.00     0.136 C 
HETATM   12  C16 UNL     1      27.028  -0.507  52.947  1.00  0.00     0.091 C 
HETATM   13  C17 UNL     1      26.383   0.660  52.399  1.00  0.00     0.043 C 
HETATM   14  N2  UNL     1      26.174   1.331  53.499  1.00  0.00    -0.284 NA
ENDROOT
BRANCH   7  15
HETATM   15  C9  UNL     1      22.131   1.028  51.285  1.00  0.00     0.227 C 
BRANCH  15  16
HETATM   16  N1  UNL     1      20.941   0.880  50.820  1.00  0.00    -0.292 NA
BRANCH  16  17
HETATM   17  C10 UNL     1      19.959   0.429  51.777  1.00  0.00     0.060 C 
BRANCH  17  18
HETATM   18  C11 UNL     1      19.213  -0.132  52.715  1.00  0.00     0.052 C 
BRANCH  18  19
HETATM   19  S1  UNL     1      17.842  -1.243  52.987  1.00  0.00    -0.154 SA
HETATM   20  H10 UNL     1      17.186  -1.512  51.769  1.00  0.00     0.106 HD
ENDBRANCH  18  19
ENDBRANCH  17  18
ENDBRANCH  16  17
ENDBRANCH  15  16
ENDBRANCH   7  15
BRANCH   1  21
HETATM   21  O1  UNL     1      24.595   4.662  49.137  1.00  0.00    -0.356 OA
HETATM   22  C1  UNL     1      25.264   5.898  49.074  1.00  0.00     0.210 C 
ENDBRANCH   1  21
TORSDOF 6
ENDMDL
MODEL 6
REMARK VINA RESULT:      -6.4      2.981      5.357
REMARK  6 active torsions:
REMARK  status: ('A' for Active; 'I' for Inactive)
REMARK    1  A    between atoms: O1_2  and  C2_3 
REMARK    2  A    between atoms: C8_9  and  C9_10 
REMARK    3  A    between atoms: C9_10  and  N1_11 
REMARK    4  A    between atoms: N1_11  and  C10_12 
REMARK    5  A    between atoms: C10_12  and  C11_13 
REMARK    6  A    between atoms: C11_13  and  S1_14 
ROOT
HETATM    1  C2  UNL     1      24.991   3.667  50.028  1.00  0.00     0.069 A 
HETATM    2  C3  UNL     1      26.343   3.520  50.191  1.00  0.00     0.037 A 
HETATM    3  C4  UNL     1      26.734   2.483  51.014  1.00  0.00     0.017 A 
HETATM    4  C5  UNL     1      25.785   1.684  51.602  1.00  0.00    -0.001 A 
HETATM    5  C6  UNL     1      24.431   1.813  51.451  1.00  0.00    -0.010 A 
HETATM    6  C7  UNL     1      24.081   2.850  50.631  1.00  0.00     0.050 A 
HETATM    7  C8  UNL     1      23.444   0.949  52.071  1.00  0.00    -0.013 C 
HETATM    8  C12 UNL     1      23.444   0.105  53.069  1.00  0.00     0.013 C 
HETATM    9  C13 UNL     1      24.123  -0.571  54.143  1.00  0.00    -0.001 C 
HETATM   10  C14 UNL     1      25.340  -0.598  54.655  1.00  0.00     0.001 C 
HETATM   11  C15 UNL     1      26.555   0.151  54.244  1.00  0.00     0.136 C 
HETATM   12  C16 UNL     1      27.064  -0.487  52.965  1.00  0.00     0.091 C 
HETATM   13  C17 UNL     1      26.402   0.679  52.433  1.00  0.00     0.043 C 
HETATM   14  N2  UNL     1      26.207   1.344  53.539  1.00  0.00    -0.284 NA
ENDROOT
BRANCH   7  15
HETATM   15  C9  UNL     1      22.132   1.023  51.388  1.00  0.00     0.227 C 
BRANCH  15  16
HETATM   16  N1  UNL     1      21.062   0.848  50.695  1.00  0.00    -0.292 NA
BRANCH  16  17
HETATM   17  C10 UNL     1      21.115   1.355  49.345  1.00  0.00     0.060 C 
BRANCH  17  18
HETATM   18  C11 UNL     1      21.382   1.781  48.121  1.00  0.00     0.052 C 
BRANCH  18  19
HETATM   19  S1  UNL     1      21.914   3.201  47.177  1.00  0.00    -0.154 SA
HETATM   20  H10 UNL     1      21.369   4.380  47.725  1.00  0.00     0.106 HD
ENDBRANCH  18  19
ENDBRANCH  17  18
ENDBRANCH  16  17
ENDBRANCH  15  16
ENDBRANCH   7  15
BRANCH   1  21
HETATM   21  O1  UNL     1      24.537   4.684  49.219  1.00  0.00    -0.356 OA
HETATM   22  C1  UNL     1      25.312   5.832  48.970  1.00  0.00     0.210 C 
ENDBRANCH   1  21
TORSDOF 6
ENDMDL
MODEL 7
REMARK VINA RESULT:      -6.3      3.239      5.550
REMARK  6 active torsions:
REMARK  status: ('A' for Active; 'I' for Inactive)
REMARK    1  A    between atoms: O1_2  and  C2_3 
REMARK    2  A    between atoms: C8_9  and  C9_10 
REMARK    3  A    between atoms: C9_10  and  N1_11 
REMARK    4  A    between atoms: N1_11  and  C10_12 
REMARK    5  A    between atoms: C10_12  and  C11_13 
REMARK    6  A    between atoms: C11_13  and  S1_14 
ROOT
HETATM    1  C2  UNL     1      21.976   2.447  51.213  1.00  0.00     0.069 A 
HETATM    2  C3  UNL     1      23.066   2.988  50.582  1.00  0.00     0.037 A 
HETATM    3  C4  UNL     1      24.289   2.478  50.965  1.00  0.00     0.017 A 
HETATM    4  C5  UNL     1      24.348   1.493  51.920  1.00  0.00    -0.001 A 
HETATM    5  C6  UNL     1      23.273   0.938  52.561  1.00  0.00    -0.010 A 
HETATM    6  C7  UNL     1      22.079   1.468  52.156  1.00  0.00     0.050 A 
HETATM    7  C8  UNL     1      23.356  -0.112  53.557  1.00  0.00    -0.013 C 
HETATM    8  C12 UNL     1      24.301  -0.598  54.319  1.00  0.00     0.013 C 
HETATM    9  C13 UNL     1      25.666  -0.607  54.776  1.00  0.00    -0.001 C 
HETATM   10  C14 UNL     1      26.779   0.055  54.519  1.00  0.00     0.001 C 
HETATM   11  C15 UNL     1      27.019   1.162  53.558  1.00  0.00     0.136 C 
HETATM   12  C16 UNL     1      27.043   0.554  52.169  1.00  0.00     0.091 C 
HETATM   13  C17 UNL     1      25.716   1.116  52.187  1.00  0.00     0.043 C 
HETATM   14  N2  UNL     1      25.805   1.853  53.261  1.00  0.00    -0.284 NA
ENDROOT
BRANCH   7  15
HETATM   15  C9  UNL     1      22.066  -0.819  53.730  1.00  0.00     0.227 C 
BRANCH  15  16
HETATM   16  N1  UNL     1      20.977  -1.367  54.139  1.00  0.00    -0.292 NA
BRANCH  16  17
HETATM   17  C10 UNL     1      19.768  -0.851  53.543  1.00  0.00     0.060 C 
BRANCH  17  18
HETATM   18  C11 UNL     1      18.774  -0.383  52.805  1.00  0.00     0.052 C 
BRANCH  18  19
HETATM   19  S1  UNL     1      18.307   0.066  51.140  1.00  0.00    -0.154 SA
HETATM   20  H10 UNL     1      17.266   1.015  51.167  1.00  0.00     0.106 HD
ENDBRANCH  18  19
ENDBRANCH  17  18
ENDBRANCH  16  17
ENDBRANCH  15  16
ENDBRANCH   7  15
BRANCH   1  21
HETATM   21  O1  UNL     1      20.726   2.915  50.874  1.00  0.00    -0.356 OA
HETATM   22  C1  UNL     1      20.402   4.282  50.952  1.00  0.00     0.210 C 
ENDBRANCH   1  21
TORSDOF 6
ENDMDL
MODEL 8
REMARK VINA RESULT:      -5.8      4.799      7.846
REMARK  6 active torsions:
REMARK  status: ('A' for Active; 'I' for Inactive)
REMARK    1  A    between atoms: O1_2  and  C2_3 
REMARK    2  A    between atoms: C8_9  and  C9_10 
REMARK    3  A    between atoms: C9_10  and  N1_11 
REMARK    4  A    between atoms: N1_11  and  C10_12 
REMARK    5  A    between atoms: C10_12  and  C11_13 
REMARK    6  A    between atoms: C11_13  and  S1_14 
ROOT
HETATM    1  C2  UNL     1      29.576   5.662  48.018  1.00  0.00     0.069 A 
HETATM    2  C3  UNL     1      29.672   6.980  47.655  1.00  0.00     0.037 A 
HETATM    3  C4  UNL     1      28.508   7.713  47.763  1.00  0.00     0.017 A 
HETATM    4  C5  UNL     1      27.360   7.108  48.213  1.00  0.00    -0.001 A 
HETATM    5  C6  UNL     1      27.244   5.795  48.582  1.00  0.00    -0.010 A 
HETATM    6  C7  UNL     1      28.416   5.100  48.461  1.00  0.00     0.050 A 
HETATM    7  C8  UNL     1      26.025   5.179  49.068  1.00  0.00    -0.013 C 
HETATM    8  C12 UNL     1      24.752   5.478  49.030  1.00  0.00     0.013 C 
HETATM    9  C13 UNL     1      23.679   6.355  48.641  1.00  0.00    -0.001 C 
HETATM   10  C14 UNL     1      23.549   7.503  48.004  1.00  0.00     0.001 C 
HETATM   11  C15 UNL     1      24.592   8.375  47.405  1.00  0.00     0.136 C 
HETATM   12  C16 UNL     1      25.304   9.074  48.548  1.00  0.00     0.091 C 
HETATM   13  C17 UNL     1      26.261   8.042  48.233  1.00  0.00     0.043 C 
HETATM   14  N2  UNL     1      25.769   7.627  47.097  1.00  0.00    -0.284 NA
ENDROOT
BRANCH   7  15
HETATM   15  C9  UNL     1      26.292   3.923  49.807  1.00  0.00     0.227 C 
BRANCH  15  16
HETATM   16  N1  UNL     1      26.752   2.831  50.307  1.00  0.00    -0.292 NA
BRANCH  16  17
HETATM   17  C10 UNL     1      26.125   2.406  51.535  1.00  0.00     0.060 C 
BRANCH  17  18
HETATM   18  C11 UNL     1      25.627   1.814  52.610  1.00  0.00     0.052 C 
BRANCH  18  19
HETATM   19  S1  UNL     1      24.523   0.521  53.156  1.00  0.00    -0.154 SA
HETATM   20  H10 UNL     1      23.184   0.906  52.949  1.00  0.00     0.106 HD
ENDBRANCH  18  19
ENDBRANCH  17  18
ENDBRANCH  16  17
ENDBRANCH  15  16
ENDBRANCH   7  15
BRANCH   1  21
HETATM   21  O1  UNL     1      30.704   4.877  47.932  1.00  0.00    -0.356 OA
HETATM   22  C1  UNL     1      31.934   5.397  47.490  1.00  0.00     0.210 C 
ENDBRANCH   1  21
TORSDOF 6
ENDMDL
MODEL 9
REMARK VINA RESULT:      -5.8      4.860      7.943
REMARK  6 active torsions:
REMARK  status: ('A' for Active; 'I' for Inactive)
REMARK    1  A    between atoms: O1_2  and  C2_3 
REMARK    2  A    between atoms: C8_9  and  C9_10 
REMARK    3  A    between atoms: C9_10  and  N1_11 
REMARK    4  A    between atoms: N1_11  and  C10_12 
REMARK    5  A    between atoms: C10_12  and  C11_13 
REMARK    6  A    between atoms: C11_13  and  S1_14 
ROOT
HETATM    1  C2  UNL     1      25.894   2.925  50.300  1.00  0.00     0.069 A 
HETATM    2  C3  UNL     1      24.530   2.987  50.186  1.00  0.00     0.037 A 
HETATM    3  C4  UNL     1      24.040   4.075  49.493  1.00  0.00     0.017 A 
HETATM    4  C5  UNL     1      24.911   5.002  48.975  1.00  0.00    -0.001 A 
HETATM    5  C6  UNL     1      26.275   4.958  49.076  1.00  0.00    -0.010 A 
HETATM    6  C7  UNL     1      26.724   3.867  49.769  1.00  0.00     0.050 A 
HETATM    7  C8  UNL     1      27.178   5.941  48.510  1.00  0.00    -0.013 C 
HETATM    8  C12 UNL     1      27.061   7.166  48.069  1.00  0.00     0.013 C 
HETATM    9  C13 UNL     1      26.262   8.331  47.795  1.00  0.00    -0.001 C 
HETATM   10  C14 UNL     1      24.997   8.690  47.919  1.00  0.00     0.001 C 
HETATM   11  C15 UNL     1      23.843   7.918  48.445  1.00  0.00     0.136 C 
HETATM   12  C16 UNL     1      23.465   6.899  47.388  1.00  0.00     0.091 C 
HETATM   13  C17 UNL     1      24.195   6.064  48.309  1.00  0.00     0.043 C 
HETATM   14  N2  UNL     1      24.280   6.880  49.324  1.00  0.00    -0.284 NA
ENDROOT
BRANCH   7  15
HETATM   15  C9  UNL     1      28.557   5.416  48.373  1.00  0.00     0.227 C 
BRANCH  15  16
HETATM   16  N1  UNL     1      29.755   5.102  48.025  1.00  0.00    -0.292 NA
BRANCH  16  17
HETATM   17  C10 UNL     1      30.794   5.927  48.592  1.00  0.00     0.060 C 
BRANCH  17  18
HETATM   18  C11 UNL     1      31.888   6.533  49.028  1.00  0.00     0.052 C 
BRANCH  18  19
HETATM   19  S1  UNL     1      33.519   7.076  48.544  1.00  0.00    -0.154 SA
HETATM   20  H10 UNL     1      34.421   5.993  48.578  1.00  0.00     0.106 HD
ENDBRANCH  18  19
ENDBRANCH  17  18
ENDBRANCH  16  17
ENDBRANCH  15  16
ENDBRANCH   7  15
BRANCH   1  21
HETATM   21  O1  UNL     1      26.445   1.862  50.981  1.00  0.00    -0.356 OA
HETATM   22  C1  UNL     1      25.725   1.163  51.967  1.00  0.00     0.210 C 
ENDBRANCH   1  21
TORSDOF 6
ENDMDL
