MODEL 1
REMARK VINA RESULT:      -7.3      0.000      0.000
REMARK  7 active torsions:
REMARK  status: ('A' for Active; 'I' for Inactive)
REMARK    1  A    between atoms: C2_2  and  N1_3 
REMARK    2  A    between atoms: N1_3  and  C3_4 
REMARK    3  A    between atoms: N5_12  and  C8_13 
REMARK    4  A    between atoms: C8_13  and  C9_14 
REMARK    5  A    between atoms: C13_20  and  C14_21 
REMARK    6  A    between atoms: C14_21  and  C15_22 
REMARK    7  A    between atoms: C17_24  and  O1_25 
ROOT
HETATM    1  C9  UNL     1      27.295   0.758  53.245  1.00  0.00    -0.053 C 
HETATM    2  C10 UNL     1      28.574   0.575  53.529  1.00  0.00     0.025 C 
HETATM    3  C11 UNL     1      29.450  -0.557  53.649  1.00  0.00     0.126 C 
HETATM    4  N6  UNL     1      29.254  -1.804  53.464  1.00  0.00    -0.229 NA
HETATM    5  S1  UNL     1      27.770  -2.607  52.974  1.00  0.00    -0.029 SA
HETATM    6  C12 UNL     1      26.756  -1.425  52.115  1.00  0.00     0.109 C 
HETATM    7  C13 UNL     1      26.298  -0.258  52.941  1.00  0.00     0.033 C 
ENDROOT
BRANCH   1   8
HETATM    8  C8  UNL     1      26.911   2.203  53.264  1.00  0.00     0.188 C 
BRANCH   8   9
HETATM    9  N5  UNL     1      26.259   2.643  52.058  1.00  0.00    -0.248 N 
HETATM   10  C5  UNL     1      24.976   2.998  51.865  1.00  0.00     0.163 A 
HETATM   11  N3  UNL     1      23.893   3.084  52.675  1.00  0.00    -0.222 NA
HETATM   12  C6  UNL     1      24.783   3.340  50.545  1.00  0.00     0.076 A 
HETATM   13  C4  UNL     1      22.699   3.478  52.233  1.00  0.00     0.237 A 
HETATM   14  N2  UNL     1      22.543   3.808  50.925  1.00  0.00    -0.224 NA
HETATM   15  C3  UNL     1      23.562   3.751  50.054  1.00  0.00     0.140 A 
HETATM   16  C7  UNL     1      26.033   3.162  49.989  1.00  0.00     0.158 A 
HETATM   17  N4  UNL     1      26.924   2.743  50.896  1.00  0.00    -0.182 NA
BRANCH  15  18
HETATM   18  N1  UNL     1      23.404   4.094  48.691  1.00  0.00    -0.374 N 
HETATM   19  H6  UNL     1      24.073   4.756  48.251  1.00  0.00     0.161 HD
BRANCH  18  20
HETATM   20  C2  UNL     1      22.331   3.550  47.877  1.00  0.00     0.116 C 
HETATM   21  C1  UNL     1      22.460   2.061  47.746  1.00  0.00     0.026 C 
ENDBRANCH  18  20
ENDBRANCH  15  18
ENDBRANCH   8   9
ENDBRANCH   1   8
BRANCH   7  22
HETATM   22  C14 UNL     1      25.448  -0.656  54.117  1.00  0.00     0.074 C 
BRANCH  22  23
HETATM   23  C15 UNL     1      24.002  -0.624  53.871  1.00  0.00     0.051 A 
HETATM   24  C16 UNL     1      22.839  -0.948  54.412  1.00  0.00     0.065 A 
HETATM   25  C17 UNL     1      22.078  -0.449  53.263  1.00  0.00     0.292 A 
HETATM   26  O2  UNL     1      23.342  -0.144  52.779  1.00  0.00    -0.321 OA
BRANCH  25  27
HETATM   27  O1  UNL     1      21.293   0.652  53.654  1.00  0.00    -0.362 OA
HETATM   28  C18 UNL     1      20.109   0.619  52.930  1.00  0.00     0.205 C 
ENDBRANCH  25  27
ENDBRANCH  22  23
ENDBRANCH   7  22
TORSDOF 7
ENDMDL
MODEL 2
REMARK VINA RESULT:      -7.2      1.720      2.117
REMARK  7 active torsions:
REMARK  status: ('A' for Active; 'I' for Inactive)
REMARK    1  A    between atoms: C2_2  and  N1_3 
REMARK    2  A    between atoms: N1_3  and  C3_4 
REMARK    3  A    between atoms: N5_12  and  C8_13 
REMARK    4  A    between atoms: C8_13  and  C9_14 
REMARK    5  A    between atoms: C13_20  and  C14_21 
REMARK    6  A    between atoms: C14_21  and  C15_22 
REMARK    7  A    between atoms: C17_24  and  O1_25 
ROOT
HETATM    1  C9  UNL     1      25.800   1.571  53.096  1.00  0.00    -0.053 C 
HETATM    2  C10 UNL     1      26.897   2.272  53.328  1.00  0.00     0.025 C 
HETATM    3  C11 UNL     1      28.280   1.969  53.573  1.00  0.00     0.126 C 
HETATM    4  N6  UNL     1      28.914   0.861  53.597  1.00  0.00    -0.229 NA
HETATM    5  S1  UNL     1      28.282  -0.755  53.328  1.00  0.00    -0.029 SA
HETATM    6  C12 UNL     1      26.799  -0.617  52.355  1.00  0.00     0.109 C 
HETATM    7  C13 UNL     1      25.672   0.123  53.013  1.00  0.00     0.033 C 
ENDROOT
BRANCH   1   8
HETATM    8  C8  UNL     1      24.599   2.442  52.910  1.00  0.00     0.188 C 
BRANCH   8   9
HETATM    9  N5  UNL     1      24.212   2.607  51.533  1.00  0.00    -0.248 N 
HETATM   10  C5  UNL     1      23.214   2.016  50.852  1.00  0.00     0.163 A 
HETATM   11  N3  UNL     1      22.254   1.118  51.184  1.00  0.00    -0.222 NA
HETATM   12  C6  UNL     1      23.215   2.461  49.549  1.00  0.00     0.076 A 
HETATM   13  C4  UNL     1      21.352   0.681  50.306  1.00  0.00     0.237 A 
HETATM   14  N2  UNL     1      21.381   1.139  49.028  1.00  0.00    -0.224 NA
HETATM   15  C3  UNL     1      22.298   2.027  48.616  1.00  0.00     0.140 A 
HETATM   16  C7  UNL     1      24.274   3.344  49.519  1.00  0.00     0.158 A 
HETATM   17  N4  UNL     1      24.877   3.436  50.711  1.00  0.00    -0.182 NA
BRANCH  15  18
HETATM   18  N1  UNL     1      22.331   2.508  47.285  1.00  0.00    -0.374 N 
HETATM   19  H6  UNL     1      22.909   2.011  46.578  1.00  0.00     0.161 HD
BRANCH  18  20
HETATM   20  C2  UNL     1      21.580   3.679  46.867  1.00  0.00     0.116 C 
HETATM   21  C1  UNL     1      21.882   4.029  45.440  1.00  0.00     0.026 C 
ENDBRANCH  18  20
ENDBRANCH  15  18
ENDBRANCH   8   9
ENDBRANCH   1   8
BRANCH   7  22
HETATM   22  C14 UNL     1      25.195  -0.524  54.285  1.00  0.00     0.074 C 
BRANCH  22  23
HETATM   23  C15 UNL     1      23.767  -0.860  54.308  1.00  0.00     0.051 A 
HETATM   24  C16 UNL     1      22.769  -1.144  55.129  1.00  0.00     0.065 A 
HETATM   25  C17 UNL     1      21.809  -1.302  54.033  1.00  0.00     0.292 A 
HETATM   26  O2  UNL     1      22.914  -0.994  53.252  1.00  0.00    -0.321 OA
BRANCH  25  27
HETATM   27  O1  UNL     1      20.823  -0.301  54.116  1.00  0.00    -0.362 OA
HETATM   28  C18 UNL     1      19.667  -0.782  53.518  1.00  0.00     0.205 C 
ENDBRANCH  25  27
ENDBRANCH  22  23
ENDBRANCH   7  22
TORSDOF 7
ENDMDL
MODEL 3
REMARK VINA RESULT:      -7.1      2.687      6.196
REMARK  7 active torsions:
REMARK  status: ('A' for Active; 'I' for Inactive)
REMARK    1  A    between atoms: C2_2  and  N1_3 
REMARK    2  A    between atoms: N1_3  and  C3_4 
REMARK    3  A    between atoms: N5_12  and  C8_13 
REMARK    4  A    between atoms: C8_13  and  C9_14 
REMARK    5  A    between atoms: C13_20  and  C14_21 
REMARK    6  A    between atoms: C14_21  and  C15_22 
REMARK    7  A    between atoms: C17_24  and  O1_25 
ROOT
HETATM    1  C9  UNL     1      23.167   3.051  50.770  1.00  0.00    -0.053 C 
HETATM    2  C10 UNL     1      23.439   3.599  49.597  1.00  0.00     0.025 C 
HETATM    3  C11 UNL     1      23.149   4.849  48.952  1.00  0.00     0.126 C 
HETATM    4  N6  UNL     1      22.539   5.892  49.361  1.00  0.00    -0.229 NA
HETATM    5  S1  UNL     1      21.805   6.173  50.932  1.00  0.00    -0.029 SA
HETATM    6  C12 UNL     1      22.593   5.101  52.112  1.00  0.00     0.109 C 
HETATM    7  C13 UNL     1      22.406   3.633  51.866  1.00  0.00     0.033 C 
ENDROOT
BRANCH   1   8
HETATM    8  C8  UNL     1      23.742   1.677  50.903  1.00  0.00     0.188 C 
BRANCH   8   9
HETATM    9  N5  UNL     1      24.941   1.627  51.698  1.00  0.00    -0.248 N 
HETATM   10  C5  UNL     1      25.219   0.863  52.770  1.00  0.00     0.163 A 
HETATM   11  N3  UNL     1      24.535  -0.089  53.448  1.00  0.00    -0.222 NA
HETATM   12  C6  UNL     1      26.486   1.152  53.227  1.00  0.00     0.076 A 
HETATM   13  C4  UNL     1      25.046  -0.721  54.504  1.00  0.00     0.237 A 
HETATM   14  N2  UNL     1      26.298  -0.412  54.930  1.00  0.00    -0.224 NA
HETATM   15  C3  UNL     1      27.044   0.518  54.317  1.00  0.00     0.140 A 
HETATM   16  C7  UNL     1      26.920   2.128  52.355  1.00  0.00     0.158 A 
HETATM   17  N4  UNL     1      25.994   2.416  51.432  1.00  0.00    -0.182 NA
BRANCH  15  18
HETATM   18  N1  UNL     1      28.349   0.843  54.757  1.00  0.00    -0.374 N 
HETATM   19  H6  UNL     1      28.474   1.334  55.665  1.00  0.00     0.161 HD
BRANCH  18  20
HETATM   20  C2  UNL     1      29.532   0.512  53.980  1.00  0.00     0.116 C 
HETATM   21  C1  UNL     1      29.588  -0.958  53.690  1.00  0.00     0.026 C 
ENDBRANCH  18  20
ENDBRANCH  15  18
ENDBRANCH   8   9
ENDBRANCH   1   8
BRANCH   7  22
HETATM   22  C14 UNL     1      20.965   3.200  51.910  1.00  0.00     0.074 C 
BRANCH  22  23
HETATM   23  C15 UNL     1      20.723   1.933  52.610  1.00  0.00     0.051 A 
HETATM   24  C16 UNL     1      19.911   0.889  52.639  1.00  0.00     0.065 A 
HETATM   25  C17 UNL     1      20.637   0.257  53.743  1.00  0.00     0.292 A 
HETATM   26  O2  UNL     1      21.435   1.387  53.637  1.00  0.00    -0.321 OA
BRANCH  25  27
HETATM   27  O1  UNL     1      21.220  -0.946  53.303  1.00  0.00    -0.362 OA
HETATM   28  C18 UNL     1      21.385  -1.775  54.403  1.00  0.00     0.205 C 
ENDBRANCH  25  27
ENDBRANCH  22  23
ENDBRANCH   7  22
TORSDOF 7
ENDMDL
MODEL 4
REMARK VINA RESULT:      -6.8      2.122      2.907
REMARK  7 active torsions:
REMARK  status: ('A' for Active; 'I' for Inactive)
REMARK    1  A    between atoms: C2_2  and  N1_3 
REMARK    2  A    between atoms: N1_3  and  C3_4 
REMARK    3  A    between atoms: N5_12  and  C8_13 
REMARK    4  A    between atoms: C8_13  and  C9_14 
REMARK    5  A    between atoms: C13_20  and  C14_21 
REMARK    6  A    between atoms: C14_21  and  C15_22 
REMARK    7  A    between atoms: C17_24  and  O1_25 
ROOT
HETATM    1  C9  UNL     1      26.267   1.125  52.507  1.00  0.00    -0.053 C 
HETATM    2  C10 UNL     1      27.121   2.131  52.590  1.00  0.00     0.025 C 
HETATM    3  C11 UNL     1      28.308   2.415  53.348  1.00  0.00     0.126 C 
HETATM    4  N6  UNL     1      28.962   1.716  54.192  1.00  0.00    -0.229 NA
HETATM    5  S1  UNL     1      28.618   0.085  54.747  1.00  0.00    -0.029 SA
HETATM    6  C12 UNL     1      27.645  -0.731  53.501  1.00  0.00     0.109 C 
HETATM    7  C13 UNL     1      26.294  -0.127  53.249  1.00  0.00     0.033 C 
ENDROOT
BRANCH   1   8
HETATM    8  C8  UNL     1      25.178   1.384  51.515  1.00  0.00     0.188 C 
BRANCH   8   9
HETATM    9  N5  UNL     1      24.593   2.695  51.629  1.00  0.00    -0.248 N 
HETATM   10  C5  UNL     1      24.826   3.798  50.895  1.00  0.00     0.163 A 
HETATM   11  N3  UNL     1      25.628   4.070  49.837  1.00  0.00    -0.222 NA
HETATM   12  C6  UNL     1      24.051   4.836  51.361  1.00  0.00     0.076 A 
HETATM   13  C4  UNL     1      25.676   5.274  49.268  1.00  0.00     0.237 A 
HETATM   14  N2  UNL     1      24.899   6.277  49.753  1.00  0.00    -0.224 NA
HETATM   15  C3  UNL     1      24.077   6.094  50.797  1.00  0.00     0.140 A 
HETATM   16  C7  UNL     1      23.358   4.266  52.408  1.00  0.00     0.158 A 
HETATM   17  N4  UNL     1      23.680   2.977  52.573  1.00  0.00    -0.182 NA
BRANCH  15  18
HETATM   18  N1  UNL     1      23.266   7.136  51.304  1.00  0.00    -0.374 N 
HETATM   19  H6  UNL     1      23.637   7.750  52.057  1.00  0.00     0.161 HD
BRANCH  18  20
HETATM   20  C2  UNL     1      21.923   7.383  50.807  1.00  0.00     0.116 C 
HETATM   21  C1  UNL     1      21.946   8.347  49.658  1.00  0.00     0.026 C 
ENDBRANCH  18  20
ENDBRANCH  15  18
ENDBRANCH   8   9
ENDBRANCH   1   8
BRANCH   7  22
HETATM   22  C14 UNL     1      25.398  -0.143  54.458  1.00  0.00     0.074 C 
BRANCH  22  23
HETATM   23  C15 UNL     1      24.029  -0.604  54.203  1.00  0.00     0.051 A 
HETATM   24  C16 UNL     1      22.946  -1.063  54.811  1.00  0.00     0.065 A 
HETATM   25  C17 UNL     1      22.199  -1.183  53.556  1.00  0.00     0.292 A 
HETATM   26  O2  UNL     1      23.377  -0.696  53.009  1.00  0.00    -0.321 OA
BRANCH  25  27
HETATM   27  O1  UNL     1      21.113  -0.289  53.561  1.00  0.00    -0.362 OA
HETATM   28  C18 UNL     1      19.940  -1.031  53.563  1.00  0.00     0.205 C 
ENDBRANCH  25  27
ENDBRANCH  22  23
ENDBRANCH   7  22
TORSDOF 7
ENDMDL
MODEL 5
REMARK VINA RESULT:      -6.8      2.948      3.871
REMARK  7 active torsions:
REMARK  status: ('A' for Active; 'I' for Inactive)
REMARK    1  A    between atoms: C2_2  and  N1_3 
REMARK    2  A    between atoms: N1_3  and  C3_4 
REMARK    3  A    between atoms: N5_12  and  C8_13 
REMARK    4  A    between atoms: C8_13  and  C9_14 
REMARK    5  A    between atoms: C13_20  and  C14_21 
REMARK    6  A    between atoms: C14_21  and  C15_22 
REMARK    7  A    between atoms: C17_24  and  O1_25 
ROOT
HETATM    1  C9  UNL     1      26.311   1.608  51.800  1.00  0.00    -0.053 C 
HETATM    2  C10 UNL     1      27.403   2.159  52.305  1.00  0.00     0.025 C 
HETATM    3  C11 UNL     1      28.107   2.091  53.555  1.00  0.00     0.126 C 
HETATM    4  N6  UNL     1      27.900   1.399  54.608  1.00  0.00    -0.229 NA
HETATM    5  S1  UNL     1      26.619   0.235  54.906  1.00  0.00    -0.029 SA
HETATM    6  C12 UNL     1      26.040  -0.367  53.335  1.00  0.00     0.109 C 
HETATM    7  C13 UNL     1      25.410   0.667  52.448  1.00  0.00     0.033 C 
ENDROOT
BRANCH   1   8
HETATM    8  C8  UNL     1      26.043   2.060  50.400  1.00  0.00     0.188 C 
BRANCH   8   9
HETATM    9  N5  UNL     1      25.720   3.458  50.295  1.00  0.00    -0.248 N 
HETATM   10  C5  UNL     1      26.386   4.441  49.662  1.00  0.00     0.163 A 
HETATM   11  N3  UNL     1      27.521   4.481  48.922  1.00  0.00    -0.222 NA
HETATM   12  C6  UNL     1      25.721   5.635  49.832  1.00  0.00     0.076 A 
HETATM   13  C4  UNL     1      27.982   5.608  48.382  1.00  0.00     0.237 A 
HETATM   14  N2  UNL     1      27.303   6.770  48.570  1.00  0.00    -0.224 NA
HETATM   15  C3  UNL     1      26.171   6.819  49.288  1.00  0.00     0.140 A 
HETATM   16  C7  UNL     1      24.633   5.282  50.601  1.00  0.00     0.158 A 
HETATM   17  N4  UNL     1      24.628   3.974  50.883  1.00  0.00    -0.182 NA
BRANCH  15  18
HETATM   18  N1  UNL     1      25.461   8.027  49.485  1.00  0.00    -0.374 N 
HETATM   19  H6  UNL     1      24.425   8.028  49.405  1.00  0.00     0.161 HD
BRANCH  18  20
HETATM   20  C2  UNL     1      26.133   9.276  49.800  1.00  0.00     0.116 C 
HETATM   21  C1  UNL     1      26.022  10.245  48.660  1.00  0.00     0.026 C 
ENDBRANCH  18  20
ENDBRANCH  15  18
ENDBRANCH   8   9
ENDBRANCH   1   8
BRANCH   7  22
HETATM   22  C14 UNL     1      24.187   1.304  53.050  1.00  0.00     0.074 C 
BRANCH  22  23
HETATM   23  C15 UNL     1      22.911   0.762  52.570  1.00  0.00     0.051 A 
HETATM   24  C16 UNL     1      22.202  -0.354  52.507  1.00  0.00     0.065 A 
HETATM   25  C17 UNL     1      21.092   0.299  51.807  1.00  0.00     0.292 A 
HETATM   26  O2  UNL     1      21.906   1.417  51.921  1.00  0.00    -0.321 OA
BRANCH  25  27
HETATM   27  O1  UNL     1      19.946   0.293  52.623  1.00  0.00    -0.362 OA
HETATM   28  C18 UNL     1      18.844   0.035  51.819  1.00  0.00     0.205 C 
ENDBRANCH  25  27
ENDBRANCH  22  23
ENDBRANCH   7  22
TORSDOF 7
ENDMDL
MODEL 6
REMARK VINA RESULT:      -6.7      3.269      5.664
REMARK  7 active torsions:
REMARK  status: ('A' for Active; 'I' for Inactive)
REMARK    1  A    between atoms: C2_2  and  N1_3 
REMARK    2  A    between atoms: N1_3  and  C3_4 
REMARK    3  A    between atoms: N5_12  and  C8_13 
REMARK    4  A    between atoms: C8_13  and  C9_14 
REMARK    5  A    between atoms: C13_20  and  C14_21 
REMARK    6  A    between atoms: C14_21  and  C15_22 
REMARK    7  A    between atoms: C17_24  and  O1_25 
ROOT
HETATM    1  C9  UNL     1      22.368   1.813  50.411  1.00  0.00    -0.053 C 
HETATM    2  C10 UNL     1      21.223   1.250  50.066  1.00  0.00     0.025 C 
HETATM    3  C11 UNL     1      20.166   0.560  50.752  1.00  0.00     0.126 C 
HETATM    4  N6  UNL     1      19.983   0.306  51.989  1.00  0.00    -0.229 NA
HETATM    5  S1  UNL     1      21.012   0.733  53.347  1.00  0.00    -0.029 SA
HETATM    6  C12 UNL     1      21.994   2.140  52.878  1.00  0.00     0.109 C 
HETATM    7  C13 UNL     1      22.948   1.903  51.743  1.00  0.00     0.033 C 
ENDROOT
BRANCH   1   8
HETATM    8  C8  UNL     1      23.088   2.400  49.240  1.00  0.00     0.188 C 
BRANCH   8   9
HETATM    9  N5  UNL     1      23.958   3.494  49.584  1.00  0.00    -0.248 N 
HETATM   10  C5  UNL     1      23.643   4.727  50.021  1.00  0.00     0.163 A 
HETATM   11  N3  UNL     1      22.475   5.356  50.297  1.00  0.00    -0.222 NA
HETATM   12  C6  UNL     1      24.794   5.457  50.216  1.00  0.00     0.076 A 
HETATM   13  C4  UNL     1      22.427   6.613  50.735  1.00  0.00     0.237 A 
HETATM   14  N2  UNL     1      23.581   7.306  50.916  1.00  0.00    -0.224 NA
HETATM   15  C3  UNL     1      24.780   6.760  50.667  1.00  0.00     0.140 A 
HETATM   16  C7  UNL     1      25.792   4.572  49.866  1.00  0.00     0.158 A 
HETATM   17  N4  UNL     1      25.293   3.389  49.485  1.00  0.00    -0.182 NA
BRANCH  15  18
HETATM   18  N1  UNL     1      25.985   7.478  50.855  1.00  0.00    -0.374 N 
HETATM   19  H6  UNL     1      26.447   7.464  51.786  1.00  0.00     0.161 HD
BRANCH  18  20
HETATM   20  C2  UNL     1      26.605   8.241  49.784  1.00  0.00     0.116 C 
HETATM   21  C1  UNL     1      27.541   9.275  50.336  1.00  0.00     0.026 C 
ENDBRANCH  18  20
ENDBRANCH  15  18
ENDBRANCH   8   9
ENDBRANCH   1   8
BRANCH   7  22
HETATM   22  C14 UNL     1      23.975   0.843  52.038  1.00  0.00     0.074 C 
BRANCH  22  23
HETATM   23  C15 UNL     1      25.271   1.353  52.498  1.00  0.00     0.051 A 
HETATM   24  C16 UNL     1      25.834   2.373  53.126  1.00  0.00     0.065 A 
HETATM   25  C17 UNL     1      27.179   1.801  53.011  1.00  0.00     0.292 A 
HETATM   26  O2  UNL     1      26.500   0.778  52.365  1.00  0.00    -0.321 OA
BRANCH  25  27
HETATM   27  O1  UNL     1      27.675   1.491  54.291  1.00  0.00    -0.362 OA
HETATM   28  C18 UNL     1      29.062   1.494  54.230  1.00  0.00     0.205 C 
ENDBRANCH  25  27
ENDBRANCH  22  23
ENDBRANCH   7  22
TORSDOF 7
ENDMDL
MODEL 7
REMARK VINA RESULT:      -6.6      2.845      4.252
REMARK  7 active torsions:
REMARK  status: ('A' for Active; 'I' for Inactive)
REMARK    1  A    between atoms: C2_2  and  N1_3 
REMARK    2  A    between atoms: N1_3  and  C3_4 
REMARK    3  A    between atoms: N5_12  and  C8_13 
REMARK    4  A    between atoms: C8_13  and  C9_14 
REMARK    5  A    between atoms: C13_20  and  C14_21 
REMARK    6  A    between atoms: C14_21  and  C15_22 
REMARK    7  A    between atoms: C17_24  and  O1_25 
ROOT
HETATM    1  C9  UNL     1      23.778   0.512  52.772  1.00  0.00    -0.053 C 
HETATM    2  C10 UNL     1      24.739   0.101  53.582  1.00  0.00     0.025 C 
HETATM    3  C11 UNL     1      24.814  -0.724  54.756  1.00  0.00     0.126 C 
HETATM    4  N6  UNL     1      23.923  -1.387  55.385  1.00  0.00    -0.229 NA
HETATM    5  S1  UNL     1      22.212  -1.525  55.014  1.00  0.00    -0.029 SA
HETATM    6  C12 UNL     1      21.990  -1.184  53.282  1.00  0.00     0.109 C 
HETATM    7  C13 UNL     1      22.357   0.207  52.853  1.00  0.00     0.033 C 
ENDROOT
BRANCH   1   8
HETATM    8  C8  UNL     1      24.295   1.388  51.676  1.00  0.00     0.188 C 
BRANCH   8   9
HETATM    9  N5  UNL     1      23.807   2.740  51.737  1.00  0.00    -0.248 N 
HETATM   10  C5  UNL     1      23.030   3.405  50.863  1.00  0.00     0.163 A 
HETATM   11  N3  UNL     1      22.443   3.074  49.687  1.00  0.00    -0.222 NA
HETATM   12  C6  UNL     1      22.817   4.688  51.315  1.00  0.00     0.076 A 
HETATM   13  C4  UNL     1      21.696   3.933  48.995  1.00  0.00     0.237 A 
HETATM   14  N2  UNL     1      21.506   5.192  49.469  1.00  0.00    -0.224 NA
HETATM   15  C3  UNL     1      22.051   5.602  50.624  1.00  0.00     0.140 A 
HETATM   16  C7  UNL     1      23.517   4.723  52.503  1.00  0.00     0.158 A 
HETATM   17  N4  UNL     1      24.114   3.553  52.761  1.00  0.00    -0.182 NA
BRANCH  15  18
HETATM   18  N1  UNL     1      21.856   6.912  51.121  1.00  0.00    -0.374 N 
HETATM   19  H6  UNL     1      21.363   7.046  52.027  1.00  0.00     0.161 HD
BRANCH  18  20
HETATM   20  C2  UNL     1      22.323   8.088  50.407  1.00  0.00     0.116 C 
HETATM   21  C1  UNL     1      23.822   8.152  50.402  1.00  0.00     0.026 C 
ENDBRANCH  18  20
ENDBRANCH  15  18
ENDBRANCH   8   9
ENDBRANCH   1   8
BRANCH   7  22
HETATM   22  C14 UNL     1      21.538   1.275  53.527  1.00  0.00     0.074 C 
BRANCH  22  23
HETATM   23  C15 UNL     1      20.531   1.910  52.670  1.00  0.00     0.051 A 
HETATM   24  C16 UNL     1      19.720   1.674  51.651  1.00  0.00     0.065 A 
HETATM   25  C17 UNL     1      19.191   3.040  51.655  1.00  0.00     0.292 A 
HETATM   26  O2  UNL     1      20.071   3.193  52.716  1.00  0.00    -0.321 OA
BRANCH  25  27
HETATM   27  O1  UNL     1      17.825   3.021  51.992  1.00  0.00    -0.362 OA
HETATM   28  C18 UNL     1      17.200   4.068  51.329  1.00  0.00     0.205 C 
ENDBRANCH  25  27
ENDBRANCH  22  23
ENDBRANCH   7  22
TORSDOF 7
ENDMDL
MODEL 8
REMARK VINA RESULT:      -6.6      2.534      2.996
REMARK  7 active torsions:
REMARK  status: ('A' for Active; 'I' for Inactive)
REMARK    1  A    between atoms: C2_2  and  N1_3 
REMARK    2  A    between atoms: N1_3  and  C3_4 
REMARK    3  A    between atoms: N5_12  and  C8_13 
REMARK    4  A    between atoms: C8_13  and  C9_14 
REMARK    5  A    between atoms: C13_20  and  C14_21 
REMARK    6  A    between atoms: C14_21  and  C15_22 
REMARK    7  A    between atoms: C17_24  and  O1_25 
ROOT
HETATM    1  C9  UNL     1      26.332   1.386  52.309  1.00  0.00    -0.053 C 
HETATM    2  C10 UNL     1      27.225   2.321  52.585  1.00  0.00     0.025 C 
HETATM    3  C11 UNL     1      28.351   2.441  53.469  1.00  0.00     0.126 C 
HETATM    4  N6  UNL     1      28.889   1.609  54.274  1.00  0.00    -0.229 NA
HETATM    5  S1  UNL     1      28.413  -0.051  54.596  1.00  0.00    -0.029 SA
HETATM    6  C12 UNL     1      27.516  -0.655  53.183  1.00  0.00     0.109 C 
HETATM    7  C13 UNL     1      26.227   0.058  52.893  1.00  0.00     0.033 C 
ENDROOT
BRANCH   1   8
HETATM    8  C8  UNL     1      25.353   1.827  51.268  1.00  0.00     0.188 C 
BRANCH   8   9
HETATM    9  N5  UNL     1      25.760   3.010  50.556  1.00  0.00    -0.248 N 
HETATM   10  C5  UNL     1      25.239   4.250  50.598  1.00  0.00     0.163 A 
HETATM   11  N3  UNL     1      24.220   4.818  51.287  1.00  0.00    -0.222 NA
HETATM   12  C6  UNL     1      25.935   5.073  49.741  1.00  0.00     0.076 A 
HETATM   13  C4  UNL     1      23.896   6.103  51.154  1.00  0.00     0.237 A 
HETATM   14  N2  UNL     1      24.602   6.888  50.299  1.00  0.00    -0.224 NA
HETATM   15  C3  UNL     1      25.626   6.407  49.578  1.00  0.00     0.140 A 
HETATM   16  C7  UNL     1      26.888   4.234  49.203  1.00  0.00     0.158 A 
HETATM   17  N4  UNL     1      26.787   2.992  49.690  1.00  0.00    -0.182 NA
BRANCH  15  18
HETATM   18  N1  UNL     1      26.364   7.222  48.688  1.00  0.00    -0.374 N 
HETATM   19  H6  UNL     1      27.283   6.888  48.335  1.00  0.00     0.161 HD
BRANCH  18  20
HETATM   20  C2  UNL     1      25.880   8.518  48.244  1.00  0.00     0.116 C 
HETATM   21  C1  UNL     1      26.547   9.627  49.002  1.00  0.00     0.026 C 
ENDBRANCH  18  20
ENDBRANCH  15  18
ENDBRANCH   8   9
ENDBRANCH   1   8
BRANCH   7  22
HETATM   22  C14 UNL     1      25.225  -0.044  54.012  1.00  0.00     0.074 C 
BRANCH  22  23
HETATM   23  C15 UNL     1      23.832  -0.199  53.578  1.00  0.00     0.051 A 
HETATM   24  C16 UNL     1      22.954  -1.102  53.171  1.00  0.00     0.065 A 
HETATM   25  C17 UNL     1      21.886  -0.110  53.023  1.00  0.00     0.292 A 
HETATM   26  O2  UNL     1      22.873   0.763  53.458  1.00  0.00    -0.321 OA
BRANCH  25  27
HETATM   27  O1  UNL     1      20.857  -0.376  53.946  1.00  0.00    -0.362 OA
HETATM   28  C18 UNL     1      19.649  -0.358  53.264  1.00  0.00     0.205 C 
ENDBRANCH  25  27
ENDBRANCH  22  23
ENDBRANCH   7  22
TORSDOF 7
ENDMDL
MODEL 9
REMARK VINA RESULT:      -6.5      2.975      5.506
REMARK  7 active torsions:
REMARK  status: ('A' for Active; 'I' for Inactive)
REMARK    1  A    between atoms: C2_2  and  N1_3 
REMARK    2  A    between atoms: N1_3  and  C3_4 
REMARK    3  A    between atoms: N5_12  and  C8_13 
REMARK    4  A    between atoms: C8_13  and  C9_14 
REMARK    5  A    between atoms: C13_20  and  C14_21 
REMARK    6  A    between atoms: C14_21  and  C15_22 
REMARK    7  A    between atoms: C17_24  and  O1_25 
ROOT
HETATM    1  C9  UNL     1      21.797   1.035  51.324  1.00  0.00    -0.053 C 
HETATM    2  C10 UNL     1      20.576   0.688  50.953  1.00  0.00     0.025 C 
HETATM    3  C11 UNL     1      19.460   0.027  51.570  1.00  0.00     0.126 C 
HETATM    4  N6  UNL     1      19.286  -0.415  52.755  1.00  0.00    -0.229 NA
HETATM    5  S1  UNL     1      20.408  -0.364  54.106  1.00  0.00    -0.029 SA
HETATM    6  C12 UNL     1      21.552   0.969  53.828  1.00  0.00     0.109 C 
HETATM    7  C13 UNL     1      22.427   0.817  52.618  1.00  0.00     0.033 C 
ENDROOT
BRANCH   1   8
HETATM    8  C8  UNL     1      22.549   1.723  50.230  1.00  0.00     0.188 C 
BRANCH   8   9
HETATM    9  N5  UNL     1      22.893   3.087  50.535  1.00  0.00    -0.248 N 
HETATM   10  C5  UNL     1      23.998   3.780  50.206  1.00  0.00     0.163 A 
HETATM   11  N3  UNL     1      25.117   3.484  49.501  1.00  0.00    -0.222 NA
HETATM   12  C6  UNL     1      23.914   5.056  50.717  1.00  0.00     0.076 A 
HETATM   13  C4  UNL     1      26.093   4.370  49.304  1.00  0.00     0.237 A 
HETATM   14  N2  UNL     1      25.979   5.620  49.823  1.00  0.00    -0.224 NA
HETATM   15  C3  UNL     1      24.906   5.996  50.534  1.00  0.00     0.140 A 
HETATM   16  C7  UNL     1      22.695   5.057  51.360  1.00  0.00     0.158 A 
HETATM   17  N4  UNL     1      22.076   3.874  51.253  1.00  0.00    -0.182 NA
BRANCH  15  18
HETATM   18  N1  UNL     1      24.783   7.297  51.075  1.00  0.00    -0.374 N 
HETATM   19  H6  UNL     1      24.745   7.419  52.107  1.00  0.00     0.161 HD
BRANCH  18  20
HETATM   20  C2  UNL     1      24.708   8.480  50.234  1.00  0.00     0.116 C 
HETATM   21  C1  UNL     1      23.467   8.461  49.392  1.00  0.00     0.026 C 
ENDBRANCH  18  20
ENDBRANCH  15  18
ENDBRANCH   8   9
ENDBRANCH   1   8
BRANCH   7  22
HETATM   22  C14 UNL     1      23.313  -0.398  52.672  1.00  0.00     0.074 C 
BRANCH  22  23
HETATM   23  C15 UNL     1      24.486  -0.267  53.543  1.00  0.00     0.051 A 
HETATM   24  C16 UNL     1      25.032  -0.750  54.648  1.00  0.00     0.065 A 
HETATM   25  C17 UNL     1      26.198   0.132  54.549  1.00  0.00     0.292 A 
HETATM   26  O2  UNL     1      25.551   0.574  53.404  1.00  0.00    -0.321 OA
BRANCH  25  27
HETATM   27  O1  UNL     1      27.359  -0.636  54.336  1.00  0.00    -0.362 OA
HETATM   28  C18 UNL     1      28.444   0.074  54.830  1.00  0.00     0.205 C 
ENDBRANCH  25  27
ENDBRANCH  22  23
ENDBRANCH   7  22
TORSDOF 7
ENDMDL
