MODEL 1
REMARK VINA RESULT:      -8.7      0.000      0.000
REMARK  6 active torsions:
REMARK  status: ('A' for Active; 'I' for Inactive)
REMARK    1  A    between atoms: O1_1  and  C1_2 
REMARK    2  A    between atoms: C7_9  and  C8_10 
REMARK    3  A    between atoms: C8_10  and  C9_11 
REMARK    4  A    between atoms: C9_11  and  C10_12 
REMARK    5  A    between atoms: C10_12  and  C11_13 
REMARK    6  A    between atoms: N2_21  and  C18_22 
ROOT
HETATM    1  C1  UNL     1      28.310  -2.546  53.125  1.00  0.00     0.065 A 
HETATM    2  C2  UNL     1      27.238  -2.435  52.424  1.00  0.00     0.029 A 
HETATM    3  C3  UNL     1      26.340  -1.461  51.907  1.00  0.00     0.155 A 
HETATM    4  N1  UNL     1      26.821  -0.105  52.367  1.00  0.00    -0.355 N 
HETATM    5  C4  UNL     1      27.996  -0.263  53.115  1.00  0.00     0.025 A 
HETATM    6  C5  UNL     1      28.564   1.052  53.493  1.00  0.00     0.061 A 
HETATM    7  C6  UNL     1      27.337   1.349  52.730  1.00  0.00     0.073 A 
HETATM    8  C7  UNL     1      25.679   1.976  53.280  1.00  0.00     0.060 A 
HETATM    9  C17 UNL     1      26.588   1.532  52.263  1.00  0.00     0.118 A 
HETATM   10  N2  UNL     1      27.476   2.558  52.487  1.00  0.00    -0.265 NA
HETATM   11  C18 UNL     1      28.664   2.332  53.216  1.00  0.00     0.106 A 
HETATM   12  C19 UNL     1      28.830  -1.239  53.576  1.00  0.00     0.062 A 
ENDROOT
BRANCH   8  13
HETATM   13  C8  UNL     1      24.253   2.366  52.701  1.00  0.00    -0.013 C 
BRANCH  13  14
HETATM   14  C9  UNL     1      23.719   1.314  53.234  1.00  0.00     0.023 C 
BRANCH  14  15
HETATM   15  C10 UNL     1      23.130   0.013  53.024  1.00  0.00     0.047 C 
BRANCH  15  16
HETATM   16  C11 UNL     1      21.716   0.017  52.550  1.00  0.00    -0.019 A 
HETATM   17  C12 UNL     1      21.173   0.437  51.360  1.00  0.00     0.010 A 
HETATM   18  C13 UNL     1      19.831   0.363  51.157  1.00  0.00     0.001 A 
HETATM   19  C14 UNL     1      18.929  -0.110  52.063  1.00  0.00     0.003 A 
HETATM   20  C15 UNL     1      19.415  -0.555  53.299  1.00  0.00     0.043 A 
HETATM   21  C16 UNL     1      20.772  -0.465  53.477  1.00  0.00     0.122 A 
HETATM   22  F1  UNL     1      21.202  -0.898  54.697  1.00  0.00    -0.206 F 
ENDBRANCH  15  16
ENDBRANCH  14  15
ENDBRANCH  13  14
ENDBRANCH   8  13
BRANCH   1  23
HETATM   23  O1  UNL     1      29.092  -3.576  53.558  1.00  0.00    -0.361 OA
HETATM   24  H1  UNL     1      28.997  -3.847  54.550  1.00  0.00     0.217 HD
ENDBRANCH   1  23
TORSDOF 6
ENDMDL
MODEL 2
REMARK VINA RESULT:      -8.5      3.483      7.237
REMARK  6 active torsions:
REMARK  status: ('A' for Active; 'I' for Inactive)
REMARK    1  A    between atoms: O1_1  and  C1_2 
REMARK    2  A    between atoms: C7_9  and  C8_10 
REMARK    3  A    between atoms: C8_10  and  C9_11 
REMARK    4  A    between atoms: C9_11  and  C10_12 
REMARK    5  A    between atoms: C10_12  and  C11_13 
REMARK    6  A    between atoms: N2_21  and  C18_22 
ROOT
HETATM    1  C1  UNL     1      18.717  -0.103  52.217  1.00  0.00     0.065 A 
HETATM    2  C2  UNL     1      19.498   0.221  51.250  1.00  0.00     0.029 A 
HETATM    3  C3  UNL     1      20.877   0.378  50.933  1.00  0.00     0.155 A 
HETATM    4  N1  UNL     1      21.671   0.069  52.180  1.00  0.00    -0.355 N 
HETATM    5  C4  UNL     1      20.789  -0.292  53.209  1.00  0.00     0.025 A 
HETATM    6  C5  UNL     1      21.532  -0.711  54.421  1.00  0.00     0.061 A 
HETATM    7  C6  UNL     1      22.558  -0.346  53.426  1.00  0.00     0.073 A 
HETATM    8  C7  UNL     1      23.684   1.126  53.318  1.00  0.00     0.060 A 
HETATM    9  C17 UNL     1      23.186  -0.123  52.819  1.00  0.00     0.118 A 
HETATM   10  N2  UNL     1      23.584  -0.825  53.932  1.00  0.00    -0.265 NA
HETATM   11  C18 UNL     1      22.645  -1.197  54.919  1.00  0.00     0.106 A 
HETATM   12  C19 UNL     1      19.455  -0.437  53.452  1.00  0.00     0.062 A 
ENDROOT
BRANCH   8  13
HETATM   13  C8  UNL     1      24.827   1.741  52.403  1.00  0.00    -0.013 C 
BRANCH  13  14
HETATM   14  C9  UNL     1      25.649   1.772  53.402  1.00  0.00     0.023 C 
BRANCH  14  15
HETATM   15  C10 UNL     1      26.370   1.022  54.404  1.00  0.00     0.047 C 
BRANCH  15  16
HETATM   16  C11 UNL     1      27.252  -0.062  53.884  1.00  0.00    -0.019 A 
HETATM   17  C12 UNL     1      26.955  -1.173  53.133  1.00  0.00     0.010 A 
HETATM   18  C13 UNL     1      27.936  -2.048  52.789  1.00  0.00     0.001 A 
HETATM   19  C14 UNL     1      29.249  -1.925  53.135  1.00  0.00     0.003 A 
HETATM   20  C15 UNL     1      29.622  -0.814  53.903  1.00  0.00     0.043 A 
HETATM   21  C16 UNL     1      28.610   0.050  54.237  1.00  0.00     0.122 A 
HETATM   22  F1  UNL     1      29.014   1.111  54.993  1.00  0.00    -0.206 F 
ENDBRANCH  15  16
ENDBRANCH  14  15
ENDBRANCH  13  14
ENDBRANCH   8  13
BRANCH   1  23
HETATM   23  O1  UNL     1      17.370  -0.217  52.388  1.00  0.00    -0.361 OA
HETATM   24  H1  UNL     1      16.961  -1.157  52.258  1.00  0.00     0.217 HD
ENDBRANCH   1  23
TORSDOF 6
ENDMDL
MODEL 3
REMARK VINA RESULT:      -8.3      3.595      5.719
REMARK  6 active torsions:
REMARK  status: ('A' for Active; 'I' for Inactive)
REMARK    1  A    between atoms: O1_1  and  C1_2 
REMARK    2  A    between atoms: C7_9  and  C8_10 
REMARK    3  A    between atoms: C8_10  and  C9_11 
REMARK    4  A    between atoms: C9_11  and  C10_12 
REMARK    5  A    between atoms: C10_12  and  C11_13 
REMARK    6  A    between atoms: N2_21  and  C18_22 
ROOT
HETATM    1  C1  UNL     1      29.172  -0.103  53.571  1.00  0.00     0.065 A 
HETATM    2  C2  UNL     1      29.019   1.158  53.765  1.00  0.00     0.029 A 
HETATM    3  C3  UNL     1      28.017   2.168  53.803  1.00  0.00     0.155 A 
HETATM    4  N1  UNL     1      26.694   1.512  53.487  1.00  0.00    -0.355 N 
HETATM    5  C4  UNL     1      26.896   0.138  53.295  1.00  0.00     0.025 A 
HETATM    6  C5  UNL     1      25.606  -0.564  53.093  1.00  0.00     0.061 A 
HETATM    7  C6  UNL     1      25.266   0.860  53.268  1.00  0.00     0.073 A 
HETATM    8  C7  UNL     1      24.693   2.137  52.048  1.00  0.00     0.060 A 
HETATM    9  C17 UNL     1      25.056   1.731  53.375  1.00  0.00     0.118 A 
HETATM   10  N2  UNL     1      24.042   0.807  53.463  1.00  0.00    -0.265 NA
HETATM   11  C18 UNL     1      24.310  -0.570  53.298  1.00  0.00     0.106 A 
HETATM   12  C19 UNL     1      27.896  -0.790  53.283  1.00  0.00     0.062 A 
ENDROOT
BRANCH   8  13
HETATM   13  C8  UNL     1      24.274   3.666  51.968  1.00  0.00    -0.013 C 
BRANCH  13  14
HETATM   14  C9  UNL     1      23.876   3.522  50.745  1.00  0.00     0.023 C 
BRANCH  14  15
HETATM   15  C10 UNL     1      24.172   3.705  49.343  1.00  0.00     0.047 C 
BRANCH  15  16
HETATM   16  C11 UNL     1      25.246   4.693  49.037  1.00  0.00    -0.019 A 
HETATM   17  C12 UNL     1      25.173   6.036  48.757  1.00  0.00     0.010 A 
HETATM   18  C13 UNL     1      26.302   6.740  48.483  1.00  0.00     0.001 A 
HETATM   19  C14 UNL     1      27.562   6.218  48.457  1.00  0.00     0.003 A 
HETATM   20  C15 UNL     1      27.709   4.853  48.733  1.00  0.00     0.043 A 
HETATM   21  C16 UNL     1      26.552   4.168  49.003  1.00  0.00     0.122 A 
HETATM   22  F1  UNL     1      26.740   2.840  49.256  1.00  0.00    -0.206 F 
ENDBRANCH  15  16
ENDBRANCH  14  15
ENDBRANCH  13  14
ENDBRANCH   8  13
BRANCH   1  23
HETATM   23  O1  UNL     1      30.223  -0.971  53.565  1.00  0.00    -0.361 OA
HETATM   24  H1  UNL     1      30.823  -0.970  52.725  1.00  0.00     0.217 HD
ENDBRANCH   1  23
TORSDOF 6
ENDMDL
MODEL 4
REMARK VINA RESULT:      -8.2      1.757      2.970
REMARK  6 active torsions:
REMARK  status: ('A' for Active; 'I' for Inactive)
REMARK    1  A    between atoms: O1_1  and  C1_2 
REMARK    2  A    between atoms: C7_9  and  C8_10 
REMARK    3  A    between atoms: C8_10  and  C9_11 
REMARK    4  A    between atoms: C9_11  and  C10_12 
REMARK    5  A    between atoms: C10_12  and  C11_13 
REMARK    6  A    between atoms: N2_21  and  C18_22 
ROOT
HETATM    1  C1  UNL     1      28.581   0.860  53.718  1.00  0.00     0.065 A 
HETATM    2  C2  UNL     1      28.141  -0.272  53.297  1.00  0.00     0.029 A 
HETATM    3  C3  UNL     1      26.944  -0.918  52.878  1.00  0.00     0.155 A 
HETATM    4  N1  UNL     1      25.819   0.084  52.991  1.00  0.00    -0.355 N 
HETATM    5  C4  UNL     1      26.337   1.308  53.439  1.00  0.00     0.025 A 
HETATM    6  C5  UNL     1      25.286   2.352  53.458  1.00  0.00     0.061 A 
HETATM    7  C6  UNL     1      24.622   1.122  52.988  1.00  0.00     0.073 A 
HETATM    8  C7  UNL     1      23.421  -0.015  53.832  1.00  0.00     0.060 A 
HETATM    9  C17 UNL     1      24.215   0.371  52.701  1.00  0.00     0.118 A 
HETATM   10  N2  UNL     1      23.555   1.566  52.537  1.00  0.00    -0.265 NA
HETATM   11  C18 UNL     1      24.141   2.775  52.973  1.00  0.00     0.106 A 
HETATM   12  C19 UNL     1      27.516   1.879  53.820  1.00  0.00     0.062 A 
ENDROOT
BRANCH   8  13
HETATM   13  C8  UNL     1      22.590  -1.343  53.574  1.00  0.00    -0.013 C 
BRANCH  13  14
HETATM   14  C9  UNL     1      21.532  -0.817  54.102  1.00  0.00     0.023 C 
BRANCH  14  15
HETATM   15  C10 UNL     1      20.522   0.213  54.027  1.00  0.00     0.047 C 
BRANCH  15  16
HETATM   16  C11 UNL     1      19.797   0.307  52.727  1.00  0.00    -0.019 A 
HETATM   17  C12 UNL     1      20.085   1.026  51.593  1.00  0.00     0.010 A 
HETATM   18  C13 UNL     1      19.253   0.972  50.520  1.00  0.00     0.001 A 
HETATM   19  C14 UNL     1      18.104   0.239  50.458  1.00  0.00     0.003 A 
HETATM   20  C15 UNL     1      17.750  -0.518  51.581  1.00  0.00     0.043 A 
HETATM   21  C16 UNL     1      18.606  -0.441  52.650  1.00  0.00     0.122 A 
HETATM   22  F1  UNL     1      18.219  -1.184  53.726  1.00  0.00    -0.206 F 
ENDBRANCH  15  16
ENDBRANCH  14  15
ENDBRANCH  13  14
ENDBRANCH   8  13
BRANCH   1  23
HETATM   23  O1  UNL     1      29.792   1.359  54.094  1.00  0.00    -0.361 OA
HETATM   24  H1  UNL     1      30.512   0.672  54.374  1.00  0.00     0.217 HD
ENDBRANCH   1  23
TORSDOF 6
ENDMDL
MODEL 5
REMARK VINA RESULT:      -8.2      2.434      3.700
REMARK  6 active torsions:
REMARK  status: ('A' for Active; 'I' for Inactive)
REMARK    1  A    between atoms: O1_1  and  C1_2 
REMARK    2  A    between atoms: C7_9  and  C8_10 
REMARK    3  A    between atoms: C8_10  and  C9_11 
REMARK    4  A    between atoms: C9_11  and  C10_12 
REMARK    5  A    between atoms: C10_12  and  C11_13 
REMARK    6  A    between atoms: N2_21  and  C18_22 
ROOT
HETATM    1  C1  UNL     1      25.570   2.936  50.948  1.00  0.00     0.065 A 
HETATM    2  C2  UNL     1      24.826   3.142  51.976  1.00  0.00     0.029 A 
HETATM    3  C3  UNL     1      24.544   2.623  53.271  1.00  0.00     0.155 A 
HETATM    4  N1  UNL     1      25.415   1.406  53.476  1.00  0.00    -0.355 N 
HETATM    5  C4  UNL     1      26.221   1.221  52.344  1.00  0.00     0.025 A 
HETATM    6  C5  UNL     1      27.171   0.103  52.548  1.00  0.00     0.061 A 
HETATM    7  C6  UNL     1      26.379   0.188  53.789  1.00  0.00     0.073 A 
HETATM    8  C7  UNL     1      25.041  -0.908  54.461  1.00  0.00     0.060 A 
HETATM    9  C17 UNL     1      25.897   0.240  54.548  1.00  0.00     0.118 A 
HETATM   10  N2  UNL     1      27.048  -0.512  54.565  1.00  0.00    -0.265 NA
HETATM   11  C18 UNL     1      27.842  -0.633  53.403  1.00  0.00     0.106 A 
HETATM   12  C19 UNL     1      26.458   1.768  51.117  1.00  0.00     0.062 A 
ENDROOT
BRANCH   8  13
HETATM   13  C8  UNL     1      24.069  -1.045  55.709  1.00  0.00    -0.013 C 
BRANCH  13  14
HETATM   14  C9  UNL     1      23.058  -1.268  54.931  1.00  0.00     0.023 C 
BRANCH  14  15
HETATM   15  C10 UNL     1      21.674  -0.985  54.629  1.00  0.00     0.047 C 
BRANCH  15  16
HETATM   16  C11 UNL     1      21.418  -0.403  53.280  1.00  0.00    -0.019 A 
HETATM   17  C12 UNL     1      22.290   0.062  52.326  1.00  0.00     0.010 A 
HETATM   18  C13 UNL     1      21.817   0.577  51.161  1.00  0.00     0.001 A 
HETATM   19  C14 UNL     1      20.498   0.684  50.832  1.00  0.00     0.003 A 
HETATM   20  C15 UNL     1      19.554   0.229  51.760  1.00  0.00     0.043 A 
HETATM   21  C16 UNL     1      20.060  -0.283  52.928  1.00  0.00     0.122 A 
HETATM   22  F1  UNL     1      19.106  -0.704  53.808  1.00  0.00    -0.206 F 
ENDBRANCH  15  16
ENDBRANCH  14  15
ENDBRANCH  13  14
ENDBRANCH   8  13
BRANCH   1  23
HETATM   23  O1  UNL     1      25.746   3.532  49.735  1.00  0.00    -0.361 OA
HETATM   24  H1  UNL     1      25.091   3.259  48.983  1.00  0.00     0.217 HD
ENDBRANCH   1  23
TORSDOF 6
ENDMDL
MODEL 6
REMARK VINA RESULT:      -8.1      3.531      7.475
REMARK  6 active torsions:
REMARK  status: ('A' for Active; 'I' for Inactive)
REMARK    1  A    between atoms: O1_1  and  C1_2 
REMARK    2  A    between atoms: C7_9  and  C8_10 
REMARK    3  A    between atoms: C8_10  and  C9_11 
REMARK    4  A    between atoms: C9_11  and  C10_12 
REMARK    5  A    between atoms: C10_12  and  C11_13 
REMARK    6  A    between atoms: N2_21  and  C18_22 
ROOT
HETATM    1  C1  UNL     1      18.606   0.095  50.976  1.00  0.00     0.065 A 
HETATM    2  C2  UNL     1      18.711  -0.174  52.228  1.00  0.00     0.029 A 
HETATM    3  C3  UNL     1      19.640  -0.132  53.305  1.00  0.00     0.155 A 
HETATM    4  N1  UNL     1      20.946   0.397  52.762  1.00  0.00    -0.355 N 
HETATM    5  C4  UNL     1      20.792   0.693  51.399  1.00  0.00     0.025 A 
HETATM    6  C5  UNL     1      22.017   1.320  50.851  1.00  0.00     0.061 A 
HETATM    7  C6  UNL     1      22.306   1.046  52.271  1.00  0.00     0.073 A 
HETATM    8  C7  UNL     1      23.391  -0.230  53.073  1.00  0.00     0.060 A 
HETATM    9  C17 UNL     1      22.484   0.880  53.140  1.00  0.00     0.118 A 
HETATM   10  N2  UNL     1      23.330   1.723  52.457  1.00  0.00    -0.265 NA
HETATM   11  C18 UNL     1      23.104   2.016  51.094  1.00  0.00     0.106 A 
HETATM   12  C19 UNL     1      19.856   0.640  50.408  1.00  0.00     0.062 A 
ENDROOT
BRANCH   8  13
HETATM   13  C8  UNL     1      23.862  -0.723  54.506  1.00  0.00    -0.013 C 
BRANCH  13  14
HETATM   14  C9  UNL     1      25.072  -0.896  54.079  1.00  0.00     0.023 C 
BRANCH  14  15
HETATM   15  C10 UNL     1      25.965  -0.930  52.945  1.00  0.00     0.047 C 
BRANCH  15  16
HETATM   16  C11 UNL     1      27.380  -0.556  53.229  1.00  0.00    -0.019 A 
HETATM   17  C12 UNL     1      27.933   0.653  53.574  1.00  0.00     0.010 A 
HETATM   18  C13 UNL     1      29.274   0.762  53.766  1.00  0.00     0.001 A 
HETATM   19  C14 UNL     1      30.167  -0.261  53.641  1.00  0.00     0.003 A 
HETATM   20  C15 UNL     1      29.671  -1.523  53.290  1.00  0.00     0.043 A 
HETATM   21  C16 UNL     1      28.314  -1.602  53.100  1.00  0.00     0.122 A 
HETATM   22  F1  UNL     1      27.874  -2.844  52.749  1.00  0.00    -0.206 F 
ENDBRANCH  15  16
ENDBRANCH  14  15
ENDBRANCH  13  14
ENDBRANCH   8  13
BRANCH   1  23
HETATM   23  O1  UNL     1      17.623   0.005  50.036  1.00  0.00    -0.361 OA
HETATM   24  H1  UNL     1      17.052  -0.856  50.040  1.00  0.00     0.217 HD
ENDBRANCH   1  23
TORSDOF 6
ENDMDL
MODEL 7
REMARK VINA RESULT:      -8.0      2.658      4.166
REMARK  6 active torsions:
REMARK  status: ('A' for Active; 'I' for Inactive)
REMARK    1  A    between atoms: O1_1  and  C1_2 
REMARK    2  A    between atoms: C7_9  and  C8_10 
REMARK    3  A    between atoms: C8_10  and  C9_11 
REMARK    4  A    between atoms: C9_11  and  C10_12 
REMARK    5  A    between atoms: C10_12  and  C11_13 
REMARK    6  A    between atoms: N2_21  and  C18_22 
ROOT
HETATM    1  C1  UNL     1      25.896   3.150  50.831  1.00  0.00     0.065 A 
HETATM    2  C2  UNL     1      25.023   3.390  51.744  1.00  0.00     0.029 A 
HETATM    3  C3  UNL     1      24.390   2.790  52.868  1.00  0.00     0.155 A 
HETATM    4  N1  UNL     1      24.933   1.388  53.005  1.00  0.00    -0.355 N 
HETATM    5  C4  UNL     1      25.890   1.165  52.004  1.00  0.00     0.025 A 
HETATM    6  C5  UNL     1      26.530  -0.161  52.168  1.00  0.00     0.061 A 
HETATM    7  C6  UNL     1      25.544  -0.052  53.260  1.00  0.00     0.073 A 
HETATM    8  C7  UNL     1      23.902  -0.882  53.509  1.00  0.00     0.060 A 
HETATM    9  C17 UNL     1      24.942   0.013  53.928  1.00  0.00     0.118 A 
HETATM   10  N2  UNL     1      25.887  -0.983  54.005  1.00  0.00    -0.265 NA
HETATM   11  C18 UNL     1      26.852  -1.137  52.985  1.00  0.00     0.106 A 
HETATM   12  C19 UNL     1      26.472   1.795  50.943  1.00  0.00     0.062 A 
ENDROOT
BRANCH   8  13
HETATM   13  C8  UNL     1      22.696  -0.946  54.539  1.00  0.00    -0.013 C 
BRANCH  13  14
HETATM   14  C9  UNL     1      21.847  -0.661  53.605  1.00  0.00     0.023 C 
BRANCH  14  15
HETATM   15  C10 UNL     1      20.856   0.265  53.108  1.00  0.00     0.047 C 
BRANCH  15  16
HETATM   16  C11 UNL     1      21.268   1.070  51.922  1.00  0.00    -0.019 A 
HETATM   17  C12 UNL     1      21.990   0.716  50.808  1.00  0.00     0.010 A 
HETATM   18  C13 UNL     1      22.266   1.640  49.851  1.00  0.00     0.001 A 
HETATM   19  C14 UNL     1      21.878   2.947  49.890  1.00  0.00     0.003 A 
HETATM   20  C15 UNL     1      21.138   3.375  50.999  1.00  0.00     0.043 A 
HETATM   21  C16 UNL     1      20.878   2.422  51.951  1.00  0.00     0.122 A 
HETATM   22  F1  UNL     1      20.164   2.884  53.018  1.00  0.00    -0.206 F 
ENDBRANCH  15  16
ENDBRANCH  14  15
ENDBRANCH  13  14
ENDBRANCH   8  13
BRANCH   1  23
HETATM   23  O1  UNL     1      26.426   3.839  49.782  1.00  0.00    -0.361 OA
HETATM   24  H1  UNL     1      26.177   4.839  49.707  1.00  0.00     0.217 HD
ENDBRANCH   1  23
TORSDOF 6
ENDMDL
MODEL 8
REMARK VINA RESULT:      -7.9      3.808      7.524
REMARK  6 active torsions:
REMARK  status: ('A' for Active; 'I' for Inactive)
REMARK    1  A    between atoms: O1_1  and  C1_2 
REMARK    2  A    between atoms: C7_9  and  C8_10 
REMARK    3  A    between atoms: C8_10  and  C9_11 
REMARK    4  A    between atoms: C9_11  and  C10_12 
REMARK    5  A    between atoms: C10_12  and  C11_13 
REMARK    6  A    between atoms: N2_21  and  C18_22 
ROOT
HETATM    1  C1  UNL     1      22.346   5.157  51.596  1.00  0.00     0.065 A 
HETATM    2  C2  UNL     1      23.372   4.469  51.241  1.00  0.00     0.029 A 
HETATM    3  C3  UNL     1      23.857   3.132  51.195  1.00  0.00     0.155 A 
HETATM    4  N1  UNL     1      22.793   2.238  51.788  1.00  0.00    -0.355 N 
HETATM    5  C4  UNL     1      21.686   3.019  52.151  1.00  0.00     0.025 A 
HETATM    6  C5  UNL     1      20.573   2.169  52.635  1.00  0.00     0.061 A 
HETATM    7  C6  UNL     1      21.671   1.243  52.301  1.00  0.00     0.073 A 
HETATM    8  C7  UNL     1      22.812   0.261  53.387  1.00  0.00     0.060 A 
HETATM    9  C17 UNL     1      22.341   0.675  52.097  1.00  0.00     0.118 A 
HETATM   10  N2  UNL     1      21.086   0.149  52.290  1.00  0.00    -0.265 NA
HETATM   11  C18 UNL     1      19.998   0.989  52.617  1.00  0.00     0.106 A 
HETATM   12  C19 UNL     1      21.269   4.318  52.159  1.00  0.00     0.062 A 
ENDROOT
BRANCH   8  13
HETATM   13  C8  UNL     1      24.022  -0.764  53.298  1.00  0.00    -0.013 C 
BRANCH  13  14
HETATM   14  C9  UNL     1      24.881   0.203  53.345  1.00  0.00     0.023 C 
BRANCH  14  15
HETATM   15  C10 UNL     1      26.047   0.820  52.757  1.00  0.00     0.047 C 
BRANCH  15  16
HETATM   16  C11 UNL     1      27.340   0.121  53.011  1.00  0.00    -0.019 A 
HETATM   17  C12 UNL     1      27.678  -1.204  52.890  1.00  0.00     0.010 A 
HETATM   18  C13 UNL     1      28.933  -1.621  53.202  1.00  0.00     0.001 A 
HETATM   19  C14 UNL     1      29.937  -0.811  53.647  1.00  0.00     0.003 A 
HETATM   20  C15 UNL     1      29.660   0.553  53.795  1.00  0.00     0.043 A 
HETATM   21  C16 UNL     1      28.385   0.944  53.475  1.00  0.00     0.122 A 
HETATM   22  F1  UNL     1      28.154   2.278  53.642  1.00  0.00    -0.206 F 
ENDBRANCH  15  16
ENDBRANCH  14  15
ENDBRANCH  13  14
ENDBRANCH   8  13
BRANCH   1  23
HETATM   23  O1  UNL     1      22.002   6.476  51.581  1.00  0.00    -0.361 OA
HETATM   24  H1  UNL     1      21.348   6.795  52.315  1.00  0.00     0.217 HD
ENDBRANCH   1  23
TORSDOF 6
ENDMDL
MODEL 9
REMARK VINA RESULT:      -7.8      3.906      6.652
REMARK  6 active torsions:
REMARK  status: ('A' for Active; 'I' for Inactive)
REMARK    1  A    between atoms: O1_1  and  C1_2 
REMARK    2  A    between atoms: C7_9  and  C8_10 
REMARK    3  A    between atoms: C8_10  and  C9_11 
REMARK    4  A    between atoms: C9_11  and  C10_12 
REMARK    5  A    between atoms: C10_12  and  C11_13 
REMARK    6  A    between atoms: N2_21  and  C18_22 
ROOT
HETATM    1  C1  UNL     1      20.390   2.777  51.388  1.00  0.00     0.065 A 
HETATM    2  C2  UNL     1      21.288   2.249  50.634  1.00  0.00     0.029 A 
HETATM    3  C3  UNL     1      22.290   1.239  50.632  1.00  0.00     0.155 A 
HETATM    4  N1  UNL     1      22.293   0.594  51.998  1.00  0.00    -0.355 N 
HETATM    5  C4  UNL     1      21.295   1.184  52.787  1.00  0.00     0.025 A 
HETATM    6  C5  UNL     1      21.188   0.506  54.100  1.00  0.00     0.061 A 
HETATM    7  C6  UNL     1      22.268  -0.189  53.376  1.00  0.00     0.073 A 
HETATM    8  C7  UNL     1      24.110  -0.161  53.609  1.00  0.00     0.060 A 
HETATM    9  C17 UNL     1      22.928  -0.615  52.934  1.00  0.00     0.118 A 
HETATM   10  N2  UNL     1      22.412  -1.215  54.058  1.00  0.00    -0.265 NA
HETATM   11  C18 UNL     1      21.380  -0.592  54.794  1.00  0.00     0.106 A 
HETATM   12  C19 UNL     1      20.342   2.158  52.728  1.00  0.00     0.062 A 
ENDROOT
BRANCH   8  13
HETATM   13  C8  UNL     1      25.439  -0.781  53.003  1.00  0.00    -0.013 C 
BRANCH  13  14
HETATM   14  C9  UNL     1      25.944   0.398  52.830  1.00  0.00     0.023 C 
BRANCH  14  15
HETATM   15  C10 UNL     1      26.267   1.455  51.901  1.00  0.00     0.047 C 
BRANCH  15  16
HETATM   16  C11 UNL     1      25.349   2.630  51.918  1.00  0.00    -0.019 A 
HETATM   17  C12 UNL     1      24.540   3.117  52.915  1.00  0.00     0.010 A 
HETATM   18  C13 UNL     1      23.761   4.208  52.692  1.00  0.00     0.001 A 
HETATM   19  C14 UNL     1      23.702   4.898  51.517  1.00  0.00     0.003 A 
HETATM   20  C15 UNL     1      24.501   4.454  50.456  1.00  0.00     0.043 A 
HETATM   21  C16 UNL     1      25.274   3.350  50.710  1.00  0.00     0.122 A 
HETATM   22  F1  UNL     1      26.029   2.945  49.649  1.00  0.00    -0.206 F 
ENDBRANCH  15  16
ENDBRANCH  14  15
ENDBRANCH  13  14
ENDBRANCH   8  13
BRANCH   1  23
HETATM   23  O1  UNL     1      19.467   3.770  51.257  1.00  0.00    -0.361 OA
HETATM   24  H1  UNL     1      19.048   4.135  52.129  1.00  0.00     0.217 HD
ENDBRANCH   1  23
TORSDOF 6
ENDMDL
