MODEL 1
REMARK VINA RESULT:      -7.7      0.000      0.000
REMARK  4 active torsions:
REMARK  status: ('A' for Active; 'I' for Inactive)
REMARK    1  A    between atoms: N1_1  and  C1_2 
REMARK    2  A    between atoms: C1_2  and  C2_3 
REMARK    3  A    between atoms: C2_3  and  C3_4 
REMARK    4  A    between atoms: C3_4  and  N2_5 
ROOT
HETATM    1  N2  UNL     1      27.217   1.220  53.291  1.00  0.00     0.029 N 
HETATM    2  C4  UNL     1      26.414   0.600  54.340  1.00  0.00     0.283 C 
HETATM    3  C5  UNL     1      24.955   0.577  53.978  1.00  0.00     0.003 C 
HETATM    4  C6  UNL     1      23.845  -0.127  53.843  1.00  0.00     0.018 C 
HETATM    5  C7  UNL     1      22.442  -0.304  53.515  1.00  0.00     0.020 C 
HETATM    6 CL1  UNL     1      21.900  -1.977  53.830  1.00  0.00    -0.088 Cl
HETATM    7  C8  UNL     1      22.059   0.869  53.090  1.00  0.00     0.067 C 
HETATM    8  C9  UNL     1      20.884   1.570  52.593  1.00  0.00     0.009 C 
HETATM    9  C10 UNL     1      21.166   2.849  52.255  1.00  0.00     0.041 C 
HETATM   10 CL2  UNL     1      20.863   4.457  51.683  1.00  0.00    -0.084 Cl
HETATM   11  C11 UNL     1      22.602   3.247  52.203  1.00  0.00    -0.015 A 
HETATM   12  C12 UNL     1      23.014   2.399  51.173  1.00  0.00     0.015 A 
HETATM   13  C13 UNL     1      24.187   2.103  50.531  1.00  0.00     0.024 A 
HETATM   14  C14 UNL     1      25.070   2.908  51.163  1.00  0.00     0.011 A 
HETATM   15  C15 UNL     1      24.807   3.789  52.179  1.00  0.00     0.024 A 
HETATM   16  C16 UNL     1      23.593   4.019  52.759  1.00  0.00     0.015 A 
HETATM   17  N3  UNL     1      26.504   2.967  51.085  1.00  0.00    -0.244 NA
HETATM   18  C17 UNL     1      26.913   2.105  52.180  1.00  0.00     0.334 A 
HETATM   19  S1  UNL     1      25.858   0.813  51.941  1.00  0.00     0.120 SA
HETATM   20  H19 UNL     1      27.519   2.878  51.196  1.00  0.00     0.131 HD
ENDROOT
BRANCH   1  21
HETATM   21  C3  UNL     1      28.609   1.041  53.569  1.00  0.00     0.258 C 
BRANCH  21  22
HETATM   22  C2  UNL     1      28.956  -0.222  54.320  1.00  0.00     0.059 C 
BRANCH  22  23
HETATM   23  C1  UNL     1      29.704  -1.196  53.391  1.00  0.00     0.268 C 
BRANCH  23  24
HETATM   24  N1  UNL     1      28.924  -2.438  53.366  1.00  0.00     0.078 N 
HETATM   25  H1  UNL     1      29.563  -3.200  53.727  1.00  0.00     0.312 HD
HETATM   26  H2  UNL     1      28.156  -2.389  54.099  1.00  0.00     0.312 HD
ENDBRANCH  23  24
ENDBRANCH  22  23
ENDBRANCH  21  22
ENDBRANCH   1  21
TORSDOF 4
ENDMDL
MODEL 2
REMARK VINA RESULT:      -7.6      2.502      4.188
REMARK  4 active torsions:
REMARK  status: ('A' for Active; 'I' for Inactive)
REMARK    1  A    between atoms: N1_1  and  C1_2 
REMARK    2  A    between atoms: C1_2  and  C2_3 
REMARK    3  A    between atoms: C2_3  and  C3_4 
REMARK    4  A    between atoms: C3_4  and  N2_5 
ROOT
HETATM    1  N2  UNL     1      25.857   0.754  52.750  1.00  0.00     0.029 N 
HETATM    2  C4  UNL     1      26.670   1.100  51.589  1.00  0.00     0.283 C 
HETATM    3  C5  UNL     1      26.021   2.175  50.761  1.00  0.00     0.003 C 
HETATM    4  C6  UNL     1      26.129   3.350  50.166  1.00  0.00     0.018 C 
HETATM    5  C7  UNL     1      25.635   4.470  49.386  1.00  0.00     0.020 C 
HETATM    6 CL1  UNL     1      26.914   5.682  49.092  1.00  0.00    -0.088 Cl
HETATM    7  C8  UNL     1      24.380   4.182  49.168  1.00  0.00     0.067 C 
HETATM    8  C9  UNL     1      23.194   4.703  48.504  1.00  0.00     0.009 C 
HETATM    9  C10 UNL     1      22.119   3.905  48.696  1.00  0.00     0.041 C 
HETATM   10 CL2  UNL     1      20.475   3.372  48.552  1.00  0.00    -0.084 Cl
HETATM   11  C11 UNL     1      22.240   2.817  49.709  1.00  0.00    -0.015 A 
HETATM   12  C12 UNL     1      22.431   3.611  50.841  1.00  0.00     0.015 A 
HETATM   13  C13 UNL     1      22.663   3.407  52.177  1.00  0.00     0.024 A 
HETATM   14  C14 UNL     1      22.688   2.059  52.261  1.00  0.00     0.011 A 
HETATM   15  C15 UNL     1      22.511   1.162  51.239  1.00  0.00     0.024 A 
HETATM   16  C16 UNL     1      22.282   1.462  49.928  1.00  0.00     0.015 A 
HETATM   17  N3  UNL     1      23.052   1.196  53.351  1.00  0.00    -0.244 NA
HETATM   18  C17 UNL     1      24.458   0.940  53.092  1.00  0.00     0.334 A 
HETATM   19  S1  UNL     1      24.971   2.500  52.714  1.00  0.00     0.120 SA
HETATM   20  H19 UNL     1      23.504   0.584  54.038  1.00  0.00     0.131 HD
ENDROOT
BRANCH   1  21
HETATM   21  C3  UNL     1      26.591  -0.113  53.621  1.00  0.00     0.258 C 
BRANCH  21  22
HETATM   22  C2  UNL     1      27.715  -0.879  52.965  1.00  0.00     0.059 C 
BRANCH  22  23
HETATM   23  C1  UNL     1      27.267  -2.323  52.675  1.00  0.00     0.268 C 
BRANCH  23  24
HETATM   24  N1  UNL     1      28.377  -3.197  53.066  1.00  0.00     0.078 N 
HETATM   25  H1  UNL     1      27.945  -4.110  53.379  1.00  0.00     0.312 HD
HETATM   26  H2  UNL     1      28.936  -3.468  52.203  1.00  0.00     0.312 HD
ENDBRANCH  23  24
ENDBRANCH  22  23
ENDBRANCH  21  22
ENDBRANCH   1  21
TORSDOF 4
ENDMDL
MODEL 3
REMARK VINA RESULT:      -7.5      2.899      5.846
REMARK  4 active torsions:
REMARK  status: ('A' for Active; 'I' for Inactive)
REMARK    1  A    between atoms: N1_1  and  C1_2 
REMARK    2  A    between atoms: C1_2  and  C2_3 
REMARK    3  A    between atoms: C2_3  and  C3_4 
REMARK    4  A    between atoms: C3_4  and  N2_5 
ROOT
HETATM    1  N2  UNL     1      22.630   3.030  50.132  1.00  0.00     0.029 N 
HETATM    2  C4  UNL     1      21.997   1.718  50.226  1.00  0.00     0.283 C 
HETATM    3  C5  UNL     1      22.524   0.932  51.395  1.00  0.00     0.003 C 
HETATM    4  C6  UNL     1      22.262   0.233  52.485  1.00  0.00     0.018 C 
HETATM    5  C7  UNL     1      22.623  -0.536  53.662  1.00  0.00     0.020 C 
HETATM    6 CL1  UNL     1      21.178  -1.152  54.513  1.00  0.00    -0.088 Cl
HETATM    7  C8  UNL     1      23.928  -0.504  53.681  1.00  0.00     0.067 C 
HETATM    8  C9  UNL     1      25.065  -0.988  54.450  1.00  0.00     0.009 C 
HETATM    9  C10 UNL     1      26.240  -0.544  53.945  1.00  0.00     0.041 C 
HETATM   10 CL2  UNL     1      27.958  -0.350  53.825  1.00  0.00    -0.084 Cl
HETATM   11  C11 UNL     1      26.182   0.517  52.900  1.00  0.00    -0.015 A 
HETATM   12  C12 UNL     1      25.599   1.529  53.664  1.00  0.00     0.015 A 
HETATM   13  C13 UNL     1      25.169   2.814  53.461  1.00  0.00     0.024 A 
HETATM   14  C14 UNL     1      25.442   3.003  52.151  1.00  0.00     0.011 A 
HETATM   15  C15 UNL     1      26.016   2.107  51.287  1.00  0.00     0.024 A 
HETATM   16  C16 UNL     1      26.416   0.837  51.584  1.00  0.00     0.015 A 
HETATM   17  N3  UNL     1      25.087   4.079  51.267  1.00  0.00    -0.244 NA
HETATM   18  C17 UNL     1      23.855   3.597  50.666  1.00  0.00     0.334 A 
HETATM   19  S1  UNL     1      23.076   3.007  52.038  1.00  0.00     0.120 SA
HETATM   20  H19 UNL     1      24.667   4.723  50.590  1.00  0.00     0.131 HD
ENDROOT
BRANCH   1  21
HETATM   21  C3  UNL     1      21.965   3.825  49.145  1.00  0.00     0.258 C 
BRANCH  21  22
HETATM   22  C2  UNL     1      22.111   5.317  49.320  1.00  0.00     0.059 C 
BRANCH  22  23
HETATM   23  C1  UNL     1      21.066   5.833  50.326  1.00  0.00     0.268 C 
BRANCH  23  24
HETATM   24  N1  UNL     1      21.798   6.595  51.342  1.00  0.00     0.078 N 
HETATM   25  H1  UNL     1      21.853   5.977  52.199  1.00  0.00     0.312 HD
HETATM   26  H2  UNL     1      22.813   6.698  51.044  1.00  0.00     0.312 HD
ENDBRANCH  23  24
ENDBRANCH  22  23
ENDBRANCH  21  22
ENDBRANCH   1  21
TORSDOF 4
ENDMDL
MODEL 4
REMARK VINA RESULT:      -7.4      3.564      5.436
REMARK  4 active torsions:
REMARK  status: ('A' for Active; 'I' for Inactive)
REMARK    1  A    between atoms: N1_1  and  C1_2 
REMARK    2  A    between atoms: C1_2  and  C2_3 
REMARK    3  A    between atoms: C2_3  and  C3_4 
REMARK    4  A    between atoms: C3_4  and  N2_5 
ROOT
HETATM    1  N2  UNL     1      23.331   4.375  50.739  1.00  0.00     0.029 N 
HETATM    2  C4  UNL     1      24.077   4.110  51.965  1.00  0.00     0.283 C 
HETATM    3  C5  UNL     1      23.823   2.719  52.477  1.00  0.00     0.003 C 
HETATM    4  C6  UNL     1      24.323   1.568  52.891  1.00  0.00     0.018 C 
HETATM    5  C7  UNL     1      24.232   0.205  53.378  1.00  0.00     0.020 C 
HETATM    6 CL1  UNL     1      25.847  -0.482  53.717  1.00  0.00    -0.088 Cl
HETATM    7  C8  UNL     1      22.951  -0.047  53.398  1.00  0.00     0.067 C 
HETATM    8  C9  UNL     1      22.005  -1.100  53.736  1.00  0.00     0.009 C 
HETATM    9  C10 UNL     1      20.729  -0.735  53.471  1.00  0.00     0.041 C 
HETATM   10 CL2  UNL     1      19.005  -0.892  53.383  1.00  0.00    -0.084 Cl
HETATM   11  C11 UNL     1      20.520   0.513  52.681  1.00  0.00    -0.015 A 
HETATM   12  C12 UNL     1      21.139   0.113  51.496  1.00  0.00     0.015 A 
HETATM   13  C13 UNL     1      21.420   0.673  50.277  1.00  0.00     0.024 A 
HETATM   14  C14 UNL     1      20.914   1.918  50.410  1.00  0.00     0.011 A 
HETATM   15  C15 UNL     1      20.279   2.441  51.507  1.00  0.00     0.024 A 
HETATM   16  C16 UNL     1      20.042   1.801  52.688  1.00  0.00     0.015 A 
HETATM   17  N3  UNL     1      21.024   3.069  49.557  1.00  0.00    -0.244 NA
HETATM   18  C17 UNL     1      22.171   3.764  50.114  1.00  0.00     0.334 A 
HETATM   19  S1  UNL     1      23.218   2.463  50.334  1.00  0.00     0.120 SA
HETATM   20  H19 UNL     1      21.268   3.938  49.072  1.00  0.00     0.131 HD
ENDROOT
BRANCH   1  21
HETATM   21  C3  UNL     1      23.751   5.619  50.169  1.00  0.00     0.258 C 
BRANCH  21  22
HETATM   22  C2  UNL     1      24.232   6.649  51.162  1.00  0.00     0.059 C 
BRANCH  22  23
HETATM   23  C1  UNL     1      24.909   7.817  50.420  1.00  0.00     0.268 C 
BRANCH  23  24
HETATM   24  N1  UNL     1      26.332   7.769  50.768  1.00  0.00     0.078 N 
HETATM   25  H1  UNL     1      26.590   8.737  51.111  1.00  0.00     0.312 HD
HETATM   26  H2  UNL     1      26.468   7.157  51.626  1.00  0.00     0.312 HD
ENDBRANCH  23  24
ENDBRANCH  22  23
ENDBRANCH  21  22
ENDBRANCH   1  21
TORSDOF 4
ENDMDL
MODEL 5
REMARK VINA RESULT:      -7.2      3.768      6.256
REMARK  4 active torsions:
REMARK  status: ('A' for Active; 'I' for Inactive)
REMARK    1  A    between atoms: N1_1  and  C1_2 
REMARK    2  A    between atoms: C1_2  and  C2_3 
REMARK    3  A    between atoms: C2_3  and  C3_4 
REMARK    4  A    between atoms: C3_4  and  N2_5 
ROOT
HETATM    1  N2  UNL     1      21.983   4.574  50.612  1.00  0.00     0.029 N 
HETATM    2  C4  UNL     1      23.210   4.621  51.402  1.00  0.00     0.283 C 
HETATM    3  C5  UNL     1      23.616   3.253  51.874  1.00  0.00     0.003 C 
HETATM    4  C6  UNL     1      24.560   2.333  51.965  1.00  0.00     0.018 C 
HETATM    5  C7  UNL     1      25.088   1.037  52.351  1.00  0.00     0.020 C 
HETATM    6 CL1  UNL     1      26.823   0.889  51.948  1.00  0.00    -0.088 Cl
HETATM    7  C8  UNL     1      24.068   0.416  52.877  1.00  0.00     0.067 C 
HETATM    8  C9  UNL     1      23.706  -0.850  53.499  1.00  0.00     0.009 C 
HETATM    9  C10 UNL     1      22.390  -0.900  53.808  1.00  0.00     0.041 C 
HETATM   10 CL2  UNL     1      20.915  -1.572  54.425  1.00  0.00    -0.084 Cl
HETATM   11  C11 UNL     1      21.513   0.176  53.263  1.00  0.00    -0.015 A 
HETATM   12  C12 UNL     1      21.677  -0.093  51.903  1.00  0.00     0.015 A 
HETATM   13  C13 UNL     1      21.250   0.448  50.719  1.00  0.00     0.024 A 
HETATM   14  C14 UNL     1      20.498   1.490  51.135  1.00  0.00     0.011 A 
HETATM   15  C15 UNL     1      20.247   1.866  52.429  1.00  0.00     0.024 A 
HETATM   16  C16 UNL     1      20.720   1.259  53.556  1.00  0.00     0.015 A 
HETATM   17  N3  UNL     1      19.898   2.566  50.394  1.00  0.00    -0.244 NA
HETATM   18  C17 UNL     1      20.909   3.606  50.478  1.00  0.00     0.334 A 
HETATM   19  S1  UNL     1      22.289   2.694  50.157  1.00  0.00     0.120 SA
HETATM   20  H19 UNL     1      19.650   3.436  49.913  1.00  0.00     0.131 HD
ENDROOT
BRANCH   1  21
HETATM   21  C3  UNL     1      21.739   5.848  50.008  1.00  0.00     0.258 C 
BRANCH  21  22
HETATM   22  C2  UNL     1      21.979   7.039  50.905  1.00  0.00     0.059 C 
BRANCH  22  23
HETATM   23  C1  UNL     1      23.089   7.927  50.312  1.00  0.00     0.268 C 
BRANCH  23  24
HETATM   24  N1  UNL     1      24.154   7.999  51.316  1.00  0.00     0.078 N 
HETATM   25  H1  UNL     1      24.032   7.155  51.943  1.00  0.00     0.312 HD
HETATM   26  H2  UNL     1      25.094   7.828  50.850  1.00  0.00     0.312 HD
ENDBRANCH  23  24
ENDBRANCH  22  23
ENDBRANCH  21  22
ENDBRANCH   1  21
TORSDOF 4
ENDMDL
MODEL 6
REMARK VINA RESULT:      -7.2      4.041      6.255
REMARK  4 active torsions:
REMARK  status: ('A' for Active; 'I' for Inactive)
REMARK    1  A    between atoms: N1_1  and  C1_2 
REMARK    2  A    between atoms: C1_2  and  C2_3 
REMARK    3  A    between atoms: C2_3  and  C3_4 
REMARK    4  A    between atoms: C3_4  and  N2_5 
ROOT
HETATM    1  N2  UNL     1      24.826   6.341  50.402  1.00  0.00     0.029 N 
HETATM    2  C4  UNL     1      24.935   5.697  49.096  1.00  0.00     0.283 C 
HETATM    3  C5  UNL     1      23.929   4.590  48.941  1.00  0.00     0.003 C 
HETATM    4  C6  UNL     1      22.965   4.046  48.220  1.00  0.00     0.018 C 
HETATM    5  C7  UNL     1      21.944   3.052  47.942  1.00  0.00     0.020 C 
HETATM    6 CL1  UNL     1      21.168   3.333  46.357  1.00  0.00    -0.088 Cl
HETATM    7  C8  UNL     1      21.956   2.275  48.990  1.00  0.00     0.067 C 
HETATM    8  C9  UNL     1      21.310   1.087  49.531  1.00  0.00     0.009 C 
HETATM    9  C10 UNL     1      21.765   0.788  50.770  1.00  0.00     0.041 C 
HETATM   10 CL2  UNL     1      21.899  -0.097  52.255  1.00  0.00    -0.084 Cl
HETATM   11  C11 UNL     1      22.616   1.802  51.455  1.00  0.00    -0.015 A 
HETATM   12  C12 UNL     1      21.678   2.831  51.547  1.00  0.00     0.015 A 
HETATM   13  C13 UNL     1      21.651   4.122  52.006  1.00  0.00     0.024 A 
HETATM   14  C14 UNL     1      22.918   4.297  52.443  1.00  0.00     0.011 A 
HETATM   15  C15 UNL     1      23.935   3.378  52.421  1.00  0.00     0.024 A 
HETATM   16  C16 UNL     1      23.866   2.103  51.940  1.00  0.00     0.015 A 
HETATM   17  N3  UNL     1      23.599   5.481  52.888  1.00  0.00    -0.244 NA
HETATM   18  C17 UNL     1      24.238   5.951  51.671  1.00  0.00     0.334 A 
HETATM   19  S1  UNL     1      22.963   5.767  50.585  1.00  0.00     0.120 SA
HETATM   20  H19 UNL     1      24.147   6.339  53.002  1.00  0.00     0.131 HD
ENDROOT
BRANCH   1  21
HETATM   21  C3  UNL     1      25.646   7.513  50.440  1.00  0.00     0.258 C 
BRANCH  21  22
HETATM   22  C2  UNL     1      26.605   7.662  49.283  1.00  0.00     0.059 C 
BRANCH  22  23
HETATM   23  C1  UNL     1      27.412   8.965  49.435  1.00  0.00     0.268 C 
BRANCH  23  24
HETATM   24  N1  UNL     1      27.583   9.191  50.873  1.00  0.00     0.078 N 
HETATM   25  H1  UNL     1      26.629   9.064  51.312  1.00  0.00     0.312 HD
HETATM   26  H2  UNL     1      28.156   8.399  51.291  1.00  0.00     0.312 HD
ENDBRANCH  23  24
ENDBRANCH  22  23
ENDBRANCH  21  22
ENDBRANCH   1  21
TORSDOF 4
ENDMDL
MODEL 7
REMARK VINA RESULT:      -6.8      4.563      8.170
REMARK  4 active torsions:
REMARK  status: ('A' for Active; 'I' for Inactive)
REMARK    1  A    between atoms: N1_1  and  C1_2 
REMARK    2  A    between atoms: C1_2  and  C2_3 
REMARK    3  A    between atoms: C2_3  and  C3_4 
REMARK    4  A    between atoms: C3_4  and  N2_5 
ROOT
HETATM    1  N2  UNL     1      17.917   2.799  51.173  1.00  0.00     0.029 N 
HETATM    2  C4  UNL     1      18.599   3.992  51.665  1.00  0.00     0.283 C 
HETATM    3  C5  UNL     1      20.077   3.761  51.816  1.00  0.00     0.003 C 
HETATM    4  C6  UNL     1      21.307   4.162  51.548  1.00  0.00     0.018 C 
HETATM    5  C7  UNL     1      22.754   4.061  51.599  1.00  0.00     0.020 C 
HETATM    6 CL1  UNL     1      23.539   5.453  50.799  1.00  0.00    -0.088 Cl
HETATM    7  C8  UNL     1      22.978   2.944  52.237  1.00  0.00     0.067 C 
HETATM    8  C9  UNL     1      24.069   2.110  52.720  1.00  0.00     0.009 C 
HETATM    9  C10 UNL     1      23.616   0.977  53.304  1.00  0.00     0.041 C 
HETATM   10 CL2  UNL     1      23.708  -0.548  54.124  1.00  0.00    -0.084 Cl
HETATM   11  C11 UNL     1      22.170   0.651  53.144  1.00  0.00    -0.015 A 
HETATM   12  C12 UNL     1      22.146   0.494  51.757  1.00  0.00     0.015 A 
HETATM   13  C13 UNL     1      21.205   0.226  50.798  1.00  0.00     0.024 A 
HETATM   14  C14 UNL     1      20.074   0.115  51.529  1.00  0.00     0.011 A 
HETATM   15  C15 UNL     1      19.952   0.238  52.889  1.00  0.00     0.024 A 
HETATM   16  C16 UNL     1      20.957   0.507  53.772  1.00  0.00     0.015 A 
HETATM   17  N3  UNL     1      18.701   0.005  51.118  1.00  0.00    -0.244 NA
HETATM   18  C17 UNL     1      18.258   1.388  51.134  1.00  0.00     0.334 A 
HETATM   19  S1  UNL     1      19.571   2.121  50.374  1.00  0.00     0.120 SA
HETATM   20  H19 UNL     1      17.722   0.138  50.847  1.00  0.00     0.131 HD
ENDROOT
BRANCH   1  21
HETATM   21  C3  UNL     1      16.559   3.111  50.845  1.00  0.00     0.258 C 
BRANCH  21  22
HETATM   22  C2  UNL     1      15.920   4.173  51.706  1.00  0.00     0.059 C 
BRANCH  22  23
HETATM   23  C1  UNL     1      15.057   3.514  52.799  1.00  0.00     0.268 C 
BRANCH  23  24
HETATM   24  N1  UNL     1      14.981   4.468  53.909  1.00  0.00     0.078 N 
HETATM   25  H1  UNL     1      14.002   4.390  54.305  1.00  0.00     0.312 HD
HETATM   26  H2  UNL     1      15.599   4.134  54.707  1.00  0.00     0.312 HD
ENDBRANCH  23  24
ENDBRANCH  22  23
ENDBRANCH  21  22
ENDBRANCH   1  21
TORSDOF 4
ENDMDL
MODEL 8
REMARK VINA RESULT:      -6.8      3.516      6.454
REMARK  4 active torsions:
REMARK  status: ('A' for Active; 'I' for Inactive)
REMARK    1  A    between atoms: N1_1  and  C1_2 
REMARK    2  A    between atoms: C1_2  and  C2_3 
REMARK    3  A    between atoms: C2_3  and  C3_4 
REMARK    4  A    between atoms: C3_4  and  N2_5 
ROOT
HETATM    1  N2  UNL     1      20.512   2.356  50.476  1.00  0.00     0.029 N 
HETATM    2  C4  UNL     1      20.614   0.918  50.702  1.00  0.00     0.283 C 
HETATM    3  C5  UNL     1      21.723   0.586  51.662  1.00  0.00     0.003 C 
HETATM    4  C6  UNL     1      22.102  -0.039  52.762  1.00  0.00     0.018 C 
HETATM    5  C7  UNL     1      23.064  -0.432  53.776  1.00  0.00     0.020 C 
HETATM    6 CL1  UNL     1      22.343  -1.550  54.969  1.00  0.00    -0.088 Cl
HETATM    7  C8  UNL     1      24.159   0.196  53.442  1.00  0.00     0.067 C 
HETATM    8  C9  UNL     1      25.542   0.368  53.862  1.00  0.00     0.009 C 
HETATM    9  C10 UNL     1      26.202   1.246  53.071  1.00  0.00     0.041 C 
HETATM   10 CL2  UNL     1      27.536   2.192  52.496  1.00  0.00    -0.084 Cl
HETATM   11  C11 UNL     1      25.393   2.050  52.110  1.00  0.00    -0.015 A 
HETATM   12  C12 UNL     1      24.617   2.754  53.032  1.00  0.00     0.015 A 
HETATM   13  C13 UNL     1      23.600   3.672  52.988  1.00  0.00     0.024 A 
HETATM   14  C14 UNL     1      23.413   3.829  51.659  1.00  0.00     0.011 A 
HETATM   15  C15 UNL     1      24.102   3.211  50.648  1.00  0.00     0.024 A 
HETATM   16  C16 UNL     1      25.110   2.303  50.790  1.00  0.00     0.015 A 
HETATM   17  N3  UNL     1      22.386   4.525  50.934  1.00  0.00    -0.244 NA
HETATM   18  C17 UNL     1      21.418   3.473  50.676  1.00  0.00     0.334 A 
HETATM   19  S1  UNL     1      21.379   2.737  52.190  1.00  0.00     0.120 SA
HETATM   20  H19 UNL     1      21.558   4.831  50.414  1.00  0.00     0.131 HD
ENDROOT
BRANCH   1  21
HETATM   21  C3  UNL     1      19.328   2.652  49.729  1.00  0.00     0.258 C 
BRANCH  21  22
HETATM   22  C2  UNL     1      18.030   2.401  50.458  1.00  0.00     0.059 C 
BRANCH  22  23
HETATM   23  C1  UNL     1      17.673   3.619  51.330  1.00  0.00     0.268 C 
BRANCH  23  24
HETATM   24  N1  UNL     1      17.489   4.752  50.418  1.00  0.00     0.078 N 
HETATM   25  H1  UNL     1      16.558   5.189  50.666  1.00  0.00     0.312 HD
HETATM   26  H2  UNL     1      18.192   5.514  50.653  1.00  0.00     0.312 HD
ENDBRANCH  23  24
ENDBRANCH  22  23
ENDBRANCH  21  22
ENDBRANCH   1  21
TORSDOF 4
ENDMDL
MODEL 9
REMARK VINA RESULT:      -6.8      3.906      5.861
REMARK  4 active torsions:
REMARK  status: ('A' for Active; 'I' for Inactive)
REMARK    1  A    between atoms: N1_1  and  C1_2 
REMARK    2  A    between atoms: C1_2  and  C2_3 
REMARK    3  A    between atoms: C2_3  and  C3_4 
REMARK    4  A    between atoms: C3_4  and  N2_5 
ROOT
HETATM    1  N2  UNL     1      23.151   0.957  52.178  1.00  0.00     0.029 N 
HETATM    2  C4  UNL     1      24.356   1.761  51.998  1.00  0.00     0.283 C 
HETATM    3  C5  UNL     1      24.115   2.920  51.070  1.00  0.00     0.003 C 
HETATM    4  C6  UNL     1      24.200   4.221  50.857  1.00  0.00     0.018 C 
HETATM    5  C7  UNL     1      24.017   5.431  50.077  1.00  0.00     0.020 C 
HETATM    6 CL1  UNL     1      24.684   6.861  50.916  1.00  0.00    -0.088 Cl
HETATM    7  C8  UNL     1      23.405   5.029  48.996  1.00  0.00     0.067 C 
HETATM    8  C9  UNL     1      22.872   5.534  47.739  1.00  0.00     0.009 C 
HETATM    9  C10 UNL     1      22.276   4.556  47.017  1.00  0.00     0.041 C 
HETATM   10 CL2  UNL     1      21.432   3.840  45.683  1.00  0.00    -0.084 Cl
HETATM   11  C11 UNL     1      22.042   3.247  47.692  1.00  0.00    -0.015 A 
HETATM   12  C12 UNL     1      21.166   3.682  48.687  1.00  0.00     0.015 A 
HETATM   13  C13 UNL     1      20.506   3.125  49.752  1.00  0.00     0.024 A 
HETATM   14  C14 UNL     1      20.906   1.835  49.693  1.00  0.00     0.011 A 
HETATM   15  C15 UNL     1      21.752   1.272  48.773  1.00  0.00     0.024 A 
HETATM   16  C16 UNL     1      22.366   1.913  47.737  1.00  0.00     0.015 A 
HETATM   17  N3  UNL     1      20.712   0.753  50.618  1.00  0.00    -0.244 NA
HETATM   18  C17 UNL     1      21.918   0.811  51.425  1.00  0.00     0.334 A 
HETATM   19  S1  UNL     1      22.009   2.471  51.691  1.00  0.00     0.120 SA
HETATM   20  H19 UNL     1      20.762   0.041  51.353  1.00  0.00     0.131 HD
ENDROOT
BRANCH   1  21
HETATM   21  C3  UNL     1      23.354  -0.005  53.217  1.00  0.00     0.258 C 
BRANCH  21  22
HETATM   22  C2  UNL     1      22.242  -1.012  53.384  1.00  0.00     0.059 C 
BRANCH  22  23
HETATM   23  C1  UNL     1      21.642  -0.902  54.798  1.00  0.00     0.268 C 
BRANCH  23  24
HETATM   24  N1  UNL     1      20.627   0.154  54.745  1.00  0.00     0.078 N 
HETATM   25  H1  UNL     1      20.187   0.099  53.785  1.00  0.00     0.312 HD
HETATM   26  H2  UNL     1      19.826  -0.091  55.400  1.00  0.00     0.312 HD
ENDBRANCH  23  24
ENDBRANCH  22  23
ENDBRANCH  21  22
ENDBRANCH   1  21
TORSDOF 4
ENDMDL
