MODEL 1
REMARK VINA RESULT:      -7.6      0.000      0.000
REMARK  2 active torsions:
REMARK  status: ('A' for Active; 'I' for Inactive)
REMARK    1  A    between atoms: N1_1  and  C1_2 
REMARK    2  A    between atoms: C12_17  and  C13_18 
ROOT
HETATM    1  C1  UNL     1      23.857   3.752  52.176  1.00  0.00     0.038 A 
HETATM    2  C2  UNL     1      23.362   5.076  52.493  1.00  0.00     0.012 A 
HETATM    3  C3  UNL     1      22.644   5.822  51.218  1.00  0.00     0.114 A 
HETATM    4  C4  UNL     1      22.883   4.832  50.284  1.00  0.00    -0.144 A 
HETATM    5  C5  UNL     1      23.077   4.060  49.584  1.00  0.00    -0.009 A 
HETATM    6  C6  UNL     1      23.331   3.079  48.729  1.00  0.00     0.003 A 
HETATM    7  C7  UNL     1      23.844   2.528  49.936  1.00  0.00     0.093 A 
HETATM    8  C8  UNL     1      24.180   2.495  51.403  1.00  0.00     0.141 A 
HETATM    9  O1  UNL     1      25.585   2.390  51.457  1.00  0.00    -0.325 OA
HETATM   10  C9  UNL     1      26.425   1.577  52.135  1.00  0.00     0.357 A 
HETATM   11  C10 UNL     1      27.720   1.015  52.512  1.00  0.00     0.372 A 
HETATM   12  S1  UNL     1      26.759  -0.160  53.773  1.00  0.00     0.104 SA
HETATM   13  C11 UNL     1      25.072   0.411  53.433  1.00  0.00     0.279 A 
HETATM   14  N2  UNL     1      26.396   0.632  53.051  1.00  0.00     0.095 N 
HETATM   15  N3  UNL     1      23.698   0.814  53.217  1.00  0.00    -0.351 N 
HETATM   16  C12 UNL     1      23.401   1.328  51.921  1.00  0.00     0.159 C 
HETATM   17  H9  UNL     1      23.635   0.503  54.171  1.00  0.00     0.162 HD
ENDROOT
BRANCH   1  18
HETATM   18  N1  UNL     1      24.452   3.290  53.460  1.00  0.00    -0.400 N 
HETATM   19  H1  UNL     1      24.157   2.640  54.248  1.00  0.00     0.156 HD
HETATM   20  H2  UNL     1      25.383   3.597  53.814  1.00  0.00     0.156 HD
ENDBRANCH   1  18
BRANCH  16  21
HETATM   21  C13 UNL     1      21.946   1.498  51.767  1.00  0.00    -0.032 A 
HETATM   22  C14 UNL     1      21.192   2.349  52.554  1.00  0.00     0.011 A 
HETATM   23  C15 UNL     1      19.856   2.361  52.232  1.00  0.00     0.024 A 
HETATM   24  C16 UNL     1      19.286   1.615  51.233  1.00  0.00     0.034 A 
HETATM   25 CL1  UNL     1      17.572   1.752  50.959  1.00  0.00    -0.084 Cl
HETATM   26  C17 UNL     1      20.066   0.776  50.468  1.00  0.00     0.024 A 
HETATM   27  C18 UNL     1      21.413   0.718  50.739  1.00  0.00     0.011 A 
ENDBRANCH  16  21
TORSDOF 2
ENDMDL
MODEL 2
REMARK VINA RESULT:      -7.3      3.383      5.336
REMARK  2 active torsions:
REMARK  status: ('A' for Active; 'I' for Inactive)
REMARK    1  A    between atoms: N1_1  and  C1_2 
REMARK    2  A    between atoms: C12_17  and  C13_18 
ROOT
HETATM    1  C1  UNL     1      22.974   2.674  50.250  1.00  0.00     0.038 A 
HETATM    2  C2  UNL     1      23.787   2.926  49.079  1.00  0.00     0.012 A 
HETATM    3  C3  UNL     1      24.719   4.271  49.213  1.00  0.00     0.114 A 
HETATM    4  C4  UNL     1      24.261   4.673  50.454  1.00  0.00    -0.144 A 
HETATM    5  C5  UNL     1      23.895   4.962  51.405  1.00  0.00    -0.009 A 
HETATM    6  C6  UNL     1      23.422   5.302  52.597  1.00  0.00     0.003 A 
HETATM    7  C7  UNL     1      22.741   4.073  52.373  1.00  0.00     0.093 A 
HETATM    8  C8  UNL     1      22.358   2.826  51.622  1.00  0.00     0.141 A 
HETATM    9  O1  UNL     1      20.974   2.950  51.384  1.00  0.00    -0.325 OA
HETATM   10  C9  UNL     1      19.927   2.114  51.567  1.00  0.00     0.357 A 
HETATM   11  C10 UNL     1      18.518   1.728  51.585  1.00  0.00     0.372 A 
HETATM   12  S1  UNL     1      19.093  -0.062  52.181  1.00  0.00     0.104 SA
HETATM   13  C11 UNL     1      20.882   0.233  52.222  1.00  0.00     0.279 A 
HETATM   14  N2  UNL     1      19.675   0.876  51.934  1.00  0.00     0.095 N 
HETATM   15  N3  UNL     1      22.319   0.394  52.278  1.00  0.00    -0.351 N 
HETATM   16  C12 UNL     1      22.785   1.717  52.529  1.00  0.00     0.159 C 
HETATM   17  H9  UNL     1      22.266  -0.594  52.095  1.00  0.00     0.162 HD
ENDROOT
BRANCH   1  18
HETATM   18  N1  UNL     1      22.234   1.431  49.896  1.00  0.00    -0.400 N 
HETATM   19  H1  UNL     1      22.071   0.868  49.009  1.00  0.00     0.156 HD
HETATM   20  H2  UNL     1      21.689   0.863  50.579  1.00  0.00     0.156 HD
ENDBRANCH   1  18
BRANCH  16  21
HETATM   21  C13 UNL     1      24.238   1.703  52.771  1.00  0.00    -0.032 A 
HETATM   22  C14 UNL     1      24.853   2.453  53.757  1.00  0.00     0.011 A 
HETATM   23  C15 UNL     1      26.215   2.281  53.815  1.00  0.00     0.024 A 
HETATM   24  C16 UNL     1      26.933   1.455  52.991  1.00  0.00     0.034 A 
HETATM   25 CL1  UNL     1      28.659   1.355  53.202  1.00  0.00    -0.084 Cl
HETATM   26  C17 UNL     1      26.291   0.721  52.018  1.00  0.00     0.024 A 
HETATM   27  C18 UNL     1      24.925   0.848  51.908  1.00  0.00     0.011 A 
ENDBRANCH  16  21
TORSDOF 2
ENDMDL
MODEL 3
REMARK VINA RESULT:      -7.2      3.664      5.328
REMARK  2 active torsions:
REMARK  status: ('A' for Active; 'I' for Inactive)
REMARK    1  A    between atoms: N1_1  and  C1_2 
REMARK    2  A    between atoms: C12_17  and  C13_18 
ROOT
HETATM    1  C1  UNL     1      22.656   4.772  51.049  1.00  0.00     0.038 A 
HETATM    2  C2  UNL     1      21.682   4.811  52.120  1.00  0.00     0.012 A 
HETATM    3  C3  UNL     1      20.808   3.427  52.252  1.00  0.00     0.114 A 
HETATM    4  C4  UNL     1      21.360   2.772  51.167  1.00  0.00    -0.144 A 
HETATM    5  C5  UNL     1      21.797   2.289  50.331  1.00  0.00    -0.009 A 
HETATM    6  C6  UNL     1      22.360   1.706  49.281  1.00  0.00     0.003 A 
HETATM    7  C7  UNL     1      23.091   2.926  49.341  1.00  0.00     0.093 A 
HETATM    8  C8  UNL     1      23.478   4.276  49.882  1.00  0.00     0.141 A 
HETATM    9  O1  UNL     1      23.204   5.183  48.838  1.00  0.00    -0.325 OA
HETATM   10  C9  UNL     1      23.923   6.174  48.263  1.00  0.00     0.357 A 
HETATM   11  C10 UNL     1      24.196   7.230  47.291  1.00  0.00     0.372 A 
HETATM   12  S1  UNL     1      25.915   7.528  48.210  1.00  0.00     0.104 SA
HETATM   13  C11 UNL     1      25.754   6.258  49.494  1.00  0.00     0.279 A 
HETATM   14  N2  UNL     1      25.072   6.799  48.402  1.00  0.00     0.095 N 
HETATM   15  N3  UNL     1      25.697   5.266  50.547  1.00  0.00    -0.351 N 
HETATM   16  C12 UNL     1      24.913   4.109  50.265  1.00  0.00     0.159 C 
HETATM   17  H9  UNL     1      26.290   5.948  50.989  1.00  0.00     0.162 HD
ENDROOT
BRANCH   1  18
HETATM   18  N1  UNL     1      23.307   6.109  51.127  1.00  0.00    -0.400 N 
HETATM   19  H1  UNL     1      22.979   7.120  51.103  1.00  0.00     0.156 HD
HETATM   20  H2  UNL     1      24.335   6.252  51.225  1.00  0.00     0.156 HD
ENDBRANCH   1  18
BRANCH  16  21
HETATM   21  C13 UNL     1      25.110   3.098  51.318  1.00  0.00    -0.032 A 
HETATM   22  C14 UNL     1      24.574   3.207  52.588  1.00  0.00     0.011 A 
HETATM   23  C15 UNL     1      24.874   2.145  53.408  1.00  0.00     0.024 A 
HETATM   24  C16 UNL     1      25.629   1.062  53.039  1.00  0.00     0.034 A 
HETATM   25 CL1  UNL     1      25.911  -0.198  54.206  1.00  0.00    -0.084 Cl
HETATM   26  C17 UNL     1      26.149   0.984  51.766  1.00  0.00     0.024 A 
HETATM   27  C18 UNL     1      25.885   2.016  50.895  1.00  0.00     0.011 A 
ENDBRANCH  16  21
TORSDOF 2
ENDMDL
MODEL 4
REMARK VINA RESULT:      -6.9      2.629      3.320
REMARK  2 active torsions:
REMARK  status: ('A' for Active; 'I' for Inactive)
REMARK    1  A    between atoms: N1_1  and  C1_2 
REMARK    2  A    between atoms: C12_17  and  C13_18 
ROOT
HETATM    1  C1  UNL     1      23.063   3.784  51.790  1.00  0.00     0.038 A 
HETATM    2  C2  UNL     1      22.803   5.172  52.112  1.00  0.00     0.012 A 
HETATM    3  C3  UNL     1      23.721   6.221  51.245  1.00  0.00     0.114 A 
HETATM    4  C4  UNL     1      24.462   5.275  50.562  1.00  0.00    -0.144 A 
HETATM    5  C5  UNL     1      25.018   4.533  50.049  1.00  0.00    -0.009 A 
HETATM    6  C6  UNL     1      25.700   3.585  49.420  1.00  0.00     0.003 A 
HETATM    7  C7  UNL     1      24.782   2.805  50.178  1.00  0.00     0.093 A 
HETATM    8  C8  UNL     1      23.653   2.554  51.141  1.00  0.00     0.141 A 
HETATM    9  O1  UNL     1      24.229   1.827  52.203  1.00  0.00    -0.325 OA
HETATM   10  C9  UNL     1      23.873   0.691  52.845  1.00  0.00     0.357 A 
HETATM   11  C10 UNL     1      24.034  -0.409  53.792  1.00  0.00     0.372 A 
HETATM   12  S1  UNL     1      22.283  -1.087  53.186  1.00  0.00     0.104 SA
HETATM   13  C11 UNL     1      21.912   0.196  51.960  1.00  0.00     0.279 A 
HETATM   14  N2  UNL     1      22.890  -0.183  52.881  1.00  0.00     0.095 N 
HETATM   15  N3  UNL     1      21.546   1.183  50.965  1.00  0.00    -0.351 N 
HETATM   16  C12 UNL     1      22.633   1.838  50.315  1.00  0.00     0.159 C 
HETATM   17  H9  UNL     1      20.630   0.888  51.256  1.00  0.00     0.162 HD
ENDROOT
BRANCH   1  18
HETATM   18  N1  UNL     1      22.132   3.043  52.686  1.00  0.00    -0.400 N 
HETATM   19  H1  UNL     1      21.264   3.282  53.251  1.00  0.00     0.156 HD
HETATM   20  H2  UNL     1      22.228   2.031  52.917  1.00  0.00     0.156 HD
ENDBRANCH   1  18
BRANCH  16  21
HETATM   21  C13 UNL     1      22.133   2.650  49.193  1.00  0.00    -0.032 A 
HETATM   22  C14 UNL     1      21.318   3.755  49.356  1.00  0.00     0.011 A 
HETATM   23  C15 UNL     1      20.979   4.372  48.176  1.00  0.00     0.024 A 
HETATM   24  C16 UNL     1      21.388   3.961  46.934  1.00  0.00     0.034 A 
HETATM   25 CL1  UNL     1      20.864   4.862  45.539  1.00  0.00    -0.084 Cl
HETATM   26  C17 UNL     1      22.200   2.856  46.805  1.00  0.00     0.024 A 
HETATM   27  C18 UNL     1      22.576   2.192  47.950  1.00  0.00     0.011 A 
ENDBRANCH  16  21
TORSDOF 2
ENDMDL
MODEL 5
REMARK VINA RESULT:      -6.8     10.225     11.587
REMARK  2 active torsions:
REMARK  status: ('A' for Active; 'I' for Inactive)
REMARK    1  A    between atoms: N1_1  and  C1_2 
REMARK    2  A    between atoms: C12_17  and  C13_18 
ROOT
HETATM    1  C1  UNL     1      33.707   8.193  46.727  1.00  0.00     0.038 A 
HETATM    2  C2  UNL     1      34.191   9.538  46.960  1.00  0.00     0.012 A 
HETATM    3  C3  UNL     1      33.307  10.688  46.191  1.00  0.00     0.114 A 
HETATM    4  C4  UNL     1      32.441   9.829  45.539  1.00  0.00    -0.144 A 
HETATM    5  C5  UNL     1      31.789   9.153  45.049  1.00  0.00    -0.009 A 
HETATM    6  C6  UNL     1      30.985   8.286  44.449  1.00  0.00     0.003 A 
HETATM    7  C7  UNL     1      31.786   7.414  45.238  1.00  0.00     0.093 A 
HETATM    8  C8  UNL     1      32.870   7.044  46.215  1.00  0.00     0.141 A 
HETATM    9  O1  UNL     1      33.768   6.242  45.484  1.00  0.00    -0.325 OA
HETATM   10  C9  UNL     1      34.344   5.042  45.727  1.00  0.00     0.357 A 
HETATM   11  C10 UNL     1      35.151   3.865  45.417  1.00  0.00     0.372 A 
HETATM   12  S1  UNL     1      34.735   3.196  47.225  1.00  0.00     0.104 SA
HETATM   13  C11 UNL     1      33.698   4.574  47.786  1.00  0.00     0.279 A 
HETATM   14  N2  UNL     1      34.434   4.141  46.681  1.00  0.00     0.095 N 
HETATM   15  N3  UNL     1      32.861   5.635  48.304  1.00  0.00    -0.351 N 
HETATM   16  C12 UNL     1      32.131   6.377  47.331  1.00  0.00     0.159 C 
HETATM   17  H9  UNL     1      33.248   5.289  49.166  1.00  0.00     0.162 HD
ENDROOT
BRANCH   1  18
HETATM   18  N1  UNL     1      34.650   7.347  47.510  1.00  0.00    -0.400 N 
HETATM   19  H1  UNL     1      34.669   6.340  47.850  1.00  0.00     0.156 HD
HETATM   20  H2  UNL     1      35.558   7.688  47.892  1.00  0.00     0.156 HD
ENDBRANCH   1  18
BRANCH  16  21
HETATM   21  C13 UNL     1      31.170   7.273  47.997  1.00  0.00    -0.032 A 
HETATM   22  C14 UNL     1      31.546   8.291  48.853  1.00  0.00     0.011 A 
HETATM   23  C15 UNL     1      30.489   9.012  49.355  1.00  0.00     0.024 A 
HETATM   24  C16 UNL     1      29.171   8.774  49.059  1.00  0.00     0.034 A 
HETATM   25 CL1  UNL     1      27.955   9.787  49.784  1.00  0.00    -0.084 Cl
HETATM   26  C17 UNL     1      28.830   7.752  48.202  1.00  0.00     0.024 A 
HETATM   27  C18 UNL     1      29.843   6.992  47.665  1.00  0.00     0.011 A 
ENDBRANCH  16  21
TORSDOF 2
ENDMDL
MODEL 6
REMARK VINA RESULT:      -6.8      9.760     11.404
REMARK  2 active torsions:
REMARK  status: ('A' for Active; 'I' for Inactive)
REMARK    1  A    between atoms: N1_1  and  C1_2 
REMARK    2  A    between atoms: C12_17  and  C13_18 
ROOT
HETATM    1  C1  UNL     1      31.357   7.293  45.798  1.00  0.00     0.038 A 
HETATM    2  C2  UNL     1      31.010   8.008  44.588  1.00  0.00     0.012 A 
HETATM    3  C3  UNL     1      29.468   8.573  44.588  1.00  0.00     0.114 A 
HETATM    4  C4  UNL     1      29.091   8.038  45.806  1.00  0.00    -0.144 A 
HETATM    5  C5  UNL     1      28.823   7.619  46.742  1.00  0.00    -0.009 A 
HETATM    6  C6  UNL     1      28.514   7.085  47.916  1.00  0.00     0.003 A 
HETATM    7  C7  UNL     1      29.889   6.733  47.810  1.00  0.00     0.093 A 
HETATM    8  C8  UNL     1      31.250   6.670  47.171  1.00  0.00     0.141 A 
HETATM    9  O1  UNL     1      31.496   5.298  46.963  1.00  0.00    -0.325 OA
HETATM   10  C9  UNL     1      32.549   4.496  47.243  1.00  0.00     0.357 A 
HETATM   11  C10 UNL     1      33.271   3.229  47.332  1.00  0.00     0.372 A 
HETATM   12  S1  UNL     1      34.805   4.240  48.051  1.00  0.00     0.104 SA
HETATM   13  C11 UNL     1      34.069   5.898  48.016  1.00  0.00     0.279 A 
HETATM   14  N2  UNL     1      33.775   4.566  47.714  1.00  0.00     0.095 N 
HETATM   15  N3  UNL     1      33.551   7.249  48.019  1.00  0.00    -0.351 N 
HETATM   16  C12 UNL     1      32.137   7.369  48.151  1.00  0.00     0.159 C 
HETATM   17  H9  UNL     1      34.532   7.445  47.916  1.00  0.00     0.162 HD
ENDROOT
BRANCH   1  18
HETATM   18  N1  UNL     1      32.771   6.887  45.565  1.00  0.00    -0.400 N 
HETATM   19  H1  UNL     1      33.355   6.018  45.746  1.00  0.00     0.156 HD
HETATM   20  H2  UNL     1      33.489   7.503  45.127  1.00  0.00     0.156 HD
ENDBRANCH   1  18
BRANCH  16  21
HETATM   21  C13 UNL     1      31.767   8.781  48.351  1.00  0.00    -0.032 A 
HETATM   22  C14 UNL     1      32.132   9.794  47.483  1.00  0.00     0.011 A 
HETATM   23  C15 UNL     1      31.672  11.034  47.855  1.00  0.00     0.024 A 
HETATM   24  C16 UNL     1      30.920  11.285  48.974  1.00  0.00     0.034 A 
HETATM   25 CL1  UNL     1      30.418  12.920  49.296  1.00  0.00    -0.084 Cl
HETATM   26  C17 UNL     1      30.573  10.253  49.818  1.00  0.00     0.024 A 
HETATM   27  C18 UNL     1      31.003   8.985  49.502  1.00  0.00     0.011 A 
ENDBRANCH  16  21
TORSDOF 2
ENDMDL
MODEL 7
REMARK VINA RESULT:      -6.8      2.780      3.708
REMARK  2 active torsions:
REMARK  status: ('A' for Active; 'I' for Inactive)
REMARK    1  A    between atoms: N1_1  and  C1_2 
REMARK    2  A    between atoms: C12_17  and  C13_18 
ROOT
HETATM    1  C1  UNL     1      23.294   3.017  51.169  1.00  0.00     0.038 A 
HETATM    2  C2  UNL     1      24.335   4.013  51.028  1.00  0.00     0.012 A 
HETATM    3  C3  UNL     1      24.670   4.384  49.463  1.00  0.00     0.114 A 
HETATM    4  C4  UNL     1      23.801   3.478  48.884  1.00  0.00    -0.144 A 
HETATM    5  C5  UNL     1      23.129   2.778  48.461  1.00  0.00    -0.009 A 
HETATM    6  C6  UNL     1      22.279   1.893  47.957  1.00  0.00     0.003 A 
HETATM    7  C7  UNL     1      22.039   1.738  49.351  1.00  0.00     0.093 A 
HETATM    8  C8  UNL     1      22.221   2.011  50.820  1.00  0.00     0.141 A 
HETATM    9  O1  UNL     1      22.677   0.795  51.367  1.00  0.00    -0.325 OA
HETATM   10  C9  UNL     1      22.294   0.064  52.439  1.00  0.00     0.357 A 
HETATM   11  C10 UNL     1      22.304  -1.088  53.338  1.00  0.00     0.372 A 
HETATM   12  S1  UNL     1      20.919  -0.173  54.404  1.00  0.00     0.104 SA
HETATM   13  C11 UNL     1      20.767   1.333  53.405  1.00  0.00     0.279 A 
HETATM   14  N2  UNL     1      21.465   0.125  53.459  1.00  0.00     0.095 N 
HETATM   15  N3  UNL     1      20.589   2.560  52.658  1.00  0.00    -0.351 N 
HETATM   16  C12 UNL     1      20.874   2.484  51.264  1.00  0.00     0.159 C 
HETATM   17  H9  UNL     1      20.332   2.882  53.576  1.00  0.00     0.162 HD
ENDROOT
BRANCH   1  18
HETATM   18  N1  UNL     1      23.173   2.852  52.644  1.00  0.00    -0.400 N 
HETATM   19  H1  UNL     1      23.832   2.608  53.441  1.00  0.00     0.156 HD
HETATM   20  H2  UNL     1      22.281   2.967  53.172  1.00  0.00     0.156 HD
ENDBRANCH   1  18
BRANCH  16  21
HETATM   21  C13 UNL     1      20.454   3.726  50.594  1.00  0.00    -0.032 A 
HETATM   22  C14 UNL     1      20.991   4.967  50.885  1.00  0.00     0.011 A 
HETATM   23  C15 UNL     1      20.462   5.989  50.134  1.00  0.00     0.024 A 
HETATM   24  C16 UNL     1      19.492   5.834  49.178  1.00  0.00     0.034 A 
HETATM   25 CL1  UNL     1      18.934   7.240  48.316  1.00  0.00    -0.084 Cl
HETATM   26  C17 UNL     1      18.978   4.585  48.912  1.00  0.00     0.024 A 
HETATM   27  C18 UNL     1      19.466   3.517  49.630  1.00  0.00     0.011 A 
ENDBRANCH  16  21
TORSDOF 2
ENDMDL
MODEL 8
REMARK VINA RESULT:      -6.6      3.681      5.662
REMARK  2 active torsions:
REMARK  status: ('A' for Active; 'I' for Inactive)
REMARK    1  A    between atoms: N1_1  and  C1_2 
REMARK    2  A    between atoms: C12_17  and  C13_18 
ROOT
HETATM    1  C1  UNL     1      22.878   4.319  49.089  1.00  0.00     0.038 A 
HETATM    2  C2  UNL     1      22.638   4.425  47.665  1.00  0.00     0.012 A 
HETATM    3  C3  UNL     1      22.014   5.877  47.219  1.00  0.00     0.114 A 
HETATM    4  C4  UNL     1      21.908   6.414  48.488  1.00  0.00    -0.144 A 
HETATM    5  C5  UNL     1      21.836   6.806  49.469  1.00  0.00    -0.009 A 
HETATM    6  C6  UNL     1      21.756   7.274  50.708  1.00  0.00     0.003 A 
HETATM    7  C7  UNL     1      22.369   6.010  50.932  1.00  0.00     0.093 A 
HETATM    8  C8  UNL     1      22.949   4.673  50.556  1.00  0.00     0.141 A 
HETATM    9  O1  UNL     1      22.129   3.722  51.197  1.00  0.00    -0.325 OA
HETATM   10  C9  UNL     1      22.394   2.644  51.969  1.00  0.00     0.357 A 
HETATM   11  C10 UNL     1      22.068   1.508  52.827  1.00  0.00     0.372 A 
HETATM   12  S1  UNL     1      24.002   1.142  52.952  1.00  0.00     0.104 SA
HETATM   13  C11 UNL     1      24.597   2.503  51.912  1.00  0.00     0.279 A 
HETATM   14  N2  UNL     1      23.418   1.944  52.409  1.00  0.00     0.095 N 
HETATM   15  N3  UNL     1      25.147   3.565  51.095  1.00  0.00    -0.351 N 
HETATM   16  C12 UNL     1      24.368   4.756  51.022  1.00  0.00     0.159 C 
HETATM   17  H9  UNL     1      25.866   2.871  50.977  1.00  0.00     0.162 HD
ENDROOT
BRANCH   1  18
HETATM   18  N1  UNL     1      23.429   2.945  49.244  1.00  0.00    -0.400 N 
HETATM   19  H1  UNL     1      23.969   2.265  48.630  1.00  0.00     0.156 HD
HETATM   20  H2  UNL     1      23.340   2.376  50.113  1.00  0.00     0.156 HD
ENDBRANCH   1  18
BRANCH  16  21
HETATM   21  C13 UNL     1      25.131   5.817  50.344  1.00  0.00    -0.032 A 
HETATM   22  C14 UNL     1      25.150   7.133  50.770  1.00  0.00     0.011 A 
HETATM   23  C15 UNL     1      25.936   7.954  49.997  1.00  0.00     0.024 A 
HETATM   24  C16 UNL     1      26.648   7.546  48.900  1.00  0.00     0.034 A 
HETATM   25 CL1  UNL     1      27.596   8.721  48.033  1.00  0.00    -0.084 Cl
HETATM   26  C17 UNL     1      26.608   6.228  48.501  1.00  0.00     0.024 A 
HETATM   27  C18 UNL     1      25.839   5.354  49.233  1.00  0.00     0.011 A 
ENDBRANCH  16  21
TORSDOF 2
ENDMDL
MODEL 9
REMARK VINA RESULT:      -6.6      1.946      3.594
REMARK  2 active torsions:
REMARK  status: ('A' for Active; 'I' for Inactive)
REMARK    1  A    between atoms: N1_1  and  C1_2 
REMARK    2  A    between atoms: C12_17  and  C13_18 
ROOT
HETATM    1  C1  UNL     1      22.806   1.861  52.285  1.00  0.00     0.038 A 
HETATM    2  C2  UNL     1      21.513   1.211  52.328  1.00  0.00     0.012 A 
HETATM    3  C3  UNL     1      20.256   2.267  52.307  1.00  0.00     0.114 A 
HETATM    4  C4  UNL     1      21.007   3.427  52.322  1.00  0.00    -0.144 A 
HETATM    5  C5  UNL     1      21.602   4.303  52.333  1.00  0.00    -0.009 A 
HETATM    6  C6  UNL     1      22.370   5.385  52.348  1.00  0.00     0.003 A 
HETATM    7  C7  UNL     1      23.350   4.355  52.286  1.00  0.00     0.093 A 
HETATM    8  C8  UNL     1      23.862   2.941  52.225  1.00  0.00     0.141 A 
HETATM    9  O1  UNL     1      24.617   2.771  53.403  1.00  0.00    -0.325 OA
HETATM   10  C9  UNL     1      25.857   2.287  53.644  1.00  0.00     0.357 A 
HETATM   11  C10 UNL     1      27.025   1.962  54.458  1.00  0.00     0.372 A 
HETATM   12  S1  UNL     1      27.864   1.230  52.830  1.00  0.00     0.104 SA
HETATM   13  C11 UNL     1      26.514   1.558  51.665  1.00  0.00     0.279 A 
HETATM   14  N2  UNL     1      26.857   1.711  53.010  1.00  0.00     0.095 N 
HETATM   15  N3  UNL     1      25.481   1.788  50.677  1.00  0.00    -0.351 N 
HETATM   16  C12 UNL     1      24.614   2.889  50.934  1.00  0.00     0.159 C 
HETATM   17  H9  UNL     1      25.931   0.986  50.269  1.00  0.00     0.162 HD
ENDROOT
BRANCH   1  18
HETATM   18  N1  UNL     1      23.765   0.722  52.315  1.00  0.00    -0.400 N 
HETATM   19  H1  UNL     1      24.021  -0.042  53.008  1.00  0.00     0.156 HD
HETATM   20  H2  UNL     1      24.420   0.491  51.537  1.00  0.00     0.156 HD
ENDBRANCH   1  18
BRANCH  16  21
HETATM   21  C13 UNL     1      23.756   3.139  49.762  1.00  0.00    -0.032 A 
HETATM   22  C14 UNL     1      22.879   2.202  49.247  1.00  0.00     0.011 A 
HETATM   23  C15 UNL     1      22.169   2.649  48.158  1.00  0.00     0.024 A 
HETATM   24  C16 UNL     1      22.290   3.897  47.606  1.00  0.00     0.034 A 
HETATM   25 CL1  UNL     1      21.310   4.300  46.224  1.00  0.00    -0.084 Cl
HETATM   26  C17 UNL     1      23.173   4.807  48.143  1.00  0.00     0.024 A 
HETATM   27  C18 UNL     1      23.915   4.422  49.236  1.00  0.00     0.011 A 
ENDBRANCH  16  21
TORSDOF 2
ENDMDL
