MODEL 1
REMARK VINA RESULT:      -8.3      0.000      0.000
REMARK  4 active torsions:
REMARK  status: ('A' for Active; 'I' for Inactive)
REMARK    1  A    between atoms: N1_7  and  C7_8 
REMARK    2  A    between atoms: C7_8  and  C8_9 
REMARK    3  A    between atoms: C13_16  and  N4_17 
REMARK    4  A    between atoms: N4_17  and  C14_18 
ROOT
HETATM    1  C1  UNL     1      26.818  -0.464  51.957  1.00  0.00     0.054 C 
HETATM    2  C2  UNL     1      26.159   0.858  52.706  1.00  0.00     0.134 A 
HETATM    3  C3  UNL     1      26.853   0.720  53.992  1.00  0.00     0.071 A 
HETATM    4  C4  UNL     1      26.412   0.069  55.061  1.00  0.00     0.032 C 
HETATM    5  C5  UNL     1      25.090  -0.532  54.986  1.00  0.00     0.019 C 
HETATM    6  C6  UNL     1      24.417  -0.307  53.851  1.00  0.00     0.087 C 
HETATM    7  N1  UNL     1      24.820   0.489  52.697  1.00  0.00    -0.368 N 
HETATM    8  N2  UNL     1      28.075   1.424  54.317  1.00  0.00    -0.243 NA
HETATM    9  C12 UNL     1      28.537   2.289  53.480  1.00  0.00     0.235 A 
HETATM   10  N3  UNL     1      27.832   2.484  52.277  1.00  0.00    -0.226 NA
HETATM   11  C13 UNL     1      26.763   1.874  51.889  1.00  0.00     0.140 A 
ENDROOT
BRANCH  11  12
HETATM   12  N4  UNL     1      26.398   2.312  50.605  1.00  0.00    -0.342 N 
HETATM   13  H15 UNL     1      26.156   1.580  49.916  1.00  0.00     0.167 HD
BRANCH  12  14
HETATM   14  C14 UNL     1      26.334   3.635  50.098  1.00  0.00     0.034 A 
HETATM   15  C15 UNL     1      27.164   4.176  49.145  1.00  0.00     0.029 A 
HETATM   16  C16 UNL     1      27.116   5.457  48.646  1.00  0.00     0.004 A 
HETATM   17  C17 UNL     1      26.132   6.305  49.146  1.00  0.00     0.019 A 
HETATM   18  C18 UNL     1      25.279   5.817  50.096  1.00  0.00     0.013 A 
HETATM   19 BR1  UNL     1      23.926   6.967  50.790  1.00  0.00    -0.051 Br
HETATM   20  C19 UNL     1      25.386   4.525  50.548  1.00  0.00     0.048 A 
ENDBRANCH  12  14
ENDBRANCH  11  12
BRANCH   7  21
HETATM   21  C7  UNL     1      23.641   0.757  51.901  1.00  0.00     0.132 C 
BRANCH  21  22
HETATM   22  C8  UNL     1      22.767   1.722  52.699  1.00  0.00     0.029 A 
HETATM   23  C9  UNL     1      21.645   2.278  51.962  1.00  0.00    -0.024 A 
HETATM   24  C10 UNL     1      22.092   3.487  52.014  1.00  0.00    -0.029 A 
HETATM   25  C11 UNL     1      23.286   3.113  52.760  1.00  0.00     0.037 A 
ENDBRANCH  21  22
ENDBRANCH   7  21
TORSDOF 4
ENDMDL
MODEL 2
REMARK VINA RESULT:      -8.1      2.831      5.374
REMARK  4 active torsions:
REMARK  status: ('A' for Active; 'I' for Inactive)
REMARK    1  A    between atoms: N1_7  and  C7_8 
REMARK    2  A    between atoms: C7_8  and  C8_9 
REMARK    3  A    between atoms: C13_16  and  N4_17 
REMARK    4  A    between atoms: N4_17  and  C14_18 
ROOT
HETATM    1  C1  UNL     1      23.424   3.905  52.112  1.00  0.00     0.054 C 
HETATM    2  C2  UNL     1      24.067   2.556  51.398  1.00  0.00     0.134 A 
HETATM    3  C3  UNL     1      23.730   2.890  50.010  1.00  0.00     0.071 A 
HETATM    4  C4  UNL     1      22.628   2.539  49.358  1.00  0.00     0.032 C 
HETATM    5  C5  UNL     1      21.671   1.698  50.058  1.00  0.00     0.019 C 
HETATM    6  C6  UNL     1      22.036   1.304  51.285  1.00  0.00     0.087 C 
HETATM    7  N1  UNL     1      23.280   1.579  51.995  1.00  0.00    -0.368 N 
HETATM    8  N2  UNL     1      24.652   3.537  49.099  1.00  0.00    -0.243 NA
HETATM    9  C12 UNL     1      25.862   3.751  49.487  1.00  0.00     0.235 A 
HETATM   10  N3  UNL     1      26.215   3.361  50.794  1.00  0.00    -0.226 NA
HETATM   11  C13 UNL     1      25.451   2.819  51.681  1.00  0.00     0.140 A 
ENDROOT
BRANCH  11  12
HETATM   12  N4  UNL     1      26.162   2.630  52.877  1.00  0.00    -0.342 N 
HETATM   13  H15 UNL     1      25.936   3.270  53.658  1.00  0.00     0.167 HD
BRANCH  12  14
HETATM   14  C14 UNL     1      27.181   1.688  53.171  1.00  0.00     0.034 A 
HETATM   15  C15 UNL     1      28.393   1.966  53.759  1.00  0.00     0.029 A 
HETATM   16  C16 UNL     1      29.392   1.064  54.046  1.00  0.00     0.004 A 
HETATM   17  C17 UNL     1      29.168  -0.269  53.717  1.00  0.00     0.019 A 
HETATM   18  C18 UNL     1      27.978  -0.600  53.130  1.00  0.00     0.013 A 
HETATM   19 BR1  UNL     1      27.658  -2.424  52.673  1.00  0.00    -0.051 Br
HETATM   20  C19 UNL     1      27.026   0.354  52.872  1.00  0.00     0.048 A 
ENDBRANCH  12  14
ENDBRANCH  11  12
BRANCH   7  21
HETATM   21  C7  UNL     1      23.383   0.648  53.099  1.00  0.00     0.132 C 
BRANCH  21  22
HETATM   22  C8  UNL     1      22.032  -0.054  53.225  1.00  0.00     0.029 A 
HETATM   23  C9  UNL     1      21.425   0.029  54.542  1.00  0.00    -0.024 A 
HETATM   24  C10 UNL     1      21.498  -1.242  54.756  1.00  0.00    -0.029 A 
HETATM   25  C11 UNL     1      22.120  -1.516  53.467  1.00  0.00     0.037 A 
ENDBRANCH  21  22
ENDBRANCH   7  21
TORSDOF 4
ENDMDL
MODEL 3
REMARK VINA RESULT:      -8.1      1.539      4.029
REMARK  4 active torsions:
REMARK  status: ('A' for Active; 'I' for Inactive)
REMARK    1  A    between atoms: N1_7  and  C7_8 
REMARK    2  A    between atoms: C7_8  and  C8_9 
REMARK    3  A    between atoms: C13_16  and  N4_17 
REMARK    4  A    between atoms: N4_17  and  C14_18 
ROOT
HETATM    1  C1  UNL     1      25.042   2.562  53.345  1.00  0.00     0.054 C 
HETATM    2  C2  UNL     1      24.746   1.399  52.205  1.00  0.00     0.134 A 
HETATM    3  C3  UNL     1      23.358   1.105  52.581  1.00  0.00     0.071 A 
HETATM    4  C4  UNL     1      22.951   0.174  53.435  1.00  0.00     0.032 C 
HETATM    5  C5  UNL     1      23.964  -0.683  54.029  1.00  0.00     0.019 C 
HETATM    6  C6  UNL     1      25.215  -0.484  53.598  1.00  0.00     0.087 C 
HETATM    7  N1  UNL     1      25.691   0.453  52.585  1.00  0.00    -0.368 N 
HETATM    8  N2  UNL     1      22.213   1.712  51.935  1.00  0.00    -0.243 NA
HETATM    9  C12 UNL     1      22.406   2.478  50.916  1.00  0.00     0.235 A 
HETATM   10  N3  UNL     1      23.733   2.701  50.501  1.00  0.00    -0.226 NA
HETATM   11  C13 UNL     1      24.810   2.237  51.040  1.00  0.00     0.140 A 
ENDROOT
BRANCH  11  12
HETATM   12  N4  UNL     1      25.938   2.733  50.365  1.00  0.00    -0.342 N 
HETATM   13  H15 UNL     1      26.720   2.071  50.220  1.00  0.00     0.167 HD
BRANCH  12  14
HETATM   14  C14 UNL     1      26.177   4.039  49.866  1.00  0.00     0.034 A 
HETATM   15  C15 UNL     1      27.182   4.401  49.000  1.00  0.00     0.029 A 
HETATM   16  C16 UNL     1      27.428   5.663  48.510  1.00  0.00     0.004 A 
HETATM   17  C17 UNL     1      26.582   6.688  48.922  1.00  0.00     0.019 A 
HETATM   18  C18 UNL     1      25.565   6.382  49.783  1.00  0.00     0.013 A 
HETATM   19 BR1  UNL     1      24.399   7.777  50.356  1.00  0.00    -0.051 Br
HETATM   20  C19 UNL     1      25.379   5.098  50.232  1.00  0.00     0.048 A 
ENDBRANCH  12  14
ENDBRANCH  11  12
BRANCH   7  21
HETATM   21  C7  UNL     1      27.021   0.047  52.185  1.00  0.00     0.132 C 
BRANCH  21  22
HETATM   22  C8  UNL     1      27.778  -0.335  53.456  1.00  0.00     0.029 A 
HETATM   23  C9  UNL     1      28.866   0.561  53.807  1.00  0.00    -0.024 A 
HETATM   24  C10 UNL     1      29.779  -0.336  53.639  1.00  0.00    -0.029 A 
HETATM   25  C11 UNL     1      28.825  -1.369  53.259  1.00  0.00     0.037 A 
ENDBRANCH  21  22
ENDBRANCH   7  21
TORSDOF 4
ENDMDL
MODEL 4
REMARK VINA RESULT:      -7.8      1.852      4.248
REMARK  4 active torsions:
REMARK  status: ('A' for Active; 'I' for Inactive)
REMARK    1  A    between atoms: N1_7  and  C7_8 
REMARK    2  A    between atoms: C7_8  and  C8_9 
REMARK    3  A    between atoms: C13_16  and  N4_17 
REMARK    4  A    between atoms: N4_17  and  C14_18 
ROOT
HETATM    1  C1  UNL     1      22.514   2.963  52.348  1.00  0.00     0.054 C 
HETATM    2  C2  UNL     1      23.295   1.767  51.511  1.00  0.00     0.134 A 
HETATM    3  C3  UNL     1      22.122   1.206  50.832  1.00  0.00     0.071 A 
HETATM    4  C4  UNL     1      21.358   0.211  51.266  1.00  0.00     0.032 C 
HETATM    5  C5  UNL     1      21.735  -0.432  52.514  1.00  0.00     0.019 C 
HETATM    6  C6  UNL     1      22.869   0.010  53.072  1.00  0.00     0.087 C 
HETATM    7  N1  UNL     1      23.793   1.024  52.575  1.00  0.00    -0.368 N 
HETATM    8  N2  UNL     1      21.725   1.578  49.490  1.00  0.00    -0.243 NA
HETATM    9  C12 UNL     1      22.485   2.369  48.813  1.00  0.00     0.235 A 
HETATM   10  N3  UNL     1      23.655   2.850  49.432  1.00  0.00    -0.226 NA
HETATM   11  C13 UNL     1      24.062   2.605  50.631  1.00  0.00     0.140 A 
ENDROOT
BRANCH  11  12
HETATM   12  N4  UNL     1      25.246   3.313  50.892  1.00  0.00    -0.342 N 
HETATM   13  H15 UNL     1      25.724   3.107  51.786  1.00  0.00     0.167 HD
BRANCH  12  14
HETATM   14  C14 UNL     1      25.883   4.307  50.105  1.00  0.00     0.034 A 
HETATM   15  C15 UNL     1      26.968   4.114  49.283  1.00  0.00     0.029 A 
HETATM   16  C16 UNL     1      27.598   5.068  48.517  1.00  0.00     0.004 A 
HETATM   17  C17 UNL     1      27.098   6.365  48.568  1.00  0.00     0.019 A 
HETATM   18  C18 UNL     1      26.019   6.613  49.370  1.00  0.00     0.013 A 
HETATM   19 BR1  UNL     1      25.323   8.386  49.449  1.00  0.00    -0.051 Br
HETATM   20  C19 UNL     1      25.440   5.610  50.108  1.00  0.00     0.048 A 
ENDBRANCH  12  14
ENDBRANCH  11  12
BRANCH   7  21
HETATM   21  C7  UNL     1      25.041   0.888  53.295  1.00  0.00     0.132 C 
BRANCH  21  22
HETATM   22  C8  UNL     1      26.007   0.133  52.385  1.00  0.00     0.029 A 
HETATM   23  C9  UNL     1      26.461  -1.145  52.906  1.00  0.00    -0.024 A 
HETATM   24  C10 UNL     1      27.693  -0.771  53.003  1.00  0.00    -0.029 A 
HETATM   25  C11 UNL     1      27.423   0.568  52.496  1.00  0.00     0.037 A 
ENDBRANCH  21  22
ENDBRANCH   7  21
TORSDOF 4
ENDMDL
MODEL 5
REMARK VINA RESULT:      -7.6      2.310      4.984
REMARK  4 active torsions:
REMARK  status: ('A' for Active; 'I' for Inactive)
REMARK    1  A    between atoms: N1_7  and  C7_8 
REMARK    2  A    between atoms: C7_8  and  C8_9 
REMARK    3  A    between atoms: C13_16  and  N4_17 
REMARK    4  A    between atoms: N4_17  and  C14_18 
ROOT
HETATM    1  C1  UNL     1      25.263   2.352  53.931  1.00  0.00     0.054 C 
HETATM    2  C2  UNL     1      25.781   0.951  53.216  1.00  0.00     0.134 A 
HETATM    3  C3  UNL     1      26.417   0.353  54.396  1.00  0.00     0.071 A 
HETATM    4  C4  UNL     1      27.689   0.476  54.755  1.00  0.00     0.032 C 
HETATM    5  C5  UNL     1      28.566   1.234  53.877  1.00  0.00     0.019 C 
HETATM    6  C6  UNL     1      28.006   1.682  52.747  1.00  0.00     0.087 C 
HETATM    7  N1  UNL     1      26.644   1.479  52.264  1.00  0.00    -0.368 N 
HETATM    8  N2  UNL     1      25.753  -0.598  55.263  1.00  0.00    -0.243 NA
HETATM    9  C12 UNL     1      24.579  -1.020  54.941  1.00  0.00     0.235 A 
HETATM   10  N3  UNL     1      23.994  -0.509  53.766  1.00  0.00    -0.226 NA
HETATM   11  C13 UNL     1      24.493   0.367  52.961  1.00  0.00     0.140 A 
ENDROOT
BRANCH  11  12
HETATM   12  N4  UNL     1      23.578   0.654  51.934  1.00  0.00    -0.342 N 
HETATM   13  H15 UNL     1      23.875   0.423  50.970  1.00  0.00     0.167 HD
BRANCH  12  14
HETATM   14  C14 UNL     1      22.293   1.247  52.024  1.00  0.00     0.034 A 
HETATM   15  C15 UNL     1      22.031   2.576  52.255  1.00  0.00     0.029 A 
HETATM   16  C16 UNL     1      20.791   3.165  52.348  1.00  0.00     0.004 A 
HETATM   17  C17 UNL     1      19.678   2.345  52.193  1.00  0.00     0.019 A 
HETATM   18  C18 UNL     1      19.882   1.014  51.960  1.00  0.00     0.013 A 
HETATM   19 BR1  UNL     1      18.365  -0.122  51.746  1.00  0.00    -0.051 Br
HETATM   20  C19 UNL     1      21.150   0.494  51.880  1.00  0.00     0.048 A 
ENDBRANCH  12  14
ENDBRANCH  11  12
BRANCH   7  21
HETATM   21  C7  UNL     1      26.613   1.806  50.854  1.00  0.00     0.132 C 
BRANCH  21  22
HETATM   22  C8  UNL     1      26.491   3.324  50.745  1.00  0.00     0.029 A 
HETATM   23  C9  UNL     1      25.139   3.813  50.541  1.00  0.00    -0.024 A 
HETATM   24  C10 UNL     1      25.390   4.288  49.368  1.00  0.00    -0.029 A 
HETATM   25  C11 UNL     1      26.785   3.868  49.395  1.00  0.00     0.037 A 
ENDBRANCH  21  22
ENDBRANCH   7  21
TORSDOF 4
ENDMDL
MODEL 6
REMARK VINA RESULT:      -7.6      2.694      5.545
REMARK  4 active torsions:
REMARK  status: ('A' for Active; 'I' for Inactive)
REMARK    1  A    between atoms: N1_7  and  C7_8 
REMARK    2  A    between atoms: C7_8  and  C8_9 
REMARK    3  A    between atoms: C13_16  and  N4_17 
REMARK    4  A    between atoms: N4_17  and  C14_18 
ROOT
HETATM    1  C1  UNL     1      24.063   3.410  53.224  1.00  0.00     0.054 C 
HETATM    2  C2  UNL     1      23.643   2.961  51.687  1.00  0.00     0.134 A 
HETATM    3  C3  UNL     1      23.495   4.308  51.124  1.00  0.00     0.071 A 
HETATM    4  C4  UNL     1      22.378   5.025  51.070  1.00  0.00     0.032 C 
HETATM    5  C5  UNL     1      21.159   4.409  51.570  1.00  0.00     0.019 C 
HETATM    6  C6  UNL     1      21.279   3.140  51.979  1.00  0.00     0.087 C 
HETATM    7  N1  UNL     1      22.460   2.283  51.956  1.00  0.00    -0.368 N 
HETATM    8  N2  UNL     1      24.547   4.988  50.398  1.00  0.00    -0.243 NA
HETATM    9  C12 UNL     1      25.640   4.353  50.146  1.00  0.00     0.235 A 
HETATM   10  N3  UNL     1      25.758   3.030  50.616  1.00  0.00    -0.226 NA
HETATM   11  C13 UNL     1      24.892   2.365  51.302  1.00  0.00     0.140 A 
ENDROOT
BRANCH  11  12
HETATM   12  N4  UNL     1      25.404   1.097  51.623  1.00  0.00    -0.342 N 
HETATM   13  H15 UNL     1      25.192   0.329  50.964  1.00  0.00     0.167 HD
BRANCH  12  14
HETATM   14  C14 UNL     1      26.165   0.703  52.754  1.00  0.00     0.034 A 
HETATM   15  C15 UNL     1      25.703   0.610  54.046  1.00  0.00     0.029 A 
HETATM   16  C16 UNL     1      26.428   0.232  55.152  1.00  0.00     0.004 A 
HETATM   17  C17 UNL     1      27.768  -0.094  54.960  1.00  0.00     0.019 A 
HETATM   18  C18 UNL     1      28.278  -0.019  53.695  1.00  0.00     0.013 A 
HETATM   19 BR1  UNL     1      30.112  -0.463  53.418  1.00  0.00    -0.051 Br
HETATM   20  C19 UNL     1      27.494   0.367  52.636  1.00  0.00     0.048 A 
ENDBRANCH  12  14
ENDBRANCH  11  12
BRANCH   7  21
HETATM   21  C7  UNL     1      22.026   0.913  52.126  1.00  0.00     0.132 C 
BRANCH  21  22
HETATM   22  C8  UNL     1      22.058   0.612  53.623  1.00  0.00     0.029 A 
HETATM   23  C9  UNL     1      22.435  -0.750  53.961  1.00  0.00    -0.024 A 
HETATM   24  C10 UNL     1      21.286  -1.036  54.476  1.00  0.00    -0.029 A 
HETATM   25  C11 UNL     1      20.735   0.287  54.213  1.00  0.00     0.037 A 
ENDBRANCH  21  22
ENDBRANCH   7  21
TORSDOF 4
ENDMDL
MODEL 7
REMARK VINA RESULT:      -7.5      2.842      6.057
REMARK  4 active torsions:
REMARK  status: ('A' for Active; 'I' for Inactive)
REMARK    1  A    between atoms: N1_7  and  C7_8 
REMARK    2  A    between atoms: C7_8  and  C8_9 
REMARK    3  A    between atoms: C13_16  and  N4_17 
REMARK    4  A    between atoms: N4_17  and  C14_18 
ROOT
HETATM    1  C1  UNL     1      22.299   1.411  50.388  1.00  0.00     0.054 C 
HETATM    2  C2  UNL     1      22.685   1.905  51.921  1.00  0.00     0.134 A 
HETATM    3  C3  UNL     1      21.316   2.053  52.428  1.00  0.00     0.071 A 
HETATM    4  C4  UNL     1      20.579   3.157  52.407  1.00  0.00     0.032 C 
HETATM    5  C5  UNL     1      21.191   4.364  51.876  1.00  0.00     0.019 C 
HETATM    6  C6  UNL     1      22.477   4.251  51.518  1.00  0.00     0.087 C 
HETATM    7  N1  UNL     1      23.351   3.088  51.624  1.00  0.00    -0.368 N 
HETATM    8  N2  UNL     1      20.628   1.020  53.175  1.00  0.00    -0.243 NA
HETATM    9  C12 UNL     1      21.272  -0.049  53.498  1.00  0.00     0.235 A 
HETATM   10  N3  UNL     1      22.613  -0.162  53.081  1.00  0.00    -0.226 NA
HETATM   11  C13 UNL     1      23.288   0.685  52.381  1.00  0.00     0.140 A 
ENDROOT
BRANCH  11  12
HETATM   12  N4  UNL     1      24.575   0.183  52.127  1.00  0.00    -0.342 N 
HETATM   13  H15 UNL     1      24.715  -0.300  51.223  1.00  0.00     0.167 HD
BRANCH  12  14
HETATM   14  C14 UNL     1      25.726   0.220  52.955  1.00  0.00     0.034 A 
HETATM   15  C15 UNL     1      25.949   1.096  53.991  1.00  0.00     0.029 A 
HETATM   16  C16 UNL     1      27.061   1.145  54.799  1.00  0.00     0.004 A 
HETATM   17  C17 UNL     1      28.073   0.220  54.557  1.00  0.00     0.019 A 
HETATM   18  C18 UNL     1      27.902  -0.675  53.539  1.00  0.00     0.013 A 
HETATM   19 BR1  UNL     1      29.279  -1.948  53.197  1.00  0.00    -0.051 Br
HETATM   20  C19 UNL     1      26.763  -0.666  52.771  1.00  0.00     0.048 A 
ENDBRANCH  12  14
ENDBRANCH  11  12
BRANCH   7  21
HETATM   21  C7  UNL     1      24.719   3.539  51.483  1.00  0.00     0.132 C 
BRANCH  21  22
HETATM   22  C8  UNL     1      25.071   3.460  49.999  1.00  0.00     0.029 A 
HETATM   23  C9  UNL     1      26.442   3.071  49.719  1.00  0.00    -0.024 A 
HETATM   24  C10 UNL     1      26.749   4.202  49.178  1.00  0.00    -0.029 A 
HETATM   25  C11 UNL     1      25.420   4.764  49.380  1.00  0.00     0.037 A 
ENDBRANCH  21  22
ENDBRANCH   7  21
TORSDOF 4
ENDMDL
MODEL 8
REMARK VINA RESULT:      -7.4      3.100      6.445
REMARK  4 active torsions:
REMARK  status: ('A' for Active; 'I' for Inactive)
REMARK    1  A    between atoms: N1_7  and  C7_8 
REMARK    2  A    between atoms: C7_8  and  C8_9 
REMARK    3  A    between atoms: C13_16  and  N4_17 
REMARK    4  A    between atoms: N4_17  and  C14_18 
ROOT
HETATM    1  C1  UNL     1      23.138   2.225  50.030  1.00  0.00     0.054 C 
HETATM    2  C2  UNL     1      23.647   3.515  50.935  1.00  0.00     0.134 A 
HETATM    3  C3  UNL     1      24.184   4.325  49.836  1.00  0.00     0.071 A 
HETATM    4  C4  UNL     1      25.435   4.322  49.390  1.00  0.00     0.032 C 
HETATM    5  C5  UNL     1      26.394   3.475  50.081  1.00  0.00     0.019 C 
HETATM    6  C6  UNL     1      25.923   2.825  51.152  1.00  0.00     0.087 C 
HETATM    7  N1  UNL     1      24.588   2.882  51.737  1.00  0.00    -0.368 N 
HETATM    8  N2  UNL     1      23.432   5.371  49.175  1.00  0.00    -0.243 NA
HETATM    9  C12 UNL     1      22.264   5.679  49.628  1.00  0.00     0.235 A 
HETATM   10  N3  UNL     1      21.775   4.958  50.734  1.00  0.00    -0.226 NA
HETATM   11  C13 UNL     1      22.357   3.988  51.355  1.00  0.00     0.140 A 
ENDROOT
BRANCH  11  12
HETATM   12  N4  UNL     1      21.520   3.497  52.371  1.00  0.00    -0.342 N 
HETATM   13  H15 UNL     1      21.444   4.070  53.228  1.00  0.00     0.167 HD
BRANCH  12  14
HETATM   14  C14 UNL     1      20.769   2.294  52.404  1.00  0.00     0.034 A 
HETATM   15  C15 UNL     1      19.585   2.063  51.744  1.00  0.00     0.029 A 
HETATM   16  C16 UNL     1      18.843   0.905  51.769  1.00  0.00     0.004 A 
HETATM   17  C17 UNL     1      19.328  -0.152  52.534  1.00  0.00     0.019 A 
HETATM   18  C18 UNL     1      20.503   0.025  53.211  1.00  0.00     0.013 A 
HETATM   19 BR1  UNL     1      21.179  -1.414  54.263  1.00  0.00    -0.051 Br
HETATM   20  C19 UNL     1      21.190   1.211  53.140  1.00  0.00     0.048 A 
ENDBRANCH  12  14
ENDBRANCH  11  12
BRANCH   7  21
HETATM   21  C7  UNL     1      24.658   2.331  53.074  1.00  0.00     0.132 C 
BRANCH  21  22
HETATM   22  C8  UNL     1      25.439   1.021  52.982  1.00  0.00     0.029 A 
HETATM   23  C9  UNL     1      24.634  -0.178  53.137  1.00  0.00    -0.024 A 
HETATM   24  C10 UNL     1      25.214  -0.535  54.233  1.00  0.00    -0.029 A 
HETATM   25  C11 UNL     1      26.107   0.615  54.245  1.00  0.00     0.037 A 
ENDBRANCH  21  22
ENDBRANCH   7  21
TORSDOF 4
ENDMDL
MODEL 9
REMARK VINA RESULT:      -7.2      1.814      2.400
REMARK  4 active torsions:
REMARK  status: ('A' for Active; 'I' for Inactive)
REMARK    1  A    between atoms: N1_7  and  C7_8 
REMARK    2  A    between atoms: C7_8  and  C8_9 
REMARK    3  A    between atoms: C13_16  and  N4_17 
REMARK    4  A    between atoms: N4_17  and  C14_18 
ROOT
HETATM    1  C1  UNL     1      26.592  -0.515  52.042  1.00  0.00     0.054 C 
HETATM    2  C2  UNL     1      25.971   0.710  52.967  1.00  0.00     0.134 A 
HETATM    3  C3  UNL     1      26.890   0.581  54.104  1.00  0.00     0.071 A 
HETATM    4  C4  UNL     1      26.699  -0.152  55.195  1.00  0.00     0.032 C 
HETATM    5  C5  UNL     1      25.438  -0.866  55.314  1.00  0.00     0.019 C 
HETATM    6  C6  UNL     1      24.559  -0.655  54.326  1.00  0.00     0.087 C 
HETATM    7  N1  UNL     1      24.686   0.222  53.168  1.00  0.00    -0.368 N 
HETATM    8  N2  UNL     1      28.089   1.378  54.254  1.00  0.00    -0.243 NA
HETATM    9  C12 UNL     1      28.324   2.315  53.401  1.00  0.00     0.235 A 
HETATM   10  N3  UNL     1      27.404   2.497  52.350  1.00  0.00    -0.226 NA
HETATM   11  C13 UNL     1      26.337   1.810  52.118  1.00  0.00     0.140 A 
ENDROOT
BRANCH  11  12
HETATM   12  N4  UNL     1      25.716   2.267  50.944  1.00  0.00    -0.342 N 
HETATM   13  H15 UNL     1      26.080   1.893  50.050  1.00  0.00     0.167 HD
BRANCH  12  14
HETATM   14  C14 UNL     1      24.659   3.202  50.799  1.00  0.00     0.034 A 
HETATM   15  C15 UNL     1      24.030   3.874  51.819  1.00  0.00     0.029 A 
HETATM   16  C16 UNL     1      23.002   4.780  51.695  1.00  0.00     0.004 A 
HETATM   17  C17 UNL     1      22.542   5.056  50.410  1.00  0.00     0.019 A 
HETATM   18  C18 UNL     1      23.134   4.415  49.359  1.00  0.00     0.013 A 
HETATM   19 BR1  UNL     1      22.513   4.784  47.594  1.00  0.00    -0.051 Br
HETATM   20  C19 UNL     1      24.156   3.521  49.558  1.00  0.00     0.048 A 
ENDBRANCH  12  14
ENDBRANCH  11  12
BRANCH   7  21
HETATM   21  C7  UNL     1      23.367   0.416  52.604  1.00  0.00     0.132 C 
BRANCH  21  22
HETATM   22  C8  UNL     1      22.356   0.163  53.721  1.00  0.00     0.029 A 
HETATM   23  C9  UNL     1      21.439  -0.936  53.472  1.00  0.00    -0.024 A 
HETATM   24  C10 UNL     1      20.396  -0.176  53.436  1.00  0.00    -0.029 A 
HETATM   25  C11 UNL     1      21.160   1.041  53.677  1.00  0.00     0.037 A 
ENDBRANCH  21  22
ENDBRANCH   7  21
TORSDOF 4
ENDMDL
