MODEL 1
REMARK VINA RESULT:      -7.6      0.000      0.000
REMARK  6 active torsions:
REMARK  status: ('A' for Active; 'I' for Inactive)
REMARK    1  A    between atoms: C5_5  and  C6_6 
REMARK    2  A    between atoms: C6_6  and  C7_7 
REMARK    3  A    between atoms: C6_6  and  N1_16 
REMARK    4  A    between atoms: C7_7  and  C8_8 
REMARK    5  A    between atoms: C8_8  and  S1_9 
REMARK    6  A    between atoms: N1_16  and  C14_17 
ROOT
HETATM    1  C6  UNL     1      23.818   0.542  53.462  1.00  0.00     0.117 C 
ENDROOT
BRANCH   1   2
HETATM    2  C5  UNL     1      22.382   0.023  53.467  1.00  0.00    -0.035 A 
HETATM    3  C4  UNL     1      21.467   0.654  52.689  1.00  0.00     0.010 A 
HETATM    4  C3  UNL     1      20.157   0.234  52.650  1.00  0.00     0.007 A 
HETATM    5  C2  UNL     1      19.799  -0.844  53.424  1.00  0.00    -0.062 A 
HETATM    6  C1  UNL     1      18.393  -1.298  53.387  1.00  0.00     0.048 C 
HETATM    7  C18 UNL     1      20.769  -1.467  54.214  1.00  0.00     0.007 A 
HETATM    8  C17 UNL     1      22.090  -1.061  54.268  1.00  0.00     0.010 A 
ENDBRANCH   1   2
BRANCH   1   9
HETATM    9  C7  UNL     1      24.148   0.703  52.009  1.00  0.00     0.050 C 
BRANCH   9  10
HETATM   10  C8  UNL     1      24.604   2.073  51.591  1.00  0.00     0.011 C 
HETATM   11  C9  UNL     1      23.818   2.460  50.333  1.00  0.00     0.048 C 
HETATM   12  C10 UNL     1      23.985   3.891  50.025  1.00  0.00    -0.010 C 
HETATM   13  C11 UNL     1      25.271   4.149  50.089  1.00  0.00    -0.015 C 
HETATM   14 BR1  UNL     1      25.711   5.991  49.714  1.00  0.00    -0.056 Br
HETATM   15  C12 UNL     1      26.414   3.277  50.396  1.00  0.00     0.048 C 
HETATM   16  C13 UNL     1      26.045   2.046  51.204  1.00  0.00     0.025 C 
BRANCH  10  17
HETATM   17  S1  UNL     1      24.212   3.317  52.856  1.00  0.00    -0.172 SA
HETATM   18  H9  UNL     1      24.729   2.854  54.079  1.00  0.00     0.102 HD
ENDBRANCH  10  17
ENDBRANCH   9  10
ENDBRANCH   1   9
BRANCH   1  19
HETATM   19  N1  UNL     1      24.538  -0.607  54.046  1.00  0.00    -0.368 N 
HETATM   20  H17 UNL     1      24.290  -1.512  54.496  1.00  0.00     0.161 HD
BRANCH  19  21
HETATM   21  C14 UNL     1      25.963  -0.442  54.006  1.00  0.00     0.121 C 
HETATM   22  N2  UNL     1      26.806  -1.206  53.372  1.00  0.00    -0.249 NA
HETATM   23  C15 UNL     1      28.143  -0.692  53.588  1.00  0.00     0.319 C 
HETATM   24  O1  UNL     1      28.048   0.199  54.655  1.00  0.00    -0.363 OA
HETATM   25  C16 UNL     1      26.749   0.644  54.690  1.00  0.00     0.247 C 
ENDBRANCH  19  21
ENDBRANCH   1  19
TORSDOF 6
ENDMDL
MODEL 2
REMARK VINA RESULT:      -7.6      2.229      5.205
REMARK  6 active torsions:
REMARK  status: ('A' for Active; 'I' for Inactive)
REMARK    1  A    between atoms: C5_5  and  C6_6 
REMARK    2  A    between atoms: C6_6  and  C7_7 
REMARK    3  A    between atoms: C6_6  and  N1_16 
REMARK    4  A    between atoms: C7_7  and  C8_8 
REMARK    5  A    between atoms: C8_8  and  S1_9 
REMARK    6  A    between atoms: N1_16  and  C14_17 
ROOT
HETATM    1  C6  UNL     1      24.480   0.467  52.914  1.00  0.00     0.117 C 
ENDROOT
BRANCH   1   2
HETATM    2  C5  UNL     1      25.939   0.047  53.085  1.00  0.00    -0.035 A 
HETATM    3  C4  UNL     1      26.800   0.931  53.649  1.00  0.00     0.010 A 
HETATM    4  C3  UNL     1      28.127   0.611  53.830  1.00  0.00     0.007 A 
HETATM    5  C2  UNL     1      28.556  -0.629  53.422  1.00  0.00    -0.062 A 
HETATM    6  C1  UNL     1      29.980  -0.977  53.613  1.00  0.00     0.048 C 
HETATM    7  C18 UNL     1      27.639  -1.511  52.844  1.00  0.00     0.007 A 
HETATM    8  C17 UNL     1      26.303  -1.211  52.653  1.00  0.00     0.010 A 
ENDBRANCH   1   2
BRANCH   1   9
HETATM    9  C7  UNL     1      24.514   1.963  52.998  1.00  0.00     0.050 C 
BRANCH   9  10
HETATM   10  C8  UNL     1      24.039   2.695  51.774  1.00  0.00     0.011 C 
HETATM   11  C9  UNL     1      23.257   1.699  50.910  1.00  0.00     0.048 C 
HETATM   12  C10 UNL     1      22.512   2.392  49.845  1.00  0.00    -0.010 C 
HETATM   13  C11 UNL     1      23.350   3.225  49.273  1.00  0.00    -0.015 C 
HETATM   14 BR1  UNL     1      22.566   4.245  47.833  1.00  0.00    -0.056 Br
HETATM   15  C12 UNL     1      24.768   3.505  49.545  1.00  0.00     0.048 C 
HETATM   16  C13 UNL     1      25.201   3.150  50.955  1.00  0.00     0.025 C 
BRANCH  10  17
HETATM   17  S1  UNL     1      22.885   4.030  52.206  1.00  0.00    -0.172 SA
HETATM   18  H9  UNL     1      21.806   3.449  52.897  1.00  0.00     0.102 HD
ENDBRANCH  10  17
ENDBRANCH   9  10
ENDBRANCH   1   9
BRANCH   1  19
HETATM   19  N1  UNL     1      23.872  -0.120  54.124  1.00  0.00    -0.368 N 
HETATM   20  H17 UNL     1      24.182  -0.385  55.081  1.00  0.00     0.161 HD
BRANCH  19  21
HETATM   21  C14 UNL     1      22.481  -0.428  53.947  1.00  0.00     0.121 C 
HETATM   22  N2  UNL     1      21.547   0.411  53.601  1.00  0.00    -0.249 NA
HETATM   23  C15 UNL     1      20.289  -0.304  53.535  1.00  0.00     0.319 C 
HETATM   24  O1  UNL     1      20.497  -1.515  54.193  1.00  0.00    -0.363 OA
HETATM   25  C16 UNL     1      21.843  -1.779  54.129  1.00  0.00     0.247 C 
ENDBRANCH  19  21
ENDBRANCH   1  19
TORSDOF 6
ENDMDL
MODEL 3
REMARK VINA RESULT:      -7.5      1.579      2.300
REMARK  6 active torsions:
REMARK  status: ('A' for Active; 'I' for Inactive)
REMARK    1  A    between atoms: C5_5  and  C6_6 
REMARK    2  A    between atoms: C6_6  and  C7_7 
REMARK    3  A    between atoms: C6_6  and  N1_16 
REMARK    4  A    between atoms: C7_7  and  C8_8 
REMARK    5  A    between atoms: C8_8  and  S1_9 
REMARK    6  A    between atoms: N1_16  and  C14_17 
ROOT
HETATM    1  C6  UNL     1      24.925   1.627  52.215  1.00  0.00     0.117 C 
ENDROOT
BRANCH   1   2
HETATM    2  C5  UNL     1      23.785   0.754  52.736  1.00  0.00    -0.035 A 
HETATM    3  C4  UNL     1      24.045  -0.102  53.756  1.00  0.00     0.010 A 
HETATM    4  C3  UNL     1      23.059  -0.914  54.270  1.00  0.00     0.007 A 
HETATM    5  C2  UNL     1      21.802  -0.834  53.720  1.00  0.00    -0.062 A 
HETATM    6  C1  UNL     1      20.740  -1.705  54.267  1.00  0.00     0.048 C 
HETATM    7  C18 UNL     1      21.573   0.059  52.670  1.00  0.00     0.007 A 
HETATM    8  C17 UNL     1      22.549   0.883  52.138  1.00  0.00     0.010 A 
ENDBRANCH   1   2
BRANCH   1   9
HETATM    9  C7  UNL     1      24.556   1.905  50.790  1.00  0.00     0.050 C 
BRANCH   9  10
HETATM   10  C8  UNL     1      24.662   3.341  50.357  1.00  0.00     0.011 C 
HETATM   11  C9  UNL     1      23.855   3.496  49.062  1.00  0.00     0.048 C 
HETATM   12  C10 UNL     1      23.661   4.917  48.727  1.00  0.00    -0.010 C 
HETATM   13  C11 UNL     1      24.835   5.498  48.831  1.00  0.00    -0.015 C 
HETATM   14 BR1  UNL     1      24.803   7.386  48.429  1.00  0.00    -0.056 Br
HETATM   15  C12 UNL     1      26.150   4.954  49.199  1.00  0.00     0.048 C 
HETATM   16  C13 UNL     1      26.077   3.681  50.022  1.00  0.00     0.025 C 
BRANCH  10  17
HETATM   17  S1  UNL     1      23.912   4.459  51.576  1.00  0.00    -0.172 SA
HETATM   18  H9  UNL     1      24.838   5.488  51.831  1.00  0.00     0.102 HD
ENDBRANCH  10  17
ENDBRANCH   9  10
ENDBRANCH   1   9
BRANCH   1  19
HETATM   19  N1  UNL     1      26.061   0.688  52.297  1.00  0.00    -0.368 N 
HETATM   20  H17 UNL     1      26.285  -0.269  51.956  1.00  0.00     0.161 HD
BRANCH  19  21
HETATM   21  C14 UNL     1      27.155   1.214  53.062  1.00  0.00     0.121 C 
HETATM   22  N2  UNL     1      27.936   2.195  52.711  1.00  0.00    -0.249 NA
HETATM   23  C15 UNL     1      28.907   2.410  53.765  1.00  0.00     0.319 C 
HETATM   24  O1  UNL     1      28.853   1.279  54.577  1.00  0.00    -0.363 OA
HETATM   25  C16 UNL     1      27.605   0.729  54.415  1.00  0.00     0.247 C 
ENDBRANCH  19  21
ENDBRANCH   1  19
TORSDOF 6
ENDMDL
MODEL 4
REMARK VINA RESULT:      -7.5      2.812      6.334
REMARK  6 active torsions:
REMARK  status: ('A' for Active; 'I' for Inactive)
REMARK    1  A    between atoms: C5_5  and  C6_6 
REMARK    2  A    between atoms: C6_6  and  C7_7 
REMARK    3  A    between atoms: C6_6  and  N1_16 
REMARK    4  A    between atoms: C7_7  and  C8_8 
REMARK    5  A    between atoms: C8_8  and  S1_9 
REMARK    6  A    between atoms: N1_16  and  C14_17 
ROOT
HETATM    1  C6  UNL     1      25.542   2.943  50.954  1.00  0.00     0.117 C 
ENDROOT
BRANCH   1   2
HETATM    2  C5  UNL     1      25.950   4.139  50.096  1.00  0.00    -0.035 A 
HETATM    3  C4  UNL     1      27.077   4.039  49.347  1.00  0.00     0.010 A 
HETATM    4  C3  UNL     1      27.497   5.082  48.553  1.00  0.00     0.007 A 
HETATM    5  C2  UNL     1      26.743   6.230  48.540  1.00  0.00    -0.062 A 
HETATM    6  C1  UNL     1      27.190   7.354  47.690  1.00  0.00     0.048 C 
HETATM    7  C18 UNL     1      25.589   6.297  49.325  1.00  0.00     0.007 A 
HETATM    8  C17 UNL     1      25.149   5.261  50.130  1.00  0.00     0.010 A 
ENDBRANCH   1   2
BRANCH   1   9
HETATM    9  C7  UNL     1      24.446   3.472  51.828  1.00  0.00     0.050 C 
BRANCH   9  10
HETATM   10  C8  UNL     1      23.110   2.799  51.677  1.00  0.00     0.011 C 
HETATM   11  C9  UNL     1      23.007   1.723  52.765  1.00  0.00     0.048 C 
HETATM   12  C10 UNL     1      21.628   1.216  52.879  1.00  0.00    -0.010 C 
HETATM   13  C11 UNL     1      21.218   0.947  51.661  1.00  0.00    -0.015 C 
HETATM   14 BR1  UNL     1      19.414   0.263  51.586  1.00  0.00    -0.056 Br
HETATM   15  C12 UNL     1      21.897   1.079  50.364  1.00  0.00     0.048 C 
HETATM   16  C13 UNL     1      23.028   2.091  50.366  1.00  0.00     0.025 C 
BRANCH  10  17
HETATM   17  S1  UNL     1      21.745   3.963  51.964  1.00  0.00    -0.172 SA
HETATM   18  H9  UNL     1      22.178   5.235  51.546  1.00  0.00     0.102 HD
ENDBRANCH  10  17
ENDBRANCH   9  10
ENDBRANCH   1   9
BRANCH   1  19
HETATM   19  N1  UNL     1      26.777   2.715  51.729  1.00  0.00    -0.368 N 
HETATM   20  H17 UNL     1      27.741   3.105  51.759  1.00  0.00     0.161 HD
BRANCH  19  21
HETATM   21  C14 UNL     1      26.633   1.664  52.696  1.00  0.00     0.121 C 
HETATM   22  N2  UNL     1      26.707   1.797  53.990  1.00  0.00    -0.249 NA
HETATM   23  C15 UNL     1      26.506   0.497  54.597  1.00  0.00     0.319 C 
HETATM   24  O1  UNL     1      26.655  -0.436  53.572  1.00  0.00    -0.363 OA
HETATM   25  C16 UNL     1      26.371   0.213  52.396  1.00  0.00     0.247 C 
ENDBRANCH  19  21
ENDBRANCH   1  19
TORSDOF 6
ENDMDL
MODEL 5
REMARK VINA RESULT:      -7.3      3.367      5.049
REMARK  6 active torsions:
REMARK  status: ('A' for Active; 'I' for Inactive)
REMARK    1  A    between atoms: C5_5  and  C6_6 
REMARK    2  A    between atoms: C6_6  and  C7_7 
REMARK    3  A    between atoms: C6_6  and  N1_16 
REMARK    4  A    between atoms: C7_7  and  C8_8 
REMARK    5  A    between atoms: C8_8  and  S1_9 
REMARK    6  A    between atoms: N1_16  and  C14_17 
ROOT
HETATM    1  C6  UNL     1      23.774   1.689  52.163  1.00  0.00     0.117 C 
ENDROOT
BRANCH   1   2
HETATM    2  C5  UNL     1      22.351   1.240  51.839  1.00  0.00    -0.035 A 
HETATM    3  C4  UNL     1      21.536   0.892  52.867  1.00  0.00     0.010 A 
HETATM    4  C3  UNL     1      20.243   0.480  52.639  1.00  0.00     0.007 A 
HETATM    5  C2  UNL     1      19.799   0.428  51.339  1.00  0.00    -0.062 A 
HETATM    6  C1  UNL     1      18.411  -0.016  51.089  1.00  0.00     0.048 C 
HETATM    7  C18 UNL     1      20.668   0.792  50.308  1.00  0.00     0.007 A 
HETATM    8  C17 UNL     1      21.970   1.209  50.514  1.00  0.00     0.010 A 
ENDBRANCH   1   2
BRANCH   1   9
HETATM    9  C7  UNL     1      24.256   0.692  53.173  1.00  0.00     0.050 C 
BRANCH   9  10
HETATM   10  C8  UNL     1      25.742   0.472  53.215  1.00  0.00     0.011 C 
HETATM   11  C9  UNL     1      25.992  -1.035  53.076  1.00  0.00     0.048 C 
HETATM   12  C10 UNL     1      27.415  -1.313  52.814  1.00  0.00    -0.010 C 
HETATM   13  C11 UNL     1      28.108  -0.620  53.689  1.00  0.00    -0.015 C 
HETATM   14 BR1  UNL     1      30.018  -0.844  53.518  1.00  0.00    -0.056 Br
HETATM   15  C12 UNL     1      27.672   0.287  54.762  1.00  0.00     0.048 C 
HETATM   16  C13 UNL     1      26.292   0.876  54.542  1.00  0.00     0.025 C 
BRANCH  10  17
HETATM   17  S1  UNL     1      26.571   1.270  51.809  1.00  0.00    -0.172 SA
HETATM   18  H9  UNL     1      27.703   1.938  52.310  1.00  0.00     0.102 HD
ENDBRANCH  10  17
ENDBRANCH   9  10
ENDBRANCH   1   9
BRANCH   1  19
HETATM   19  N1  UNL     1      23.522   3.001  52.791  1.00  0.00    -0.368 N 
HETATM   20  H17 UNL     1      23.289   3.360  53.739  1.00  0.00     0.161 HD
BRANCH  19  21
HETATM   21  C14 UNL     1      23.600   4.084  51.852  1.00  0.00     0.121 C 
HETATM   22  N2  UNL     1      24.562   4.293  50.999  1.00  0.00    -0.249 NA
HETATM   23  C15 UNL     1      24.252   5.489  50.242  1.00  0.00     0.319 C 
HETATM   24  O1  UNL     1      23.237   6.138  50.941  1.00  0.00    -0.363 OA
HETATM   25  C16 UNL     1      22.583   5.181  51.678  1.00  0.00     0.247 C 
ENDBRANCH  19  21
ENDBRANCH   1  19
TORSDOF 6
ENDMDL
MODEL 6
REMARK VINA RESULT:      -7.2      1.423      1.778
REMARK  6 active torsions:
REMARK  status: ('A' for Active; 'I' for Inactive)
REMARK    1  A    between atoms: C5_5  and  C6_6 
REMARK    2  A    between atoms: C6_6  and  C7_7 
REMARK    3  A    between atoms: C6_6  and  N1_16 
REMARK    4  A    between atoms: C7_7  and  C8_8 
REMARK    5  A    between atoms: C8_8  and  S1_9 
REMARK    6  A    between atoms: N1_16  and  C14_17 
ROOT
HETATM    1  C6  UNL     1      23.361   0.619  53.235  1.00  0.00     0.117 C 
ENDROOT
BRANCH   1   2
HETATM    2  C5  UNL     1      21.969  -0.003  53.327  1.00  0.00    -0.035 A 
HETATM    3  C4  UNL     1      20.983   0.508  52.548  1.00  0.00     0.010 A 
HETATM    4  C3  UNL     1      19.708  -0.009  52.586  1.00  0.00     0.007 A 
HETATM    5  C2  UNL     1      19.460  -1.060  53.436  1.00  0.00    -0.062 A 
HETATM    6  C1  UNL     1      18.092  -1.618  53.481  1.00  0.00     0.048 C 
HETATM    7  C18 UNL     1      20.501  -1.558  54.224  1.00  0.00     0.007 A 
HETATM    8  C17 UNL     1      21.789  -1.054  54.202  1.00  0.00     0.010 A 
ENDBRANCH   1   2
BRANCH   1   9
HETATM    9  C7  UNL     1      23.522   0.951  51.783  1.00  0.00     0.050 C 
BRANCH   9  10
HETATM   10  C8  UNL     1      23.796   2.396  51.471  1.00  0.00     0.011 C 
HETATM   11  C9  UNL     1      23.340   3.226  52.678  1.00  0.00     0.048 C 
HETATM   12  C10 UNL     1      23.834   4.611  52.584  1.00  0.00    -0.010 C 
HETATM   13  C11 UNL     1      23.564   5.032  51.370  1.00  0.00    -0.015 C 
HETATM   14 BR1  UNL     1      24.134   6.846  51.035  1.00  0.00    -0.056 Br
HETATM   15  C12 UNL     1      22.906   4.359  50.241  1.00  0.00     0.048 C 
HETATM   16  C13 UNL     1      22.972   2.844  50.310  1.00  0.00     0.025 C 
BRANCH  10  17
HETATM   17  S1  UNL     1      25.574   2.706  51.266  1.00  0.00    -0.172 SA
HETATM   18  H9  UNL     1      26.038   1.848  50.252  1.00  0.00     0.102 HD
ENDBRANCH  10  17
ENDBRANCH   9  10
ENDBRANCH   1   9
BRANCH   1  19
HETATM   19  N1  UNL     1      24.211  -0.527  53.615  1.00  0.00    -0.368 N 
HETATM   20  H17 UNL     1      24.072  -1.525  53.873  1.00  0.00     0.161 HD
BRANCH  19  21
HETATM   21  C14 UNL     1      25.604  -0.188  53.662  1.00  0.00     0.121 C 
HETATM   22  N2  UNL     1      26.140   0.755  54.383  1.00  0.00    -0.249 NA
HETATM   23  C15 UNL     1      27.568   0.765  54.138  1.00  0.00     0.319 C 
HETATM   24  O1  UNL     1      27.769   0.007  52.986  1.00  0.00    -0.363 OA
HETATM   25  C16 UNL     1      26.706  -0.858  52.886  1.00  0.00     0.247 C 
ENDBRANCH  19  21
ENDBRANCH   1  19
TORSDOF 6
ENDMDL
MODEL 7
REMARK VINA RESULT:      -6.9      3.550      6.368
REMARK  6 active torsions:
REMARK  status: ('A' for Active; 'I' for Inactive)
REMARK    1  A    between atoms: C5_5  and  C6_6 
REMARK    2  A    between atoms: C6_6  and  C7_7 
REMARK    3  A    between atoms: C6_6  and  N1_16 
REMARK    4  A    between atoms: C7_7  and  C8_8 
REMARK    5  A    between atoms: C8_8  and  S1_9 
REMARK    6  A    between atoms: N1_16  and  C14_17 
ROOT
HETATM    1  C6  UNL     1      24.221   1.836  53.252  1.00  0.00     0.117 C 
ENDROOT
BRANCH   1   2
HETATM    2  C5  UNL     1      25.528   1.047  53.310  1.00  0.00    -0.035 A 
HETATM    3  C4  UNL     1      26.229   1.049  54.473  1.00  0.00     0.010 A 
HETATM    4  C3  UNL     1      27.413   0.356  54.588  1.00  0.00     0.007 A 
HETATM    5  C2  UNL     1      27.868  -0.336  53.491  1.00  0.00    -0.062 A 
HETATM    6  C1  UNL     1      29.140  -1.080  53.610  1.00  0.00     0.048 C 
HETATM    7  C18 UNL     1      27.120  -0.312  52.312  1.00  0.00     0.007 A 
HETATM    8  C17 UNL     1      25.928   0.376  52.174  1.00  0.00     0.010 A 
ENDBRANCH   1   2
BRANCH   1   9
HETATM    9  C7  UNL     1      23.567   1.375  51.986  1.00  0.00     0.050 C 
BRANCH   9  10
HETATM   10  C8  UNL     1      22.261   0.651  52.153  1.00  0.00     0.011 C 
HETATM   11  C9  UNL     1      21.358   1.519  53.038  1.00  0.00     0.048 C 
HETATM   12  C10 UNL     1      19.968   1.032  53.015  1.00  0.00    -0.010 C 
HETATM   13  C11 UNL     1      20.014  -0.265  53.214  1.00  0.00    -0.015 C 
HETATM   14 BR1  UNL     1      18.277  -1.109  53.221  1.00  0.00    -0.056 Br
HETATM   15  C12 UNL     1      21.155  -1.167  53.429  1.00  0.00     0.048 C 
HETATM   16  C13 UNL     1      22.467  -0.634  52.884  1.00  0.00     0.025 C 
BRANCH  10  17
HETATM   17  S1  UNL     1      21.401   0.456  50.564  1.00  0.00    -0.172 SA
HETATM   18  H9  UNL     1      20.505   1.533  50.434  1.00  0.00     0.102 HD
ENDBRANCH  10  17
ENDBRANCH   9  10
ENDBRANCH   1   9
BRANCH   1  19
HETATM   19  N1  UNL     1      24.728   3.216  53.117  1.00  0.00    -0.368 N 
HETATM   20  H17 UNL     1      25.483   3.795  53.538  1.00  0.00     0.161 HD
BRANCH  19  21
HETATM   21  C14 UNL     1      23.980   3.986  52.165  1.00  0.00     0.121 C 
HETATM   22  N2  UNL     1      24.232   4.086  50.891  1.00  0.00    -0.249 NA
HETATM   23  C15 UNL     1      23.241   4.957  50.293  1.00  0.00     0.319 C 
HETATM   24  O1  UNL     1      22.618   5.618  51.350  1.00  0.00    -0.363 OA
HETATM   25  C16 UNL     1      22.764   4.823  52.461  1.00  0.00     0.247 C 
ENDBRANCH  19  21
ENDBRANCH   1  19
TORSDOF 6
ENDMDL
MODEL 8
REMARK VINA RESULT:      -6.7      3.357      5.950
REMARK  6 active torsions:
REMARK  status: ('A' for Active; 'I' for Inactive)
REMARK    1  A    between atoms: C5_5  and  C6_6 
REMARK    2  A    between atoms: C6_6  and  C7_7 
REMARK    3  A    between atoms: C6_6  and  N1_16 
REMARK    4  A    between atoms: C7_7  and  C8_8 
REMARK    5  A    between atoms: C8_8  and  S1_9 
REMARK    6  A    between atoms: N1_16  and  C14_17 
ROOT
HETATM    1  C6  UNL     1      24.603   1.814  53.082  1.00  0.00     0.117 C 
ENDROOT
BRANCH   1   2
HETATM    2  C5  UNL     1      25.872   0.972  53.195  1.00  0.00    -0.035 A 
HETATM    3  C4  UNL     1      25.917  -0.215  52.540  1.00  0.00     0.010 A 
HETATM    4  C3  UNL     1      27.032  -1.019  52.603  1.00  0.00     0.007 A 
HETATM    5  C2  UNL     1      28.101  -0.587  53.350  1.00  0.00    -0.062 A 
HETATM    6  C1  UNL     1      29.301  -1.447  53.422  1.00  0.00     0.048 C 
HETATM    7  C18 UNL     1      28.017   0.641  54.012  1.00  0.00     0.007 A 
HETATM    8  C17 UNL     1      26.907   1.464  53.962  1.00  0.00     0.010 A 
ENDBRANCH   1   2
BRANCH   1   9
HETATM    9  C7  UNL     1      23.924   1.296  51.851  1.00  0.00     0.050 C 
BRANCH   9  10
HETATM   10  C8  UNL     1      22.446   1.050  51.975  1.00  0.00     0.011 C 
HETATM   11  C9  UNL     1      21.876   0.923  50.558  1.00  0.00     0.048 C 
HETATM   12  C10 UNL     1      20.501   0.395  50.586  1.00  0.00    -0.010 C 
HETATM   13  C11 UNL     1      19.844   1.087  51.488  1.00  0.00    -0.015 C 
HETATM   14 BR1  UNL     1      18.000   0.550  51.686  1.00  0.00    -0.056 Br
HETATM   15  C12 UNL     1      20.276   2.190  52.360  1.00  0.00     0.048 C 
HETATM   16  C13 UNL     1      21.774   2.226  52.602  1.00  0.00     0.025 C 
BRANCH  10  17
HETATM   17  S1  UNL     1      22.103  -0.521  52.819  1.00  0.00    -0.172 SA
HETATM   18  H9  UNL     1      20.923  -0.351  53.566  1.00  0.00     0.102 HD
ENDBRANCH  10  17
ENDBRANCH   9  10
ENDBRANCH   1   9
BRANCH   1  19
HETATM   19  N1  UNL     1      25.173   3.156  52.850  1.00  0.00    -0.368 N 
HETATM   20  H17 UNL     1      25.539   3.939  53.429  1.00  0.00     0.161 HD
BRANCH  19  21
HETATM   21  C14 UNL     1      25.229   3.497  51.457  1.00  0.00     0.121 C 
HETATM   22  N2  UNL     1      24.306   4.121  50.782  1.00  0.00    -0.249 NA
HETATM   23  C15 UNL     1      24.757   4.265  49.413  1.00  0.00     0.319 C 
HETATM   24  O1  UNL     1      25.832   3.391  49.265  1.00  0.00    -0.363 OA
HETATM   25  C16 UNL     1      26.365   3.196  50.515  1.00  0.00     0.247 C 
ENDBRANCH  19  21
ENDBRANCH   1  19
TORSDOF 6
ENDMDL
MODEL 9
REMARK VINA RESULT:      -6.6      7.658     10.485
REMARK  6 active torsions:
REMARK  status: ('A' for Active; 'I' for Inactive)
REMARK    1  A    between atoms: C5_5  and  C6_6 
REMARK    2  A    between atoms: C6_6  and  C7_7 
REMARK    3  A    between atoms: C6_6  and  N1_16 
REMARK    4  A    between atoms: C7_7  and  C8_8 
REMARK    5  A    between atoms: C8_8  and  S1_9 
REMARK    6  A    between atoms: N1_16  and  C14_17 
ROOT
HETATM    1  C6  UNL     1      29.683   6.917  48.056  1.00  0.00     0.117 C 
ENDROOT
BRANCH   1   2
HETATM    2  C5  UNL     1      28.313   6.322  48.375  1.00  0.00    -0.035 A 
HETATM    3  C4  UNL     1      28.234   4.993  48.637  1.00  0.00     0.010 A 
HETATM    4  C3  UNL     1      27.027   4.399  48.932  1.00  0.00     0.007 A 
HETATM    5  C2  UNL     1      25.904   5.189  48.954  1.00  0.00    -0.062 A 
HETATM    6  C1  UNL     1      24.606   4.555  49.269  1.00  0.00     0.048 C 
HETATM    7  C18 UNL     1      26.025   6.553  48.678  1.00  0.00     0.007 A 
HETATM    8  C17 UNL     1      27.226   7.172  48.379  1.00  0.00     0.010 A 
ENDBRANCH   1   2
BRANCH   1   9
HETATM    9  C7  UNL     1      30.656   5.907  48.583  1.00  0.00     0.050 C 
BRANCH   9  10
HETATM   10  C8  UNL     1      31.768   5.522  47.647  1.00  0.00     0.011 C 
HETATM   11  C9  UNL     1      31.593   6.335  46.359  1.00  0.00     0.048 C 
HETATM   12  C10 UNL     1      32.792   6.242  45.507  1.00  0.00    -0.010 C 
HETATM   13  C11 UNL     1      33.109   4.970  45.431  1.00  0.00    -0.015 C 
HETATM   14 BR1  UNL     1      34.670   4.624  44.349  1.00  0.00    -0.056 Br
HETATM   15  C12 UNL     1      32.478   3.782  46.027  1.00  0.00     0.048 C 
HETATM   16  C13 UNL     1      31.652   4.084  47.264  1.00  0.00     0.025 C 
BRANCH  10  17
HETATM   17  S1  UNL     1      33.393   5.967  48.328  1.00  0.00    -0.172 SA
HETATM   18  H9  UNL     1      33.655   7.299  47.961  1.00  0.00     0.102 HD
ENDBRANCH  10  17
ENDBRANCH   9  10
ENDBRANCH   1   9
BRANCH   1  19
HETATM   19  N1  UNL     1      29.669   8.131  48.895  1.00  0.00    -0.368 N 
HETATM   20  H17 UNL     1      29.359   8.391  49.853  1.00  0.00     0.161 HD
BRANCH  19  21
HETATM   21  C14 UNL     1      30.212   9.274  48.218  1.00  0.00     0.121 C 
HETATM   22  N2  UNL     1      29.529  10.193  47.596  1.00  0.00    -0.249 NA
HETATM   23  C15 UNL     1      30.456  11.164  47.053  1.00  0.00     0.319 C 
HETATM   24  O1  UNL     1      31.715  10.570  47.105  1.00  0.00    -0.363 OA
HETATM   25  C16 UNL     1      31.671   9.625  48.100  1.00  0.00     0.247 C 
ENDBRANCH  19  21
ENDBRANCH   1  19
TORSDOF 6
ENDMDL
