MODEL 1
REMARK VINA RESULT:      -8.3      0.000      0.000
REMARK  8 active torsions:
REMARK  status: ('A' for Active; 'I' for Inactive)
REMARK    1  A    between atoms: O1_1  and  C1_2 
REMARK    2  A    between atoms: C7_10  and  C8_11 
REMARK    3  A    between atoms: C8_11  and  C9_12 
REMARK    4  A    between atoms: C16_19  and  P1_20 
REMARK    5  A    between atoms: P1_20  and  O2_21 
REMARK    6  A    between atoms: O2_21  and  C17_22 
REMARK    7  A    between atoms: C17_22  and  C18_23 
REMARK    8  A    between atoms: C18_23  and  N3_24 
ROOT
HETATM    1  C1  UNL     1      24.032   3.820  52.733  1.00  0.00     0.076 A 
HETATM    2  C2  UNL     1      24.639   2.801  53.315  1.00  0.00     0.036 A 
HETATM    3  C3  UNL     1      24.654   1.619  52.401  1.00  0.00     0.077 A 
HETATM    4  C4  UNL     1      26.057   1.286  52.098  1.00  0.00     0.115 A 
HETATM    5  N1  UNL     1      26.628   0.147  52.327  1.00  0.00    -0.256 NA
HETATM    6  C5  UNL     1      25.867  -0.873  52.915  1.00  0.00     0.232 A 
HETATM    7  N2  UNL     1      24.640  -0.737  53.239  1.00  0.00    -0.245 NA
HETATM    8  C6  UNL     1      23.951   0.464  53.026  1.00  0.00     0.054 A 
HETATM    9  C7  UNL     1      22.682   0.633  53.355  1.00  0.00     0.007 C 
HETATM   10  C15 UNL     1      23.953   2.147  51.207  1.00  0.00     0.016 A 
HETATM   11  C16 UNL     1      23.600   3.406  51.403  1.00  0.00     0.023 A 
ENDROOT
BRANCH   1  12
HETATM   12  O1  UNL     1      23.753   5.113  53.128  1.00  0.00    -0.360 OA
HETATM   13  H1  UNL     1      24.331   5.910  52.974  1.00  0.00     0.217 HD
ENDBRANCH   1  12
BRANCH   9  14
HETATM   14  C8  UNL     1      21.805  -0.393  53.990  1.00  0.00     0.067 C 
BRANCH  14  15
HETATM   15  C9  UNL     1      20.490  -0.458  53.296  1.00  0.00    -0.055 A 
HETATM   16  C10 UNL     1      19.372  -1.153  53.700  1.00  0.00     0.007 A 
HETATM   17  C11 UNL     1      18.216  -1.129  52.971  1.00  0.00     0.001 A 
HETATM   18  C12 UNL     1      18.092  -0.405  51.783  1.00  0.00     0.000 A 
HETATM   19  C13 UNL     1      19.220   0.289  51.389  1.00  0.00     0.001 A 
HETATM   20  C14 UNL     1      20.399   0.278  52.110  1.00  0.00     0.007 A 
ENDBRANCH  14  15
ENDBRANCH   9  14
BRANCH  11  21
HETATM   21  P1  UNL     1      22.734   4.139  49.979  1.00  0.00     0.048 P 
HETATM   22  H14 UNL     1      23.467   3.892  48.740  1.00  0.00     0.092 HD
BRANCH  21  23
HETATM   23  O2  UNL     1      22.509   5.829  50.147  1.00  0.00    -0.360 OA
BRANCH  23  24
HETATM   24  C17 UNL     1      23.672   6.499  49.826  1.00  0.00     0.203 C 
BRANCH  24  25
HETATM   25  C18 UNL     1      24.200   6.115  48.466  1.00  0.00     0.298 C 
BRANCH  25  26
HETATM   26  N3  UNL     1      25.605   6.160  48.299  1.00  0.00     0.090 N 
HETATM   27  C19 UNL     1      26.088   7.511  48.411  1.00  0.00     0.272 C 
HETATM   28  C20 UNL     1      27.578   7.545  48.699  1.00  0.00     0.030 C 
HETATM   29  C21 UNL     1      28.234   6.387  47.994  1.00  0.00     0.003 C 
HETATM   30  C22 UNL     1      27.771   5.104  48.649  1.00  0.00     0.030 C 
HETATM   31  C23 UNL     1      26.315   5.228  49.097  1.00  0.00     0.272 C 
ENDBRANCH  25  26
ENDBRANCH  24  25
ENDBRANCH  23  24
ENDBRANCH  21  23
ENDBRANCH  11  21
TORSDOF 8
ENDMDL
MODEL 2
REMARK VINA RESULT:      -8.2      2.533      7.089
REMARK  8 active torsions:
REMARK  status: ('A' for Active; 'I' for Inactive)
REMARK    1  A    between atoms: O1_1  and  C1_2 
REMARK    2  A    between atoms: C7_10  and  C8_11 
REMARK    3  A    between atoms: C8_11  and  C9_12 
REMARK    4  A    between atoms: C16_19  and  P1_20 
REMARK    5  A    between atoms: P1_20  and  O2_21 
REMARK    6  A    between atoms: O2_21  and  C17_22 
REMARK    7  A    between atoms: C17_22  and  C18_23 
REMARK    8  A    between atoms: C18_23  and  N3_24 
ROOT
HETATM    1  C1  UNL     1      21.267   3.820  52.133  1.00  0.00     0.076 A 
HETATM    2  C2  UNL     1      22.315   4.611  52.274  1.00  0.00     0.036 A 
HETATM    3  C3  UNL     1      22.840   5.015  50.934  1.00  0.00     0.077 A 
HETATM    4  C4  UNL     1      22.719   6.478  50.810  1.00  0.00     0.115 A 
HETATM    5  N1  UNL     1      23.695   7.299  50.584  1.00  0.00    -0.256 NA
HETATM    6  C5  UNL     1      24.987   6.774  50.441  1.00  0.00     0.232 A 
HETATM    7  N2  UNL     1      25.253   5.528  50.525  1.00  0.00    -0.245 NA
HETATM    8  C6  UNL     1      24.254   4.576  50.770  1.00  0.00     0.054 A 
HETATM    9  C7  UNL     1      24.502   3.282  50.866  1.00  0.00     0.007 C 
HETATM   10  C15 UNL     1      21.907   4.315  50.018  1.00  0.00     0.016 A 
HETATM   11  C16 UNL     1      21.011   3.634  50.710  1.00  0.00     0.023 A 
ENDROOT
BRANCH   1  12
HETATM   12  O1  UNL     1      20.430   3.182  53.028  1.00  0.00    -0.360 OA
HETATM   13  H1  UNL     1      20.708   2.521  53.719  1.00  0.00     0.217 HD
ENDBRANCH   1  12
BRANCH   9  14
HETATM   14  C8  UNL     1      25.844   2.643  50.735  1.00  0.00     0.067 C 
BRANCH  14  15
HETATM   15  C9  UNL     1      26.073   1.678  51.845  1.00  0.00    -0.055 A 
HETATM   16  C10 UNL     1      26.453   0.359  51.734  1.00  0.00     0.007 A 
HETATM   17  C11 UNL     1      26.634  -0.426  52.836  1.00  0.00     0.001 A 
HETATM   18  C12 UNL     1      26.451   0.050  54.137  1.00  0.00     0.000 A 
HETATM   19  C13 UNL     1      26.071   1.375  54.236  1.00  0.00     0.001 A 
HETATM   20  C14 UNL     1      25.881   2.187  53.134  1.00  0.00     0.007 A 
ENDBRANCH  14  15
ENDBRANCH   9  14
BRANCH  11  21
HETATM   21  P1  UNL     1      19.817   2.746  49.661  1.00  0.00     0.048 P 
HETATM   22  H14 UNL     1      19.106   3.671  48.783  1.00  0.00     0.092 HD
BRANCH  21  23
HETATM   23  O2  UNL     1      18.661   1.873  50.576  1.00  0.00    -0.360 OA
BRANCH  23  24
HETATM   24  C17 UNL     1      19.035   0.549  50.676  1.00  0.00     0.203 C 
BRANCH  24  25
HETATM   25  C18 UNL     1      19.059   0.065  52.105  1.00  0.00     0.298 C 
BRANCH  25  26
HETATM   26  N3  UNL     1      20.324   0.032  52.738  1.00  0.00     0.090 N 
HETATM   27  C19 UNL     1      20.362  -0.995  53.745  1.00  0.00     0.272 C 
HETATM   28  C20 UNL     1      21.791  -1.366  54.105  1.00  0.00     0.030 C 
HETATM   29  C21 UNL     1      22.648  -0.132  54.014  1.00  0.00     0.003 C 
HETATM   30  C22 UNL     1      22.740   0.280  52.561  1.00  0.00     0.030 C 
HETATM   31  C23 UNL     1      21.422  -0.003  51.841  1.00  0.00     0.272 C 
ENDBRANCH  25  26
ENDBRANCH  24  25
ENDBRANCH  23  24
ENDBRANCH  21  23
ENDBRANCH  11  21
TORSDOF 8
ENDMDL
MODEL 3
REMARK VINA RESULT:      -8.2      2.051      6.557
REMARK  8 active torsions:
REMARK  status: ('A' for Active; 'I' for Inactive)
REMARK    1  A    between atoms: O1_1  and  C1_2 
REMARK    2  A    between atoms: C7_10  and  C8_11 
REMARK    3  A    between atoms: C8_11  and  C9_12 
REMARK    4  A    between atoms: C16_19  and  P1_20 
REMARK    5  A    between atoms: P1_20  and  O2_21 
REMARK    6  A    between atoms: O2_21  and  C17_22 
REMARK    7  A    between atoms: C17_22  and  C18_23 
REMARK    8  A    between atoms: C18_23  and  N3_24 
ROOT
HETATM    1  C1  UNL     1      23.155   5.158  51.248  1.00  0.00     0.076 A 
HETATM    2  C2  UNL     1      24.432   5.442  51.065  1.00  0.00     0.036 A 
HETATM    3  C3  UNL     1      24.878   4.971  49.719  1.00  0.00     0.077 A 
HETATM    4  C4  UNL     1      25.299   6.144  48.933  1.00  0.00     0.115 A 
HETATM    5  N1  UNL     1      26.469   6.320  48.408  1.00  0.00    -0.256 NA
HETATM    6  C5  UNL     1      27.437   5.322  48.589  1.00  0.00     0.232 A 
HETATM    7  N2  UNL     1      27.225   4.249  49.248  1.00  0.00    -0.245 NA
HETATM    8  C6  UNL     1      25.988   3.985  49.849  1.00  0.00     0.054 A 
HETATM    9  C7  UNL     1      25.743   2.885  50.540  1.00  0.00     0.007 C 
HETATM   10  C15 UNL     1      23.634   4.374  49.177  1.00  0.00     0.016 A 
HETATM   11  C16 UNL     1      22.653   4.485  50.056  1.00  0.00     0.023 A 
ENDROOT
BRANCH   1  12
HETATM   12  O1  UNL     1      22.273   5.369  52.290  1.00  0.00    -0.360 OA
HETATM   13  H1  UNL     1      21.290   5.210  52.265  1.00  0.00     0.217 HD
ENDBRANCH   1  12
BRANCH   9  14
HETATM   14  C8  UNL     1      26.715   1.781  50.787  1.00  0.00     0.067 C 
BRANCH  14  15
HETATM   15  C9  UNL     1      26.516   1.204  52.144  1.00  0.00    -0.055 A 
HETATM   16  C10 UNL     1      26.499   1.884  53.342  1.00  0.00     0.007 A 
HETATM   17  C11 UNL     1      26.303   1.235  54.527  1.00  0.00     0.001 A 
HETATM   18  C12 UNL     1      26.107  -0.146  54.604  1.00  0.00     0.000 A 
HETATM   19  C13 UNL     1      26.125  -0.817  53.398  1.00  0.00     0.001 A 
HETATM   20  C14 UNL     1      26.322  -0.180  52.186  1.00  0.00     0.007 A 
ENDBRANCH  14  15
ENDBRANCH   9  14
BRANCH  11  21
HETATM   21  P1  UNL     1      21.080   3.780  49.468  1.00  0.00     0.048 P 
HETATM   22  H14 UNL     1      20.245   3.360  50.590  1.00  0.00     0.092 HD
BRANCH  21  23
HETATM   23  O2  UNL     1      21.311   2.435  48.433  1.00  0.00    -0.360 OA
BRANCH  23  24
HETATM   24  C17 UNL     1      21.573   1.302  49.174  1.00  0.00     0.203 C 
BRANCH  24  25
HETATM   25  C18 UNL     1      20.562   1.087  50.273  1.00  0.00     0.298 C 
BRANCH  25  26
HETATM   26  N3  UNL     1      21.075   0.708  51.537  1.00  0.00     0.090 N 
HETATM   27  C19 UNL     1      22.464   1.065  51.650  1.00  0.00     0.272 C 
HETATM   28  C20 UNL     1      22.910   1.104  53.102  1.00  0.00     0.030 C 
HETATM   29  C21 UNL     1      22.166   0.042  53.865  1.00  0.00     0.003 C 
HETATM   30  C22 UNL     1      20.705   0.431  53.927  1.00  0.00     0.030 C 
HETATM   31  C23 UNL     1      20.282   1.128  52.635  1.00  0.00     0.272 C 
ENDBRANCH  25  26
ENDBRANCH  24  25
ENDBRANCH  23  24
ENDBRANCH  21  23
ENDBRANCH  11  21
TORSDOF 8
ENDMDL
MODEL 4
REMARK VINA RESULT:      -8.2      1.889      4.947
REMARK  8 active torsions:
REMARK  status: ('A' for Active; 'I' for Inactive)
REMARK    1  A    between atoms: O1_1  and  C1_2 
REMARK    2  A    between atoms: C7_10  and  C8_11 
REMARK    3  A    between atoms: C8_11  and  C9_12 
REMARK    4  A    between atoms: C16_19  and  P1_20 
REMARK    5  A    between atoms: P1_20  and  O2_21 
REMARK    6  A    between atoms: O2_21  and  C17_22 
REMARK    7  A    between atoms: C17_22  and  C18_23 
REMARK    8  A    between atoms: C18_23  and  N3_24 
ROOT
HETATM    1  C1  UNL     1      22.382   1.666  50.632  1.00  0.00     0.076 A 
HETATM    2  C2  UNL     1      22.165   0.586  51.360  1.00  0.00     0.036 A 
HETATM    3  C3  UNL     1      22.464   0.865  52.798  1.00  0.00     0.077 A 
HETATM    4  C4  UNL     1      21.221   0.698  53.570  1.00  0.00     0.115 A 
HETATM    5  N1  UNL     1      21.053  -0.119  54.561  1.00  0.00    -0.256 NA
HETATM    6  C5  UNL     1      22.133  -0.923  54.951  1.00  0.00     0.232 A 
HETATM    7  N2  UNL     1      23.273  -0.896  54.378  1.00  0.00    -0.245 NA
HETATM    8  C6  UNL     1      23.534  -0.043  53.298  1.00  0.00     0.054 A 
HETATM    9  C7  UNL     1      24.703   0.003  52.683  1.00  0.00     0.007 C 
HETATM   10  C15 UNL     1      22.885   2.286  52.751  1.00  0.00     0.016 A 
HETATM   11  C16 UNL     1      22.836   2.737  51.510  1.00  0.00     0.023 A 
ENDROOT
BRANCH   1  12
HETATM   12  O1  UNL     1      22.265   1.943  49.283  1.00  0.00    -0.360 OA
HETATM   13  H1  UNL     1      22.251   1.272  48.547  1.00  0.00     0.217 HD
ENDBRANCH   1  12
BRANCH   9  14
HETATM   14  C8  UNL     1      25.898  -0.821  53.027  1.00  0.00     0.067 C 
BRANCH  14  15
HETATM   15  C9  UNL     1      27.069   0.050  53.315  1.00  0.00    -0.055 A 
HETATM   16  C10 UNL     1      27.080   1.424  53.405  1.00  0.00     0.007 A 
HETATM   17  C11 UNL     1      28.228   2.111  53.679  1.00  0.00     0.001 A 
HETATM   18  C12 UNL     1      29.455   1.475  53.885  1.00  0.00     0.000 A 
HETATM   19  C13 UNL     1      29.432   0.097  53.792  1.00  0.00     0.001 A 
HETATM   20  C14 UNL     1      28.281  -0.619  53.515  1.00  0.00     0.007 A 
ENDBRANCH  14  15
ENDBRANCH   9  14
BRANCH  11  21
HETATM   21  P1  UNL     1      23.333   4.482  51.361  1.00  0.00     0.048 P 
HETATM   22  H14 UNL     1      22.803   5.272  52.469  1.00  0.00     0.092 HD
BRANCH  21  23
HETATM   23  O2  UNL     1      22.807   5.191  49.892  1.00  0.00    -0.360 OA
BRANCH  23  24
HETATM   24  C17 UNL     1      23.758   5.013  48.909  1.00  0.00     0.203 C 
BRANCH  24  25
HETATM   25  C18 UNL     1      24.395   6.312  48.484  1.00  0.00     0.298 C 
BRANCH  25  26
HETATM   26  N3  UNL     1      25.797   6.293  48.290  1.00  0.00     0.090 N 
HETATM   27  C19 UNL     1      26.350   7.614  48.436  1.00  0.00     0.272 C 
HETATM   28  C20 UNL     1      27.845   7.564  48.694  1.00  0.00     0.030 C 
HETATM   29  C21 UNL     1      28.429   6.400  47.939  1.00  0.00     0.003 C 
HETATM   30  C22 UNL     1      27.914   5.120  48.561  1.00  0.00     0.030 C 
HETATM   31  C23 UNL     1      26.475   5.301  49.043  1.00  0.00     0.272 C 
ENDBRANCH  25  26
ENDBRANCH  24  25
ENDBRANCH  23  24
ENDBRANCH  21  23
ENDBRANCH  11  21
TORSDOF 8
ENDMDL
MODEL 5
REMARK VINA RESULT:      -7.9      2.189      8.469
REMARK  8 active torsions:
REMARK  status: ('A' for Active; 'I' for Inactive)
REMARK    1  A    between atoms: O1_1  and  C1_2 
REMARK    2  A    between atoms: C7_10  and  C8_11 
REMARK    3  A    between atoms: C8_11  and  C9_12 
REMARK    4  A    between atoms: C16_19  and  P1_20 
REMARK    5  A    between atoms: P1_20  and  O2_21 
REMARK    6  A    between atoms: O2_21  and  C17_22 
REMARK    7  A    between atoms: C17_22  and  C18_23 
REMARK    8  A    between atoms: C18_23  and  N3_24 
ROOT
HETATM    1  C1  UNL     1      24.184   3.622  52.180  1.00  0.00     0.076 A 
HETATM    2  C2  UNL     1      23.283   4.059  51.319  1.00  0.00     0.036 A 
HETATM    3  C3  UNL     1      23.595   3.554  49.946  1.00  0.00     0.077 A 
HETATM    4  C4  UNL     1      22.480   2.701  49.503  1.00  0.00     0.115 A 
HETATM    5  N1  UNL     1      21.766   2.884  48.438  1.00  0.00    -0.256 NA
HETATM    6  C5  UNL     1      22.061   3.985  47.621  1.00  0.00     0.232 A 
HETATM    7  N2  UNL     1      22.995   4.818  47.873  1.00  0.00    -0.245 NA
HETATM    8  C6  UNL     1      23.809   4.690  49.006  1.00  0.00     0.054 A 
HETATM    9  C7  UNL     1      24.780   5.539  49.294  1.00  0.00     0.007 C 
HETATM   10  C15 UNL     1      24.823   2.760  50.185  1.00  0.00     0.016 A 
HETATM   11  C16 UNL     1      25.155   2.803  51.464  1.00  0.00     0.023 A 
ENDROOT
BRANCH   1  12
HETATM   12  O1  UNL     1      24.360   3.789  53.540  1.00  0.00    -0.360 OA
HETATM   13  H1  UNL     1      24.205   4.631  54.050  1.00  0.00     0.217 HD
ENDBRANCH   1  12
BRANCH   9  14
HETATM   14  C8  UNL     1      25.154   6.736  48.486  1.00  0.00     0.067 C 
BRANCH  14  15
HETATM   15  C9  UNL     1      26.608   6.722  48.172  1.00  0.00    -0.055 A 
HETATM   16  C10 UNL     1      27.329   7.702  47.526  1.00  0.00     0.007 A 
HETATM   17  C11 UNL     1      28.669   7.569  47.300  1.00  0.00     0.001 A 
HETATM   18  C12 UNL     1      29.392   6.443  47.703  1.00  0.00     0.000 A 
HETATM   19  C13 UNL     1      28.659   5.467  48.350  1.00  0.00     0.001 A 
HETATM   20  C14 UNL     1      27.302   5.581  48.590  1.00  0.00     0.007 A 
ENDBRANCH  14  15
ENDBRANCH   9  14
BRANCH  11  21
HETATM   21  P1  UNL     1      26.655   1.845  51.849  1.00  0.00     0.048 P 
HETATM   22  H14 UNL     1      27.474   1.656  50.655  1.00  0.00     0.092 HD
BRANCH  21  23
HETATM   23  O2  UNL     1      26.298   0.304  52.508  1.00  0.00    -0.360 OA
BRANCH  23  24
HETATM   24  C17 UNL     1      25.668   0.442  53.727  1.00  0.00     0.203 C 
BRANCH  24  25
HETATM   25  C18 UNL     1      24.549  -0.553  53.911  1.00  0.00     0.298 C 
BRANCH  25  26
HETATM   26  N3  UNL     1      23.231  -0.044  53.821  1.00  0.00     0.090 N 
HETATM   27  C19 UNL     1      22.882   0.224  52.451  1.00  0.00     0.272 C 
HETATM   28  C20 UNL     1      21.377   0.319  52.270  1.00  0.00     0.030 C 
HETATM   29  C21 UNL     1      20.779   0.928  53.510  1.00  0.00     0.003 C 
HETATM   30  C22 UNL     1      20.942  -0.053  54.651  1.00  0.00     0.030 C 
HETATM   31  C23 UNL     1      22.264  -0.809  54.520  1.00  0.00     0.272 C 
ENDBRANCH  25  26
ENDBRANCH  24  25
ENDBRANCH  23  24
ENDBRANCH  21  23
ENDBRANCH  11  21
TORSDOF 8
ENDMDL
MODEL 6
REMARK VINA RESULT:      -7.7      2.115      6.771
REMARK  8 active torsions:
REMARK  status: ('A' for Active; 'I' for Inactive)
REMARK    1  A    between atoms: O1_1  and  C1_2 
REMARK    2  A    between atoms: C7_10  and  C8_11 
REMARK    3  A    between atoms: C8_11  and  C9_12 
REMARK    4  A    between atoms: C16_19  and  P1_20 
REMARK    5  A    between atoms: P1_20  and  O2_21 
REMARK    6  A    between atoms: O2_21  and  C17_22 
REMARK    7  A    between atoms: C17_22  and  C18_23 
REMARK    8  A    between atoms: C18_23  and  N3_24 
ROOT
HETATM    1  C1  UNL     1      23.408   5.879  50.780  1.00  0.00     0.076 A 
HETATM    2  C2  UNL     1      24.719   6.011  50.682  1.00  0.00     0.036 A 
HETATM    3  C3  UNL     1      25.209   5.372  49.423  1.00  0.00     0.077 A 
HETATM    4  C4  UNL     1      25.815   6.415  48.579  1.00  0.00     0.115 A 
HETATM    5  N1  UNL     1      27.033   6.419  48.142  1.00  0.00    -0.256 NA
HETATM    6  C5  UNL     1      27.867   5.347  48.488  1.00  0.00     0.232 A 
HETATM    7  N2  UNL     1      27.490   4.368  49.215  1.00  0.00    -0.245 NA
HETATM    8  C6  UNL     1      26.189   4.292  49.729  1.00  0.00     0.054 A 
HETATM    9  C7  UNL     1      25.772   3.293  50.488  1.00  0.00     0.007 C 
HETATM   10  C15 UNL     1      23.949   4.860  48.831  1.00  0.00     0.016 A 
HETATM   11  C16 UNL     1      22.924   5.153  49.612  1.00  0.00     0.023 A 
ENDROOT
BRANCH   1  12
HETATM   12  O1  UNL     1      22.480   6.277  51.722  1.00  0.00    -0.360 OA
HETATM   13  H1  UNL     1      22.602   7.002  52.394  1.00  0.00     0.217 HD
ENDBRANCH   1  12
BRANCH   9  14
HETATM   14  C8  UNL     1      26.594   2.121  50.909  1.00  0.00     0.067 C 
BRANCH  14  15
HETATM   15  C9  UNL     1      25.807   1.223  51.797  1.00  0.00    -0.055 A 
HETATM   16  C10 UNL     1      26.246   0.074  52.416  1.00  0.00     0.007 A 
HETATM   17  C11 UNL     1      25.421  -0.666  53.214  1.00  0.00     0.001 A 
HETATM   18  C12 UNL     1      24.091  -0.310  53.455  1.00  0.00     0.000 A 
HETATM   19  C13 UNL     1      23.662   0.844  52.830  1.00  0.00     0.001 A 
HETATM   20  C14 UNL     1      24.480   1.607  52.017  1.00  0.00     0.007 A 
ENDBRANCH  14  15
ENDBRANCH   9  14
BRANCH  11  21
HETATM   21  P1  UNL     1      21.331   4.565  48.955  1.00  0.00     0.048 P 
HETATM   22  H14 UNL     1      21.090   5.098  47.617  1.00  0.00     0.092 HD
BRANCH  21  23
HETATM   23  O2  UNL     1      20.009   4.998  49.956  1.00  0.00    -0.360 OA
BRANCH  23  24
HETATM   24  C17 UNL     1      19.068   3.989  49.965  1.00  0.00     0.203 C 
BRANCH  24  25
HETATM   25  C18 UNL     1      18.635   3.621  51.362  1.00  0.00     0.298 C 
BRANCH  25  26
HETATM   26  N3  UNL     1      18.734   2.254  51.714  1.00  0.00     0.090 N 
HETATM   27  C19 UNL     1      17.534   1.547  51.351  1.00  0.00     0.272 C 
HETATM   28  C20 UNL     1      17.773   0.048  51.280  1.00  0.00     0.030 C 
HETATM   29  C21 UNL     1      18.785  -0.331  52.328  1.00  0.00     0.003 C 
HETATM   30  C22 UNL     1      20.121   0.265  51.941  1.00  0.00     0.030 C 
HETATM   31  C23 UNL     1      19.926   1.625  51.272  1.00  0.00     0.272 C 
ENDBRANCH  25  26
ENDBRANCH  24  25
ENDBRANCH  23  24
ENDBRANCH  21  23
ENDBRANCH  11  21
TORSDOF 8
ENDMDL
MODEL 7
REMARK VINA RESULT:      -7.7      2.154      4.845
REMARK  8 active torsions:
REMARK  status: ('A' for Active; 'I' for Inactive)
REMARK    1  A    between atoms: O1_1  and  C1_2 
REMARK    2  A    between atoms: C7_10  and  C8_11 
REMARK    3  A    between atoms: C8_11  and  C9_12 
REMARK    4  A    between atoms: C16_19  and  P1_20 
REMARK    5  A    between atoms: P1_20  and  O2_21 
REMARK    6  A    between atoms: O2_21  and  C17_22 
REMARK    7  A    between atoms: C17_22  and  C18_23 
REMARK    8  A    between atoms: C18_23  and  N3_24 
ROOT
HETATM    1  C1  UNL     1      21.421   1.573  50.064  1.00  0.00     0.076 A 
HETATM    2  C2  UNL     1      21.097   0.419  50.618  1.00  0.00     0.036 A 
HETATM    3  C3  UNL     1      20.563   0.640  51.997  1.00  0.00     0.077 A 
HETATM    4  C4  UNL     1      19.167   0.171  52.033  1.00  0.00     0.115 A 
HETATM    5  N1  UNL     1      18.697  -0.736  52.828  1.00  0.00    -0.256 NA
HETATM    6  C5  UNL     1      19.572  -1.339  53.742  1.00  0.00     0.232 A 
HETATM    7  N2  UNL     1      20.811  -1.042  53.830  1.00  0.00    -0.245 NA
HETATM    8  C6  UNL     1      21.396  -0.074  53.004  1.00  0.00     0.054 A 
HETATM    9  C7  UNL     1      22.676   0.250  53.070  1.00  0.00     0.007 C 
HETATM   10  C15 UNL     1      20.642   2.116  52.121  1.00  0.00     0.016 A 
HETATM   11  C16 UNL     1      21.133   2.643  51.013  1.00  0.00     0.023 A 
ENDROOT
BRANCH   1  12
HETATM   12  O1  UNL     1      21.946   1.925  48.836  1.00  0.00    -0.360 OA
HETATM   13  H1  UNL     1      22.672   2.589  48.678  1.00  0.00     0.217 HD
ENDBRANCH   1  12
BRANCH   9  14
HETATM   14  C8  UNL     1      23.675  -0.346  54.004  1.00  0.00     0.067 C 
BRANCH  14  15
HETATM   15  C9  UNL     1      25.057   0.026  53.598  1.00  0.00    -0.055 A 
HETATM   16  C10 UNL     1      25.475   0.433  52.351  1.00  0.00     0.007 A 
HETATM   17  C11 UNL     1      26.781   0.752  52.105  1.00  0.00     0.001 A 
HETATM   18  C12 UNL     1      27.768   0.689  53.092  1.00  0.00     0.000 A 
HETATM   19  C13 UNL     1      27.337   0.280  54.339  1.00  0.00     0.001 A 
HETATM   20  C14 UNL     1      26.021  -0.048  54.609  1.00  0.00     0.007 A 
ENDBRANCH  14  15
ENDBRANCH   9  14
BRANCH  11  21
HETATM   21  P1  UNL     1      21.260   4.458  51.076  1.00  0.00     0.048 P 
HETATM   22  H14 UNL     1      21.721   4.994  49.799  1.00  0.00     0.092 HD
BRANCH  21  23
HETATM   23  O2  UNL     1      22.324   4.999  52.305  1.00  0.00    -0.360 OA
BRANCH  23  24
HETATM   24  C17 UNL     1      23.420   5.622  51.746  1.00  0.00     0.203 C 
BRANCH  24  25
HETATM   25  C18 UNL     1      23.481   5.445  50.249  1.00  0.00     0.298 C 
BRANCH  25  26
HETATM   26  N3  UNL     1      24.744   5.113  49.704  1.00  0.00     0.090 N 
HETATM   27  C19 UNL     1      25.434   6.295  49.261  1.00  0.00     0.272 C 
HETATM   28  C20 UNL     1      26.925   6.044  49.111  1.00  0.00     0.030 C 
HETATM   29  C21 UNL     1      27.133   4.627  48.648  1.00  0.00     0.003 C 
HETATM   30  C22 UNL     1      26.721   3.693  49.765  1.00  0.00     0.030 C 
HETATM   31  C23 UNL     1      25.528   4.265  50.528  1.00  0.00     0.272 C 
ENDBRANCH  25  26
ENDBRANCH  24  25
ENDBRANCH  23  24
ENDBRANCH  21  23
ENDBRANCH  11  21
TORSDOF 8
ENDMDL
MODEL 8
REMARK VINA RESULT:      -7.7      3.203      5.474
REMARK  8 active torsions:
REMARK  status: ('A' for Active; 'I' for Inactive)
REMARK    1  A    between atoms: O1_1  and  C1_2 
REMARK    2  A    between atoms: C7_10  and  C8_11 
REMARK    3  A    between atoms: C8_11  and  C9_12 
REMARK    4  A    between atoms: C16_19  and  P1_20 
REMARK    5  A    between atoms: P1_20  and  O2_21 
REMARK    6  A    between atoms: O2_21  and  C17_22 
REMARK    7  A    between atoms: C17_22  and  C18_23 
REMARK    8  A    between atoms: C18_23  and  N3_24 
ROOT
HETATM    1  C1  UNL     1      26.497   4.394  49.378  1.00  0.00     0.076 A 
HETATM    2  C2  UNL     1      25.846   3.246  49.432  1.00  0.00     0.036 A 
HETATM    3  C3  UNL     1      24.466   3.461  49.964  1.00  0.00     0.077 A 
HETATM    4  C4  UNL     1      23.502   3.074  48.919  1.00  0.00     0.115 A 
HETATM    5  N1  UNL     1      22.579   2.175  49.040  1.00  0.00    -0.256 NA
HETATM    6  C5  UNL     1      22.467   1.497  50.261  1.00  0.00     0.232 A 
HETATM    7  N2  UNL     1      23.230   1.717  51.261  1.00  0.00    -0.245 NA
HETATM    8  C6  UNL     1      24.254   2.671  51.209  1.00  0.00     0.054 A 
HETATM    9  C7  UNL     1      25.061   2.916  52.227  1.00  0.00     0.007 C 
HETATM   10  C15 UNL     1      24.454   4.925  50.197  1.00  0.00     0.016 A 
HETATM   11  C16 UNL     1      25.618   5.452  49.860  1.00  0.00     0.023 A 
ENDROOT
BRANCH   1  12
HETATM   12  O1  UNL     1      27.771   4.747  48.975  1.00  0.00    -0.360 OA
HETATM   13  H1  UNL     1      28.280   4.340  48.222  1.00  0.00     0.217 HD
ENDBRANCH   1  12
BRANCH   9  14
HETATM   14  C8  UNL     1      25.016   2.236  53.554  1.00  0.00     0.067 C 
BRANCH  14  15
HETATM   15  C9  UNL     1      26.347   1.665  53.893  1.00  0.00    -0.055 A 
HETATM   16  C10 UNL     1      26.600   0.537  54.642  1.00  0.00     0.007 A 
HETATM   17  C11 UNL     1      27.876   0.111  54.881  1.00  0.00     0.001 A 
HETATM   18  C12 UNL     1      28.997   0.783  54.387  1.00  0.00     0.000 A 
HETATM   19  C13 UNL     1      28.731   1.912  53.637  1.00  0.00     0.001 A 
HETATM   20  C14 UNL     1      27.448   2.361  53.383  1.00  0.00     0.007 A 
ENDBRANCH  14  15
ENDBRANCH   9  14
BRANCH  11  21
HETATM   21  P1  UNL     1      25.689   7.254  50.110  1.00  0.00     0.048 P 
HETATM   22  H14 UNL     1      24.591   7.706  50.960  1.00  0.00     0.092 HD
BRANCH  21  23
HETATM   23  O2  UNL     1      25.623   8.124  48.635  1.00  0.00    -0.360 OA
BRANCH  23  24
HETATM   24  C17 UNL     1      26.785   7.931  47.916  1.00  0.00     0.203 C 
BRANCH  24  25
HETATM   25  C18 UNL     1      27.973   8.608  48.551  1.00  0.00     0.298 C 
BRANCH  25  26
HETATM   26  N3  UNL     1      29.187   7.880  48.552  1.00  0.00     0.090 N 
HETATM   27  C19 UNL     1      29.427   7.287  47.263  1.00  0.00     0.272 C 
HETATM   28  C20 UNL     1      30.888   6.910  47.088  1.00  0.00     0.030 C 
HETATM   29  C21 UNL     1      31.437   6.474  48.420  1.00  0.00     0.003 C 
HETATM   30  C22 UNL     1      31.484   7.677  49.337  1.00  0.00     0.030 C 
HETATM   31  C23 UNL     1      30.295   8.599  49.068  1.00  0.00     0.272 C 
ENDBRANCH  25  26
ENDBRANCH  24  25
ENDBRANCH  23  24
ENDBRANCH  21  23
ENDBRANCH  11  21
TORSDOF 8
ENDMDL
MODEL 9
REMARK VINA RESULT:      -7.5      3.151      5.329
REMARK  8 active torsions:
REMARK  status: ('A' for Active; 'I' for Inactive)
REMARK    1  A    between atoms: O1_1  and  C1_2 
REMARK    2  A    between atoms: C7_10  and  C8_11 
REMARK    3  A    between atoms: C8_11  and  C9_12 
REMARK    4  A    between atoms: C16_19  and  P1_20 
REMARK    5  A    between atoms: P1_20  and  O2_21 
REMARK    6  A    between atoms: O2_21  and  C17_22 
REMARK    7  A    between atoms: C17_22  and  C18_23 
REMARK    8  A    between atoms: C18_23  and  N3_24 
ROOT
HETATM    1  C1  UNL     1      26.232   4.591  49.355  1.00  0.00     0.076 A 
HETATM    2  C2  UNL     1      25.631   3.415  49.325  1.00  0.00     0.036 A 
HETATM    3  C3  UNL     1      24.261   3.520  49.913  1.00  0.00     0.077 A 
HETATM    4  C4  UNL     1      23.281   3.185  48.866  1.00  0.00     0.115 A 
HETATM    5  N1  UNL     1      22.400   2.238  48.932  1.00  0.00    -0.256 NA
HETATM    6  C5  UNL     1      22.357   1.450  50.091  1.00  0.00     0.232 A 
HETATM    7  N2  UNL     1      23.142   1.615  51.083  1.00  0.00    -0.245 NA
HETATM    8  C6  UNL     1      24.124   2.614  51.088  1.00  0.00     0.054 A 
HETATM    9  C7  UNL     1      24.952   2.805  52.100  1.00  0.00     0.007 C 
HETATM   10  C15 UNL     1      24.195   4.956  50.277  1.00  0.00     0.016 A 
HETATM   11  C16 UNL     1      25.325   5.562  49.955  1.00  0.00     0.023 A 
ENDROOT
BRANCH   1  12
HETATM   12  O1  UNL     1      27.475   5.035  48.949  1.00  0.00    -0.360 OA
HETATM   13  H1  UNL     1      27.999   5.771  49.368  1.00  0.00     0.217 HD
ENDBRANCH   1  12
BRANCH   9  14
HETATM   14  C8  UNL     1      24.979   2.009  53.361  1.00  0.00     0.067 C 
BRANCH  14  15
HETATM   15  C9  UNL     1      26.109   1.041  53.344  1.00  0.00    -0.055 A 
HETATM   16  C10 UNL     1      27.380   1.239  53.836  1.00  0.00     0.007 A 
HETATM   17  C11 UNL     1      28.333   0.263  53.762  1.00  0.00     0.001 A 
HETATM   18  C12 UNL     1      28.086  -0.987  53.190  1.00  0.00     0.000 A 
HETATM   19  C13 UNL     1      26.809  -1.175  52.700  1.00  0.00     0.001 A 
HETATM   20  C14 UNL     1      25.829  -0.201  52.764  1.00  0.00     0.007 A 
ENDBRANCH  14  15
ENDBRANCH   9  14
BRANCH  11  21
HETATM   21  P1  UNL     1      25.329   7.336  50.364  1.00  0.00     0.048 P 
HETATM   22  H14 UNL     1      24.255   7.658  51.299  1.00  0.00     0.092 HD
BRANCH  21  23
HETATM   23  O2  UNL     1      25.153   8.329  48.978  1.00  0.00    -0.360 OA
BRANCH  23  24
HETATM   24  C17 UNL     1      26.371   8.871  48.623  1.00  0.00     0.203 C 
BRANCH  24  25
HETATM   25  C18 UNL     1      27.334   8.930  49.783  1.00  0.00     0.298 C 
BRANCH  25  26
HETATM   26  N3  UNL     1      28.696   9.140  49.461  1.00  0.00     0.090 N 
HETATM   27  C19 UNL     1      29.174   8.113  48.573  1.00  0.00     0.272 C 
HETATM   28  C20 UNL     1      30.441   8.545  47.856  1.00  0.00     0.030 C 
HETATM   29  C21 UNL     1      31.251   9.412  48.784  1.00  0.00     0.003 C 
HETATM   30  C22 UNL     1      30.501  10.709  49.003  1.00  0.00     0.030 C 
HETATM   31  C23 UNL     1      28.994  10.457  49.029  1.00  0.00     0.272 C 
ENDBRANCH  25  26
ENDBRANCH  24  25
ENDBRANCH  23  24
ENDBRANCH  21  23
ENDBRANCH  11  21
TORSDOF 8
ENDMDL
