MODEL 1
REMARK VINA RESULT:      -6.4      0.000      0.000
REMARK  8 active torsions:
REMARK  status: ('A' for Active; 'I' for Inactive)
REMARK    1  A    between atoms: C2_2  and  O1_3 
REMARK    2  A    between atoms: O1_3  and  C3_4 
REMARK    3  A    between atoms: C5_6  and  N1_7 
REMARK    4  A    between atoms: N1_7  and  C6_8 
REMARK    5  A    between atoms: C7_9  and  N2_10 
REMARK       I    between atoms: N3_14  and  C11_15 
REMARK    6  A    between atoms: C11_15  and  C12_17 
REMARK    7  A    between atoms: C13_18  and  C14_19 
REMARK    8  A    between atoms: C14_19  and  N4_20 
ROOT
HETATM    1  C3  UNL     1      24.420   1.138  52.082  1.00  0.00     0.153 A 
HETATM    2  C4  UNL     1      25.480   0.810  52.918  1.00  0.00     0.088 A 
HETATM    3  C5  UNL     1      25.186  -0.143  53.894  1.00  0.00     0.061 A 
HETATM    4  C9  UNL     1      23.923  -0.691  53.984  1.00  0.00     0.049 A 
HETATM    5  C10 UNL     1      22.912  -0.329  53.131  1.00  0.00     0.105 A 
HETATM    6  N3  UNL     1      23.196   0.591  52.188  1.00  0.00    -0.269 N 
HETATM    7  C11 UNL     1      22.200   1.019  51.265  1.00  0.00     0.253 C 
HETATM    8  O2  UNL     1      22.392   1.873  50.361  1.00  0.00    -0.268 OA
ENDROOT
BRANCH   1   9
HETATM    9  O1  UNL     1      24.678   2.088  51.096  1.00  0.00    -0.336 OA
BRANCH   9  10
HETATM   10  C2  UNL     1      25.877   2.835  51.138  1.00  0.00     0.173 C 
HETATM   11  C1  UNL     1      26.461   3.092  49.780  1.00  0.00     0.034 C 
ENDBRANCH   9  10
ENDBRANCH   1   9
BRANCH   7  12
HETATM   12  C12 UNL     1      20.849   0.505  51.279  1.00  0.00     0.073 C 
HETATM   13  C13 UNL     1      19.953   1.461  51.484  1.00  0.00     0.008 C 
BRANCH  13  14
HETATM   14  C14 UNL     1      18.474   1.277  51.554  1.00  0.00     0.299 C 
BRANCH  14  15
HETATM   15  N4  UNL     1      18.052  -0.020  51.145  1.00  0.00     0.083 N 
HETATM   16  C15 UNL     1      17.494  -0.709  52.273  1.00  0.00     0.309 C 
HETATM   17  C16 UNL     1      17.224  -0.068  49.985  1.00  0.00     0.309 C 
ENDBRANCH  14  15
ENDBRANCH  13  14
ENDBRANCH   7  12
BRANCH   3  18
HETATM   18  N1  UNL     1      26.138  -0.497  54.712  1.00  0.00    -0.260 NA
BRANCH  18  19
HETATM   19  C6  UNL     1      27.323   0.282  54.714  1.00  0.00     0.134 C 
HETATM   20  C7  UNL     1      28.616   0.292  54.917  1.00  0.00     0.102 C 
BRANCH  20  21
HETATM   21  N2  UNL     1      29.169   1.594  54.694  1.00  0.00    -0.402 N 
HETATM   22  C8  UNL     1      28.648   2.384  53.607  1.00  0.00     0.145 C 
HETATM   23  H9  UNL     1      29.877   1.660  55.435  1.00  0.00     0.158 HD
ENDBRANCH  20  21
ENDBRANCH  18  19
ENDBRANCH   3  18
TORSDOF 8
ENDMDL
MODEL 2
REMARK VINA RESULT:      -6.4      2.674      6.984
REMARK  8 active torsions:
REMARK  status: ('A' for Active; 'I' for Inactive)
REMARK    1  A    between atoms: C2_2  and  O1_3 
REMARK    2  A    between atoms: O1_3  and  C3_4 
REMARK    3  A    between atoms: C5_6  and  N1_7 
REMARK    4  A    between atoms: N1_7  and  C6_8 
REMARK    5  A    between atoms: C7_9  and  N2_10 
REMARK       I    between atoms: N3_14  and  C11_15 
REMARK    6  A    between atoms: C11_15  and  C12_17 
REMARK    7  A    between atoms: C13_18  and  C14_19 
REMARK    8  A    between atoms: C14_19  and  N4_20 
ROOT
HETATM    1  C3  UNL     1      25.773   0.825  52.822  1.00  0.00     0.153 A 
HETATM    2  C4  UNL     1      25.113  -0.067  53.658  1.00  0.00     0.088 A 
HETATM    3  C5  UNL     1      23.728  -0.121  53.484  1.00  0.00     0.061 A 
HETATM    4  C9  UNL     1      23.107   0.671  52.541  1.00  0.00     0.049 A 
HETATM    5  C10 UNL     1      23.809   1.535  51.742  1.00  0.00     0.105 A 
HETATM    6  N3  UNL     1      25.145   1.588  51.909  1.00  0.00    -0.269 N 
HETATM    7  C11 UNL     1      25.944   2.461  51.118  1.00  0.00     0.253 C 
HETATM    8  O2  UNL     1      27.195   2.563  51.218  1.00  0.00    -0.268 OA
ENDROOT
BRANCH   1   9
HETATM    9  O1  UNL     1      27.155   0.906  52.969  1.00  0.00    -0.336 OA
BRANCH   9  10
HETATM   10  C2  UNL     1      27.782   0.279  54.069  1.00  0.00     0.173 C 
HETATM   11  C1  UNL     1      28.966  -0.556  53.679  1.00  0.00     0.034 C 
ENDBRANCH   9  10
ENDBRANCH   1   9
BRANCH   7  12
HETATM   12  C12 UNL     1      25.387   3.329  50.105  1.00  0.00     0.073 C 
HETATM   13  C13 UNL     1      26.120   4.418  49.922  1.00  0.00     0.008 C 
BRANCH  13  14
HETATM   14  C14 UNL     1      25.832   5.518  48.956  1.00  0.00     0.299 C 
BRANCH  14  15
HETATM   15  N4  UNL     1      27.009   6.077  48.379  1.00  0.00     0.083 N 
HETATM   16  C15 UNL     1      27.182   7.413  48.872  1.00  0.00     0.309 C 
HETATM   17  C16 UNL     1      28.188   5.280  48.474  1.00  0.00     0.309 C 
ENDBRANCH  14  15
ENDBRANCH  13  14
ENDBRANCH   7  12
BRANCH   3  18
HETATM   18  N1  UNL     1      23.048  -0.940  54.238  1.00  0.00    -0.260 NA
BRANCH  18  19
HETATM   19  C6  UNL     1      21.638  -0.941  54.098  1.00  0.00     0.134 C 
HETATM   20  C7  UNL     1      20.545  -1.661  54.113  1.00  0.00     0.102 C 
BRANCH  20  21
HETATM   21  N2  UNL     1      19.386  -0.858  53.860  1.00  0.00    -0.402 N 
HETATM   22  C8  UNL     1      18.198  -1.505  53.365  1.00  0.00     0.145 C 
HETATM   23  H9  UNL     1      19.712   0.081  54.118  1.00  0.00     0.158 HD
ENDBRANCH  20  21
ENDBRANCH  18  19
ENDBRANCH   3  18
TORSDOF 8
ENDMDL
MODEL 3
REMARK VINA RESULT:      -6.3      1.351      1.584
REMARK  8 active torsions:
REMARK  status: ('A' for Active; 'I' for Inactive)
REMARK    1  A    between atoms: C2_2  and  O1_3 
REMARK    2  A    between atoms: O1_3  and  C3_4 
REMARK    3  A    between atoms: C5_6  and  N1_7 
REMARK    4  A    between atoms: N1_7  and  C6_8 
REMARK    5  A    between atoms: C7_9  and  N2_10 
REMARK       I    between atoms: N3_14  and  C11_15 
REMARK    6  A    between atoms: C11_15  and  C12_17 
REMARK    7  A    between atoms: C13_18  and  C14_19 
REMARK    8  A    between atoms: C14_19  and  N4_20 
ROOT
HETATM    1  C3  UNL     1      23.858   0.827  52.661  1.00  0.00     0.153 A 
HETATM    2  C4  UNL     1      25.168   0.458  52.940  1.00  0.00     0.088 A 
HETATM    3  C5  UNL     1      25.307  -0.502  53.945  1.00  0.00     0.061 A 
HETATM    4  C9  UNL     1      24.198  -1.015  54.585  1.00  0.00     0.049 A 
HETATM    5  C10 UNL     1      22.926  -0.614  54.269  1.00  0.00     0.105 A 
HETATM    6  N3  UNL     1      22.792   0.312  53.299  1.00  0.00    -0.269 N 
HETATM    7  C11 UNL     1      21.504   0.781  52.914  1.00  0.00     0.253 C 
HETATM    8  O2  UNL     1      21.301   1.642  52.018  1.00  0.00    -0.268 OA
ENDROOT
BRANCH   1   9
HETATM    9  O1  UNL     1      23.682   1.783  51.664  1.00  0.00    -0.336 OA
BRANCH   9  10
HETATM   10  C2  UNL     1      24.381   3.009  51.736  1.00  0.00     0.173 C 
HETATM   11  C1  UNL     1      23.763   3.987  52.691  1.00  0.00     0.034 C 
ENDBRANCH   9  10
ENDBRANCH   1   9
BRANCH   7  12
HETATM   12  C12 UNL     1      20.283   0.305  53.525  1.00  0.00     0.073 C 
HETATM   13  C13 UNL     1      19.494  -0.308  52.653  1.00  0.00     0.008 C 
BRANCH  13  14
HETATM   14  C14 UNL     1      18.164  -0.916  52.950  1.00  0.00     0.299 C 
BRANCH  14  15
HETATM   15  N4  UNL     1      17.208  -0.700  51.916  1.00  0.00     0.083 N 
HETATM   16  C15 UNL     1      16.055  -0.053  52.471  1.00  0.00     0.309 C 
HETATM   17  C16 UNL     1      17.700  -0.068  50.735  1.00  0.00     0.309 C 
ENDBRANCH  14  15
ENDBRANCH  13  14
ENDBRANCH   7  12
BRANCH   3  18
HETATM   18  N1  UNL     1      26.512  -0.893  54.256  1.00  0.00    -0.260 NA
BRANCH  18  19
HETATM   19  C6  UNL     1      27.505   0.105  54.416  1.00  0.00     0.134 C 
HETATM   20  C7  UNL     1      28.708   0.382  54.852  1.00  0.00     0.102 C 
BRANCH  20  21
HETATM   21  N2  UNL     1      29.038   1.758  54.635  1.00  0.00    -0.402 N 
HETATM   22  C8  UNL     1      28.451   2.435  53.506  1.00  0.00     0.145 C 
HETATM   23  H9  UNL     1      29.680   1.954  55.413  1.00  0.00     0.158 HD
ENDBRANCH  20  21
ENDBRANCH  18  19
ENDBRANCH   3  18
TORSDOF 8
ENDMDL
MODEL 4
REMARK VINA RESULT:      -6.2      2.960      6.959
REMARK  8 active torsions:
REMARK  status: ('A' for Active; 'I' for Inactive)
REMARK    1  A    between atoms: C2_2  and  O1_3 
REMARK    2  A    between atoms: O1_3  and  C3_4 
REMARK    3  A    between atoms: C5_6  and  N1_7 
REMARK    4  A    between atoms: N1_7  and  C6_8 
REMARK    5  A    between atoms: C7_9  and  N2_10 
REMARK       I    between atoms: N3_14  and  C11_15 
REMARK    6  A    between atoms: C11_15  and  C12_17 
REMARK    7  A    between atoms: C13_18  and  C14_19 
REMARK    8  A    between atoms: C14_19  and  N4_20 
ROOT
HETATM    1  C3  UNL     1      24.029   2.037  51.388  1.00  0.00     0.153 A 
HETATM    2  C4  UNL     1      23.708   1.092  52.355  1.00  0.00     0.088 A 
HETATM    3  C5  UNL     1      24.797   0.393  52.878  1.00  0.00     0.061 A 
HETATM    4  C9  UNL     1      26.077   0.655  52.438  1.00  0.00     0.049 A 
HETATM    5  C10 UNL     1      26.337   1.599  51.480  1.00  0.00     0.105 A 
HETATM    6  N3  UNL     1      25.286   2.275  50.974  1.00  0.00    -0.269 N 
HETATM    7  C11 UNL     1      25.474   3.272  49.976  1.00  0.00     0.253 C 
HETATM    8  O2  UNL     1      24.542   3.941  49.458  1.00  0.00    -0.268 OA
ENDROOT
BRANCH   1   9
HETATM    9  O1  UNL     1      22.966   2.753  50.843  1.00  0.00    -0.336 OA
BRANCH   9  10
HETATM   10  C2  UNL     1      21.790   2.074  50.452  1.00  0.00     0.173 C 
HETATM   11  C1  UNL     1      21.885   1.466  49.085  1.00  0.00     0.034 C 
ENDBRANCH   9  10
ENDBRANCH   1   9
BRANCH   7  12
HETATM   12  C12 UNL     1      26.775   3.618  49.450  1.00  0.00     0.073 C 
HETATM   13  C13 UNL     1      26.815   4.861  48.992  1.00  0.00     0.008 C 
BRANCH  13  14
HETATM   14  C14 UNL     1      27.999   5.536  48.385  1.00  0.00     0.299 C 
BRANCH  14  15
HETATM   15  N4  UNL     1      27.821   6.940  48.224  1.00  0.00     0.083 N 
HETATM   16  C15 UNL     1      26.688   7.360  48.997  1.00  0.00     0.309 C 
HETATM   17  C16 UNL     1      28.980   7.743  48.435  1.00  0.00     0.309 C 
ENDBRANCH  14  15
ENDBRANCH  13  14
ENDBRANCH   7  12
BRANCH   3  18
HETATM   18  N1  UNL     1      24.564  -0.510  53.791  1.00  0.00    -0.260 NA
BRANCH  18  19
HETATM   19  C6  UNL     1      23.214  -0.736  54.160  1.00  0.00     0.134 C 
HETATM   20  C7  UNL     1      22.402  -1.310  55.011  1.00  0.00     0.102 C 
BRANCH  20  21
HETATM   21  N2  UNL     1      21.033  -1.051  54.681  1.00  0.00    -0.402 N 
HETATM   22  C8  UNL     1      20.668   0.278  54.257  1.00  0.00     0.145 C 
HETATM   23  H9  UNL     1      20.593  -1.965  54.843  1.00  0.00     0.158 HD
ENDBRANCH  20  21
ENDBRANCH  18  19
ENDBRANCH   3  18
TORSDOF 8
ENDMDL
MODEL 5
REMARK VINA RESULT:      -6.1      2.688      4.890
REMARK  8 active torsions:
REMARK  status: ('A' for Active; 'I' for Inactive)
REMARK    1  A    between atoms: C2_2  and  O1_3 
REMARK    2  A    between atoms: O1_3  and  C3_4 
REMARK    3  A    between atoms: C5_6  and  N1_7 
REMARK    4  A    between atoms: N1_7  and  C6_8 
REMARK    5  A    between atoms: C7_9  and  N2_10 
REMARK       I    between atoms: N3_14  and  C11_15 
REMARK    6  A    between atoms: C11_15  and  C12_17 
REMARK    7  A    between atoms: C13_18  and  C14_19 
REMARK    8  A    between atoms: C14_19  and  N4_20 
ROOT
HETATM    1  C3  UNL     1      26.481   0.209  53.129  1.00  0.00     0.153 A 
HETATM    2  C4  UNL     1      27.114   1.019  52.194  1.00  0.00     0.088 A 
HETATM    3  C5  UNL     1      26.295   1.979  51.596  1.00  0.00     0.061 A 
HETATM    4  C9  UNL     1      24.963   2.079  51.941  1.00  0.00     0.049 A 
HETATM    5  C10 UNL     1      24.389   1.252  52.871  1.00  0.00     0.105 A 
HETATM    6  N3  UNL     1      25.180   0.325  53.448  1.00  0.00    -0.269 N 
HETATM    7  C11 UNL     1      24.658  -0.570  54.424  1.00  0.00     0.253 C 
HETATM    8  O2  UNL     1      25.334  -1.460  55.004  1.00  0.00    -0.268 OA
ENDROOT
BRANCH   1   9
HETATM    9  O1  UNL     1      27.268  -0.761  53.744  1.00  0.00    -0.336 OA
BRANCH   9  10
HETATM   10  C2  UNL     1      28.593  -0.450  54.126  1.00  0.00     0.173 C 
HETATM   11  C1  UNL     1      29.609  -1.399  53.560  1.00  0.00     0.034 C 
ENDBRANCH   9  10
ENDBRANCH   1   9
BRANCH   7  12
HETATM   12  C12 UNL     1      23.277  -0.545  54.851  1.00  0.00     0.073 C 
HETATM   13  C13 UNL     1      22.475  -1.149  53.984  1.00  0.00     0.008 C 
BRANCH  13  14
HETATM   14  C14 UNL     1      20.997  -1.303  54.116  1.00  0.00     0.299 C 
BRANCH  14  15
HETATM   15  N4  UNL     1      20.267  -0.516  53.179  1.00  0.00     0.083 N 
HETATM   16  C15 UNL     1      18.881  -0.879  53.242  1.00  0.00     0.309 C 
HETATM   17  C16 UNL     1      20.489   0.891  53.241  1.00  0.00     0.309 C 
ENDBRANCH  14  15
ENDBRANCH  13  14
ENDBRANCH   7  12
BRANCH   3  18
HETATM   18  N1  UNL     1      26.829   2.772  50.709  1.00  0.00    -0.260 NA
BRANCH  18  19
HETATM   19  C6  UNL     1      25.972   3.689  50.050  1.00  0.00     0.134 C 
HETATM   20  C7  UNL     1      25.875   4.849  49.451  1.00  0.00     0.102 C 
BRANCH  20  21
HETATM   21  N2  UNL     1      24.537   5.098  49.008  1.00  0.00    -0.402 N 
HETATM   22  C8  UNL     1      23.603   4.001  48.994  1.00  0.00     0.145 C 
HETATM   23  H9  UNL     1      24.565   6.100  48.783  1.00  0.00     0.158 HD
ENDBRANCH  20  21
ENDBRANCH  18  19
ENDBRANCH   3  18
TORSDOF 8
ENDMDL
MODEL 6
REMARK VINA RESULT:      -6.1      2.686      7.187
REMARK  8 active torsions:
REMARK  status: ('A' for Active; 'I' for Inactive)
REMARK    1  A    between atoms: C2_2  and  O1_3 
REMARK    2  A    between atoms: O1_3  and  C3_4 
REMARK    3  A    between atoms: C5_6  and  N1_7 
REMARK    4  A    between atoms: N1_7  and  C6_8 
REMARK    5  A    between atoms: C7_9  and  N2_10 
REMARK       I    between atoms: N3_14  and  C11_15 
REMARK    6  A    between atoms: C11_15  and  C12_17 
REMARK    7  A    between atoms: C13_18  and  C14_19 
REMARK    8  A    between atoms: C14_19  and  N4_20 
ROOT
HETATM    1  C3  UNL     1      23.960   1.863  51.351  1.00  0.00     0.153 A 
HETATM    2  C4  UNL     1      23.836   2.942  50.485  1.00  0.00     0.088 A 
HETATM    3  C5  UNL     1      25.044   3.509  50.075  1.00  0.00     0.061 A 
HETATM    4  C9  UNL     1      26.246   3.003  50.524  1.00  0.00     0.049 A 
HETATM    5  C10 UNL     1      26.310   1.935  51.381  1.00  0.00     0.105 A 
HETATM    6  N3  UNL     1      25.144   1.386  51.775  1.00  0.00    -0.269 N 
HETATM    7  C11 UNL     1      25.127   0.274  52.664  1.00  0.00     0.253 C 
HETATM    8  O2  UNL     1      24.078  -0.289  53.075  1.00  0.00    -0.268 OA
ENDROOT
BRANCH   1   9
HETATM    9  O1  UNL     1      22.774   1.272  51.780  1.00  0.00    -0.336 OA
BRANCH   9  10
HETATM   10  C2  UNL     1      21.625   2.070  51.980  1.00  0.00     0.173 C 
HETATM   11  C1  UNL     1      20.660   1.480  52.966  1.00  0.00     0.034 C 
ENDBRANCH   9  10
ENDBRANCH   1   9
BRANCH   7  12
HETATM   12  C12 UNL     1      26.332  -0.327  53.189  1.00  0.00     0.073 C 
HETATM   13  C13 UNL     1      26.842   0.372  54.194  1.00  0.00     0.008 C 
BRANCH  13  14
HETATM   14  C14 UNL     1      28.076   0.033  54.962  1.00  0.00     0.299 C 
BRANCH  14  15
HETATM   15  N4  UNL     1      29.231   0.723  54.494  1.00  0.00     0.083 N 
HETATM   16  C15 UNL     1      29.942  -0.121  53.577  1.00  0.00     0.309 C 
HETATM   17  C16 UNL     1      29.010   2.041  53.996  1.00  0.00     0.309 C 
ENDBRANCH  14  15
ENDBRANCH  13  14
ENDBRANCH   7  12
BRANCH   3  18
HETATM   18  N1  UNL     1      24.998   4.527  49.260  1.00  0.00    -0.260 NA
BRANCH  18  19
HETATM   19  C6  UNL     1      26.180   5.291  49.098  1.00  0.00     0.134 C 
HETATM   20  C7  UNL     1      26.748   6.297  48.483  1.00  0.00     0.102 C 
BRANCH  20  21
HETATM   21  N2  UNL     1      28.109   6.461  48.896  1.00  0.00    -0.402 N 
HETATM   22  C8  UNL     1      29.122   5.660  48.256  1.00  0.00     0.145 C 
HETATM   23  H9  UNL     1      28.031   7.183  49.622  1.00  0.00     0.158 HD
ENDBRANCH  20  21
ENDBRANCH  18  19
ENDBRANCH   3  18
TORSDOF 8
ENDMDL
MODEL 7
REMARK VINA RESULT:      -6.1      2.610      4.134
REMARK  8 active torsions:
REMARK  status: ('A' for Active; 'I' for Inactive)
REMARK    1  A    between atoms: C2_2  and  O1_3 
REMARK    2  A    between atoms: O1_3  and  C3_4 
REMARK    3  A    between atoms: C5_6  and  N1_7 
REMARK    4  A    between atoms: N1_7  and  C6_8 
REMARK    5  A    between atoms: C7_9  and  N2_10 
REMARK       I    between atoms: N3_14  and  C11_15 
REMARK    6  A    between atoms: C11_15  and  C12_17 
REMARK    7  A    between atoms: C13_18  and  C14_19 
REMARK    8  A    between atoms: C14_19  and  N4_20 
ROOT
HETATM    1  C3  UNL     1      23.751   0.038  53.065  1.00  0.00     0.153 A 
HETATM    2  C4  UNL     1      24.745  -0.138  54.019  1.00  0.00     0.088 A 
HETATM    3  C5  UNL     1      25.769   0.811  53.983  1.00  0.00     0.061 A 
HETATM    4  C9  UNL     1      25.752   1.828  53.052  1.00  0.00     0.049 A 
HETATM    5  C10 UNL     1      24.744   1.955  52.132  1.00  0.00     0.105 A 
HETATM    6  N3  UNL     1      23.755   1.039  52.166  1.00  0.00    -0.269 N 
HETATM    7  C11 UNL     1      22.673   1.102  51.243  1.00  0.00     0.253 C 
HETATM    8  O2  UNL     1      21.717   0.284  51.215  1.00  0.00    -0.268 OA
ENDROOT
BRANCH   1   9
HETATM    9  O1  UNL     1      22.713  -0.891  53.070  1.00  0.00    -0.336 OA
BRANCH   9  10
HETATM   10  C2  UNL     1      22.007  -1.147  54.268  1.00  0.00     0.173 C 
HETATM   11  C1  UNL     1      21.123  -0.010  54.687  1.00  0.00     0.034 C 
ENDBRANCH   9  10
ENDBRANCH   1   9
BRANCH   7  12
HETATM   12  C12 UNL     1      22.566   2.129  50.231  1.00  0.00     0.073 C 
HETATM   13  C13 UNL     1      21.620   3.014  50.515  1.00  0.00     0.008 C 
BRANCH  13  14
HETATM   14  C14 UNL     1      21.249   4.197  49.686  1.00  0.00     0.299 C 
BRANCH  14  15
HETATM   15  N4  UNL     1      21.870   5.402  50.123  1.00  0.00     0.083 N 
HETATM   16  C15 UNL     1      21.884   5.430  51.557  1.00  0.00     0.309 C 
HETATM   17  C16 UNL     1      23.138   5.696  49.538  1.00  0.00     0.309 C 
ENDBRANCH  14  15
ENDBRANCH  13  14
ENDBRANCH   7  12
BRANCH   3  18
HETATM   18  N1  UNL     1      26.734   0.703  54.854  1.00  0.00    -0.260 NA
BRANCH  18  19
HETATM   19  C6  UNL     1      28.055   0.576  54.355  1.00  0.00     0.134 C 
HETATM   20  C7  UNL     1      29.222   1.152  54.210  1.00  0.00     0.102 C 
BRANCH  20  21
HETATM   21  N2  UNL     1      30.146   0.294  53.531  1.00  0.00    -0.402 N 
HETATM   22  C8  UNL     1      29.865  -1.119  53.485  1.00  0.00     0.145 C 
HETATM   23  H9  UNL     1      30.861   0.957  53.207  1.00  0.00     0.158 HD
ENDBRANCH  20  21
ENDBRANCH  18  19
ENDBRANCH   3  18
TORSDOF 8
ENDMDL
MODEL 8
REMARK VINA RESULT:      -6.1      3.517      6.871
REMARK  8 active torsions:
REMARK  status: ('A' for Active; 'I' for Inactive)
REMARK    1  A    between atoms: C2_2  and  O1_3 
REMARK    2  A    between atoms: O1_3  and  C3_4 
REMARK    3  A    between atoms: C5_6  and  N1_7 
REMARK    4  A    between atoms: N1_7  and  C6_8 
REMARK    5  A    between atoms: C7_9  and  N2_10 
REMARK       I    between atoms: N3_14  and  C11_15 
REMARK    6  A    between atoms: C11_15  and  C12_17 
REMARK    7  A    between atoms: C13_18  and  C14_19 
REMARK    8  A    between atoms: C14_19  and  N4_20 
ROOT
HETATM    1  C3  UNL     1      24.247   2.942  50.516  1.00  0.00     0.153 A 
HETATM    2  C4  UNL     1      24.045   1.885  51.394  1.00  0.00     0.088 A 
HETATM    3  C5  UNL     1      25.210   1.343  51.941  1.00  0.00     0.061 A 
HETATM    4  C9  UNL     1      26.446   1.852  51.604  1.00  0.00     0.049 A 
HETATM    5  C10 UNL     1      26.588   2.899  50.730  1.00  0.00     0.105 A 
HETATM    6  N3  UNL     1      25.464   3.422  50.203  1.00  0.00    -0.269 N 
HETATM    7  C11 UNL     1      25.528   4.511  49.288  1.00  0.00     0.253 C 
HETATM    8  O2  UNL     1      24.522   5.049  48.755  1.00  0.00    -0.268 OA
ENDROOT
BRANCH   1   9
HETATM    9  O1  UNL     1      23.106   3.507  49.951  1.00  0.00    -0.336 OA
BRANCH   9  10
HETATM   10  C2  UNL     1      22.120   2.672  49.378  1.00  0.00     0.173 C 
HETATM   11  C1  UNL     1      22.458   2.227  47.986  1.00  0.00     0.034 C 
ENDBRANCH   9  10
ENDBRANCH   1   9
BRANCH   7  12
HETATM   12  C12 UNL     1      26.775   5.113  48.873  1.00  0.00     0.073 C 
HETATM   13  C13 UNL     1      26.724   6.437  48.900  1.00  0.00     0.008 C 
BRANCH  13  14
HETATM   14  C14 UNL     1      27.833   7.366  48.535  1.00  0.00     0.299 C 
BRANCH  14  15
HETATM   15  N4  UNL     1      27.658   8.679  49.059  1.00  0.00     0.083 N 
HETATM   16  C15 UNL     1      26.688   8.636  50.115  1.00  0.00     0.309 C 
HETATM   17  C16 UNL     1      28.853   9.371  49.415  1.00  0.00     0.309 C 
ENDBRANCH  14  15
ENDBRANCH  13  14
ENDBRANCH   7  12
BRANCH   3  18
HETATM   18  N1  UNL     1      25.089   0.347  52.774  1.00  0.00    -0.260 NA
BRANCH  18  19
HETATM   19  C6  UNL     1      26.156   0.116  53.678  1.00  0.00     0.134 C 
HETATM   20  C7  UNL     1      26.551   0.155  54.926  1.00  0.00     0.102 C 
BRANCH  20  21
HETATM   21  N2  UNL     1      27.909  -0.278  55.057  1.00  0.00    -0.402 N 
HETATM   22  C8  UNL     1      28.939   0.478  54.389  1.00  0.00     0.145 C 
HETATM   23  H9  UNL     1      27.817  -1.107  55.656  1.00  0.00     0.158 HD
ENDBRANCH  20  21
ENDBRANCH  18  19
ENDBRANCH   3  18
TORSDOF 8
ENDMDL
MODEL 9
REMARK VINA RESULT:      -6.0      1.654      7.637
REMARK  8 active torsions:
REMARK  status: ('A' for Active; 'I' for Inactive)
REMARK    1  A    between atoms: C2_2  and  O1_3 
REMARK    2  A    between atoms: O1_3  and  C3_4 
REMARK    3  A    between atoms: C5_6  and  N1_7 
REMARK    4  A    between atoms: N1_7  and  C6_8 
REMARK    5  A    between atoms: C7_9  and  N2_10 
REMARK       I    between atoms: N3_14  and  C11_15 
REMARK    6  A    between atoms: C11_15  and  C12_17 
REMARK    7  A    between atoms: C13_18  and  C14_19 
REMARK    8  A    between atoms: C14_19  and  N4_20 
ROOT
HETATM    1  C3  UNL     1      22.349   0.979  52.509  1.00  0.00     0.153 A 
HETATM    2  C4  UNL     1      20.989   0.722  52.637  1.00  0.00     0.088 A 
HETATM    3  C5  UNL     1      20.673  -0.402  53.401  1.00  0.00     0.061 A 
HETATM    4  C9  UNL     1      21.669  -1.171  53.966  1.00  0.00     0.049 A 
HETATM    5  C10 UNL     1      22.997  -0.871  53.807  1.00  0.00     0.105 A 
HETATM    6  N3  UNL     1      23.303   0.215  53.070  1.00  0.00    -0.269 N 
HETATM    7  C11 UNL     1      24.659   0.593  52.858  1.00  0.00     0.253 C 
HETATM    8  O2  UNL     1      25.020   1.592  52.182  1.00  0.00    -0.268 OA
ENDROOT
BRANCH   1   9
HETATM    9  O1  UNL     1      22.701   2.095  51.753  1.00  0.00    -0.336 OA
BRANCH   9  10
HETATM   10  C2  UNL     1      21.917   3.268  51.825  1.00  0.00     0.173 C 
HETATM   11  C1  UNL     1      22.679   4.459  52.326  1.00  0.00     0.034 C 
ENDBRANCH   9  10
ENDBRANCH   1   9
BRANCH   7  12
HETATM   12  C12 UNL     1      25.773  -0.148  53.407  1.00  0.00     0.073 C 
HETATM   13  C13 UNL     1      26.569   0.617  54.141  1.00  0.00     0.008 C 
BRANCH  13  14
HETATM   14  C14 UNL     1      27.804   0.173  54.851  1.00  0.00     0.299 C 
BRANCH  14  15
HETATM   15  N4  UNL     1      28.982   0.823  54.382  1.00  0.00     0.083 N 
HETATM   16  C15 UNL     1      29.751  -0.105  53.605  1.00  0.00     0.309 C 
HETATM   17  C16 UNL     1      28.784   2.078  53.734  1.00  0.00     0.309 C 
ENDBRANCH  14  15
ENDBRANCH  13  14
ENDBRANCH   7  12
BRANCH   3  18
HETATM   18  N1  UNL     1      19.413  -0.699  53.561  1.00  0.00    -0.260 NA
BRANCH  18  19
HETATM   19  C6  UNL     1      18.556  -0.546  52.442  1.00  0.00     0.134 C 
HETATM   20  C7  UNL     1      17.336  -0.663  51.984  1.00  0.00     0.102 C 
BRANCH  20  21
HETATM   21  N2  UNL     1      17.255  -0.275  50.609  1.00  0.00    -0.402 N 
HETATM   22  C8  UNL     1      18.162   0.736  50.126  1.00  0.00     0.145 C 
HETATM   23  H9  UNL     1      16.493  -0.869  50.259  1.00  0.00     0.158 HD
ENDBRANCH  20  21
ENDBRANCH  18  19
ENDBRANCH   3  18
TORSDOF 8
ENDMDL
