MODEL 1
REMARK VINA RESULT:      -8.8      0.000      0.000
REMARK  6 active torsions:
REMARK  status: ('A' for Active; 'I' for Inactive)
REMARK    1  A    between atoms: C2_2  and  C3_3 
REMARK    2  A    between atoms: N1_5  and  C6_8 
REMARK    3  A    between atoms: N2_7  and  C6_8 
REMARK    4  A    between atoms: C8_11  and  C9_12 
REMARK    5  A    between atoms: C8_11  and  C15_19 
REMARK    6  A    between atoms: C12_15  and  O1_16 
ROOT
HETATM    1  C3  UNL     1      23.524   0.683  53.049  1.00  0.00     0.172 A 
HETATM    2  C4  UNL     1      22.745   1.689  52.526  1.00  0.00     0.463 A 
HETATM    3  N1  UNL     1      21.693   2.534  52.114  1.00  0.00     0.251 N 
HETATM    4  C5  UNL     1      20.405   2.123  52.431  1.00  0.00     0.543 A 
HETATM    5  N2  UNL     1      21.676   2.584  52.086  1.00  0.00     0.251 N 
HETATM    6  C6  UNL     1      22.802   1.800  52.461  1.00  0.00     0.464 A 
HETATM    7  N3  UNL     1      23.841   3.094  52.662  1.00  0.00    -0.323 N 
HETATM    8  C7  UNL     1      23.700   4.291  53.471  1.00  0.00     0.151 C 
HETATM    9  C8  UNL     1      24.860   2.501  51.680  1.00  0.00     0.162 C 
HETATM   10  N4  UNL     1      23.651   1.777  51.064  1.00  0.00    -0.328 N 
HETATM   11  H17 UNL     1      23.509   1.507  50.033  1.00  0.00     0.160 HD
ENDROOT
BRANCH   9  12
HETATM   12  C9  UNL     1      25.783   1.631  52.308  1.00  0.00    -0.005 A 
HETATM   13  C10 UNL     1      26.121   0.429  51.739  1.00  0.00     0.014 A 
HETATM   14  C11 UNL     1      27.005  -0.442  52.293  1.00  0.00     0.037 A 
HETATM   15  C12 UNL     1      27.606  -0.104  53.504  1.00  0.00     0.065 A 
HETATM   16  C13 UNL     1      27.282   1.101  54.096  1.00  0.00     0.037 A 
HETATM   17  C14 UNL     1      26.383   1.971  53.520  1.00  0.00     0.014 A 
BRANCH  15  18
HETATM   18  O1  UNL     1      28.527  -0.889  54.188  1.00  0.00    -0.361 OA
HETATM   19  H10 UNL     1      29.028  -0.430  54.954  1.00  0.00     0.217 HD
ENDBRANCH  15  18
ENDBRANCH   9  12
BRANCH   9  20
HETATM   20  C15 UNL     1      25.292   3.483  50.706  1.00  0.00    -0.002 A 
HETATM   21  C16 UNL     1      26.586   3.276  50.265  1.00  0.00     0.012 A 
HETATM   22  C17 UNL     1      27.121   4.154  49.304  1.00  0.00     0.004 A 
HETATM   23  C18 UNL     1      26.418   5.217  48.776  1.00  0.00     0.042 A 
HETATM   24  C19 UNL     1      25.132   5.406  49.228  1.00  0.00     0.117 A 
HETATM   25  F1  UNL     1      24.422   6.435  48.732  1.00  0.00    -0.206 F 
HETATM   26  C20 UNL     1      24.616   4.548  50.164  1.00  0.00     0.054 A 
ENDBRANCH   9  20
BRANCH   1  27
HETATM   27  C2  UNL     1      23.024  -0.471  53.845  1.00  0.00    -0.013 C 
HETATM   28  C1  UNL     1      24.100  -0.658  54.517  1.00  0.00     0.008 C 
ENDBRANCH   1  27
TORSDOF 6
ENDMDL
MODEL 2
REMARK VINA RESULT:      -8.2      2.724      5.122
REMARK  6 active torsions:
REMARK  status: ('A' for Active; 'I' for Inactive)
REMARK    1  A    between atoms: C2_2  and  C3_3 
REMARK    2  A    between atoms: N1_5  and  C6_8 
REMARK    3  A    between atoms: N2_7  and  C6_8 
REMARK    4  A    between atoms: C8_11  and  C9_12 
REMARK    5  A    between atoms: C8_11  and  C15_19 
REMARK    6  A    between atoms: C12_15  and  O1_16 
ROOT
HETATM    1  C3  UNL     1      23.700   4.121  51.287  1.00  0.00     0.172 A 
HETATM    2  C4  UNL     1      22.367   3.850  51.085  1.00  0.00     0.463 A 
HETATM    3  N1  UNL     1      20.997   3.882  50.747  1.00  0.00     0.251 N 
HETATM    4  C5  UNL     1      20.531   5.047  50.153  1.00  0.00     0.543 A 
HETATM    5  N2  UNL     1      20.944   3.853  50.746  1.00  0.00     0.251 N 
HETATM    6  C6  UNL     1      22.310   3.726  51.121  1.00  0.00     0.464 A 
HETATM    7  N3  UNL     1      22.396   2.076  50.860  1.00  0.00    -0.323 N 
HETATM    8  C7  UNL     1      22.065   1.297  49.680  1.00  0.00     0.151 C 
HETATM    9  C8  UNL     1      22.890   1.818  52.289  1.00  0.00     0.162 C 
HETATM   10  N4  UNL     1      22.167   3.131  52.638  1.00  0.00    -0.328 N 
HETATM   11  H17 UNL     1      21.691   3.386  53.568  1.00  0.00     0.160 HD
ENDROOT
BRANCH   9  12
HETATM   12  C9  UNL     1      24.299   1.898  52.405  1.00  0.00    -0.005 A 
HETATM   13  C10 UNL     1      25.117   1.369  51.440  1.00  0.00     0.014 A 
HETATM   14  C11 UNL     1      26.474   1.422  51.496  1.00  0.00     0.037 A 
HETATM   15  C12 UNL     1      27.075   2.044  52.588  1.00  0.00     0.065 A 
HETATM   16  C13 UNL     1      26.271   2.585  53.572  1.00  0.00     0.037 A 
HETATM   17  C14 UNL     1      24.896   2.522  53.499  1.00  0.00     0.014 A 
BRANCH  15  18
HETATM   18  O1  UNL     1      28.444   2.177  52.782  1.00  0.00    -0.361 OA
HETATM   19  H10 UNL     1      29.030   2.054  51.951  1.00  0.00     0.217 HD
ENDBRANCH  15  18
ENDBRANCH   9  12
BRANCH   9  20
HETATM   20  C15 UNL     1      22.140   0.754  52.926  1.00  0.00    -0.002 A 
HETATM   21  C16 UNL     1      22.942  -0.135  53.617  1.00  0.00     0.012 A 
HETATM   22  C17 UNL     1      22.332  -1.209  54.293  1.00  0.00     0.004 A 
HETATM   23  C18 UNL     1      20.970  -1.421  54.304  1.00  0.00     0.042 A 
HETATM   24  C19 UNL     1      20.189  -0.524  53.611  1.00  0.00     0.117 A 
HETATM   25  F1  UNL     1      18.857  -0.706  53.602  1.00  0.00    -0.206 F 
HETATM   26  C20 UNL     1      20.788   0.519  52.953  1.00  0.00     0.054 A 
ENDBRANCH   9  20
BRANCH   1  27
HETATM   27  C2  UNL     1      24.407   5.352  50.841  1.00  0.00    -0.013 C 
HETATM   28  C1  UNL     1      25.301   4.758  50.139  1.00  0.00     0.008 C 
ENDBRANCH   1  27
TORSDOF 6
ENDMDL
MODEL 3
REMARK VINA RESULT:      -7.9      2.831      3.693
REMARK  6 active torsions:
REMARK  status: ('A' for Active; 'I' for Inactive)
REMARK    1  A    between atoms: C2_2  and  C3_3 
REMARK    2  A    between atoms: N1_5  and  C6_8 
REMARK    3  A    between atoms: N2_7  and  C6_8 
REMARK    4  A    between atoms: C8_11  and  C9_12 
REMARK    5  A    between atoms: C8_11  and  C15_19 
REMARK    6  A    between atoms: C12_15  and  O1_16 
ROOT
HETATM    1  C3  UNL     1      21.655   0.321  53.277  1.00  0.00     0.172 A 
HETATM    2  C4  UNL     1      20.495   0.348  52.537  1.00  0.00     0.463 A 
HETATM    3  N1  UNL     1      19.199   0.159  52.014  1.00  0.00     0.251 N 
HETATM    4  C5  UNL     1      18.368  -0.709  52.710  1.00  0.00     0.543 A 
HETATM    5  N2  UNL     1      19.159   0.173  51.971  1.00  0.00     0.251 N 
HETATM    6  C6  UNL     1      20.483   0.428  52.422  1.00  0.00     0.464 A 
HETATM    7  N3  UNL     1      20.543   2.003  51.862  1.00  0.00    -0.323 N 
HETATM    8  C7  UNL     1      19.645   3.118  52.106  1.00  0.00     0.151 C 
HETATM    9  C8  UNL     1      21.813   1.725  51.048  1.00  0.00     0.162 C 
HETATM   10  N4  UNL     1      21.328   0.265  51.031  1.00  0.00    -0.328 N 
HETATM   11  H17 UNL     1      21.480  -0.463  50.255  1.00  0.00     0.160 HD
ENDROOT
BRANCH   9  12
HETATM   12  C9  UNL     1      22.998   1.920  51.797  1.00  0.00    -0.005 A 
HETATM   13  C10 UNL     1      24.051   1.047  51.695  1.00  0.00     0.014 A 
HETATM   14  C11 UNL     1      25.213   1.188  52.384  1.00  0.00     0.037 A 
HETATM   15  C12 UNL     1      25.353   2.277  53.243  1.00  0.00     0.065 A 
HETATM   16  C13 UNL     1      24.307   3.170  53.362  1.00  0.00     0.037 A 
HETATM   17  C14 UNL     1      23.135   3.011  52.655  1.00  0.00     0.014 A 
BRANCH  15  18
HETATM   18  O1  UNL     1      26.479   2.553  54.009  1.00  0.00    -0.361 OA
HETATM   19  H10 UNL     1      26.921   3.462  53.847  1.00  0.00     0.217 HD
ENDBRANCH  15  18
ENDBRANCH   9  12
BRANCH   9  20
HETATM   20  C15 UNL     1      21.690   2.215  49.690  1.00  0.00    -0.002 A 
HETATM   21  C16 UNL     1      22.878   2.709  49.182  1.00  0.00     0.012 A 
HETATM   22  C17 UNL     1      22.895   3.203  47.864  1.00  0.00     0.004 A 
HETATM   23  C18 UNL     1      21.784   3.220  47.048  1.00  0.00     0.042 A 
HETATM   24  C19 UNL     1      20.612   2.723  47.571  1.00  0.00     0.117 A 
HETATM   25  F1  UNL     1      19.512   2.728  46.799  1.00  0.00    -0.206 F 
HETATM   26  C20 UNL     1      20.600   2.244  48.855  1.00  0.00     0.054 A 
ENDBRANCH   9  20
BRANCH   1  27
HETATM   27  C2  UNL     1      21.842  -0.406  54.561  1.00  0.00    -0.013 C 
HETATM   28  C1  UNL     1      22.969  -0.940  54.261  1.00  0.00     0.008 C 
ENDBRANCH   1  27
TORSDOF 6
ENDMDL
MODEL 4
REMARK VINA RESULT:      -7.8      3.600      6.242
REMARK  6 active torsions:
REMARK  status: ('A' for Active; 'I' for Inactive)
REMARK    1  A    between atoms: C2_2  and  C3_3 
REMARK    2  A    between atoms: N1_5  and  C6_8 
REMARK    3  A    between atoms: N2_7  and  C6_8 
REMARK    4  A    between atoms: C8_11  and  C9_12 
REMARK    5  A    between atoms: C8_11  and  C15_19 
REMARK    6  A    between atoms: C12_15  and  O1_16 
ROOT
HETATM    1  C3  UNL     1      23.177   4.675  48.797  1.00  0.00     0.172 A 
HETATM    2  C4  UNL     1      24.346   4.887  49.491  1.00  0.00     0.463 A 
HETATM    3  N1  UNL     1      25.578   5.362  49.986  1.00  0.00     0.251 N 
HETATM    4  C5  UNL     1      26.120   6.469  49.347  1.00  0.00     0.543 A 
HETATM    5  N2  UNL     1      25.623   5.355  50.026  1.00  0.00     0.251 N 
HETATM    6  C6  UNL     1      24.383   4.805  49.599  1.00  0.00     0.464 A 
HETATM    7  N3  UNL     1      23.909   4.280  51.115  1.00  0.00    -0.323 N 
HETATM    8  C7  UNL     1      23.797   5.009  52.366  1.00  0.00     0.151 C 
HETATM    9  C8  UNL     1      23.715   2.842  50.618  1.00  0.00     0.162 C 
HETATM   10  N4  UNL     1      24.747   3.212  49.539  1.00  0.00    -0.328 N 
HETATM   11  H17 UNL     1      25.465   2.562  49.073  1.00  0.00     0.160 HD
ENDROOT
BRANCH   9  12
HETATM   12  C9  UNL     1      22.416   2.610  50.105  1.00  0.00    -0.005 A 
HETATM   13  C10 UNL     1      22.210   1.727  49.076  1.00  0.00     0.014 A 
HETATM   14  C11 UNL     1      20.986   1.461  48.549  1.00  0.00     0.037 A 
HETATM   15  C12 UNL     1      19.874   2.116  49.076  1.00  0.00     0.065 A 
HETATM   16  C13 UNL     1      20.057   3.009  50.114  1.00  0.00     0.037 A 
HETATM   17  C14 UNL     1      21.306   3.266  50.635  1.00  0.00     0.014 A 
BRANCH  15  18
HETATM   18  O1  UNL     1      18.565   1.946  48.644  1.00  0.00    -0.361 OA
HETATM   19  H10 UNL     1      18.015   1.240  49.141  1.00  0.00     0.217 HD
ENDBRANCH  15  18
ENDBRANCH   9  12
BRANCH   9  20
HETATM   20  C15 UNL     1      24.361   1.886  51.494  1.00  0.00    -0.002 A 
HETATM   21  C16 UNL     1      23.472   1.214  52.313  1.00  0.00     0.012 A 
HETATM   22  C17 UNL     1      23.973   0.245  53.203  1.00  0.00     0.004 A 
HETATM   23  C18 UNL     1      25.311  -0.071  53.301  1.00  0.00     0.042 A 
HETATM   24  C19 UNL     1      26.180   0.608  52.478  1.00  0.00     0.117 A 
HETATM   25  F1  UNL     1      27.491   0.321  52.553  1.00  0.00    -0.206 F 
HETATM   26  C20 UNL     1      25.687   1.550  51.613  1.00  0.00     0.054 A 
ENDBRANCH   9  20
BRANCH   1  27
HETATM   27  C2  UNL     1      22.649   5.543  47.710  1.00  0.00    -0.013 C 
HETATM   28  C1  UNL     1      22.168   4.597  46.991  1.00  0.00     0.008 C 
ENDBRANCH   1  27
TORSDOF 6
ENDMDL
MODEL 5
REMARK VINA RESULT:      -7.7      3.460      6.290
REMARK  6 active torsions:
REMARK  status: ('A' for Active; 'I' for Inactive)
REMARK    1  A    between atoms: C2_2  and  C3_3 
REMARK    2  A    between atoms: N1_5  and  C6_8 
REMARK    3  A    between atoms: N2_7  and  C6_8 
REMARK    4  A    between atoms: C8_11  and  C9_12 
REMARK    5  A    between atoms: C8_11  and  C15_19 
REMARK    6  A    between atoms: C12_15  and  O1_16 
ROOT
HETATM    1  C3  UNL     1      25.586   3.036  50.372  1.00  0.00     0.172 A 
HETATM    2  C4  UNL     1      25.791   2.559  51.645  1.00  0.00     0.463 A 
HETATM    3  N1  UNL     1      26.327   2.120  52.874  1.00  0.00     0.251 N 
HETATM    4  C5  UNL     1      27.710   2.159  52.999  1.00  0.00     0.543 A 
HETATM    5  N2  UNL     1      26.317   2.098  52.929  1.00  0.00     0.251 N 
HETATM    6  C6  UNL     1      25.684   2.522  51.728  1.00  0.00     0.464 A 
HETATM    7  N3  UNL     1      24.295   3.086  52.468  1.00  0.00    -0.323 N 
HETATM    8  C7  UNL     1      24.131   4.039  53.551  1.00  0.00     0.151 C 
HETATM    9  C8  UNL     1      23.400   2.199  51.591  1.00  0.00     0.162 C 
HETATM   10  N4  UNL     1      24.637   1.292  51.472  1.00  0.00    -0.328 N 
HETATM   11  H17 UNL     1      24.652   0.222  51.365  1.00  0.00     0.160 HD
ENDROOT
BRANCH   9  12
HETATM   12  C9  UNL     1      23.035   2.823  50.374  1.00  0.00    -0.005 A 
HETATM   13  C10 UNL     1      22.982   2.112  49.203  1.00  0.00     0.014 A 
HETATM   14  C11 UNL     1      22.632   2.657  48.008  1.00  0.00     0.037 A 
HETATM   15  C12 UNL     1      22.307   4.011  47.961  1.00  0.00     0.065 A 
HETATM   16  C13 UNL     1      22.351   4.748  49.128  1.00  0.00     0.037 A 
HETATM   17  C14 UNL     1      22.709   4.179  50.330  1.00  0.00     0.014 A 
BRANCH  15  18
HETATM   18  O1  UNL     1      21.930   4.705  46.818  1.00  0.00    -0.361 OA
HETATM   19  H10 UNL     1      22.581   5.424  46.494  1.00  0.00     0.217 HD
ENDBRANCH  15  18
ENDBRANCH   9  12
BRANCH   9  20
HETATM   20  C15 UNL     1      22.431   1.472  52.386  1.00  0.00    -0.002 A 
HETATM   21  C16 UNL     1      21.125   1.713  52.003  1.00  0.00     0.012 A 
HETATM   22  C17 UNL     1      20.087   1.054  52.688  1.00  0.00     0.004 A 
HETATM   23  C18 UNL     1      20.306   0.176  53.728  1.00  0.00     0.042 A 
HETATM   24  C19 UNL     1      21.613  -0.051  54.095  1.00  0.00     0.117 A 
HETATM   25  F1  UNL     1      21.857  -0.902  55.106  1.00  0.00    -0.206 F 
HETATM   26  C20 UNL     1      22.620   0.593  53.424  1.00  0.00     0.054 A 
ENDBRANCH   9  20
BRANCH   1  27
HETATM   27  C2  UNL     1      26.644   3.552  49.462  1.00  0.00    -0.013 C 
HETATM   28  C1  UNL     1      26.089   4.684  49.223  1.00  0.00     0.008 C 
ENDBRANCH   1  27
TORSDOF 6
ENDMDL
MODEL 6
REMARK VINA RESULT:      -7.7      3.202      5.980
REMARK  6 active torsions:
REMARK  status: ('A' for Active; 'I' for Inactive)
REMARK    1  A    between atoms: C2_2  and  C3_3 
REMARK    2  A    between atoms: N1_5  and  C6_8 
REMARK    3  A    between atoms: N2_7  and  C6_8 
REMARK    4  A    between atoms: C8_11  and  C9_12 
REMARK    5  A    between atoms: C8_11  and  C15_19 
REMARK    6  A    between atoms: C12_15  and  O1_16 
ROOT
HETATM    1  C3  UNL     1      22.779   2.304  52.497  1.00  0.00     0.172 A 
HETATM    2  C4  UNL     1      22.163   2.932  51.440  1.00  0.00     0.463 A 
HETATM    3  N1  UNL     1      21.794   3.786  50.378  1.00  0.00     0.251 N 
HETATM    4  C5  UNL     1      22.647   4.849  50.111  1.00  0.00     0.543 A 
HETATM    5  N2  UNL     1      21.754   3.799  50.335  1.00  0.00     0.251 N 
HETATM    6  C6  UNL     1      22.042   2.883  51.385  1.00  0.00     0.464 A 
HETATM    7  N3  UNL     1      21.340   1.560  50.642  1.00  0.00    -0.323 N 
HETATM    8  C7  UNL     1      21.572   0.992  49.326  1.00  0.00     0.151 C 
HETATM    9  C8  UNL     1      20.428   1.297  51.848  1.00  0.00     0.162 C 
HETATM   10  N4  UNL     1      20.593   2.798  52.137  1.00  0.00    -0.328 N 
HETATM   11  H17 UNL     1      19.874   3.457  52.590  1.00  0.00     0.160 HD
ENDROOT
BRANCH   9  12
HETATM   12  C9  UNL     1      21.031   0.462  52.819  1.00  0.00    -0.005 A 
HETATM   13  C10 UNL     1      21.846  -0.578  52.449  1.00  0.00     0.014 A 
HETATM   14  C11 UNL     1      22.455  -1.407  53.337  1.00  0.00     0.037 A 
HETATM   15  C12 UNL     1      22.248  -1.196  54.699  1.00  0.00     0.065 A 
HETATM   16  C13 UNL     1      21.433  -0.154  55.096  1.00  0.00     0.037 A 
HETATM   17  C14 UNL     1      20.822   0.676  54.181  1.00  0.00     0.014 A 
BRANCH  15  18
HETATM   18  O1  UNL     1      22.803  -1.956  55.721  1.00  0.00    -0.361 OA
HETATM   19  H10 UNL     1      22.387  -2.879  55.871  1.00  0.00     0.217 HD
ENDBRANCH  15  18
ENDBRANCH   9  12
BRANCH   9  20
HETATM   20  C15 UNL     1      19.051   1.104  51.439  1.00  0.00    -0.002 A 
HETATM   21  C16 UNL     1      18.575  -0.163  51.718  1.00  0.00     0.012 A 
HETATM   22  C17 UNL     1      17.243  -0.473  51.383  1.00  0.00     0.004 A 
HETATM   23  C18 UNL     1      16.384   0.426  50.789  1.00  0.00     0.042 A 
HETATM   24  C19 UNL     1      16.876   1.683  50.520  1.00  0.00     0.117 A 
HETATM   25  F1  UNL     1      16.061   2.581  49.940  1.00  0.00    -0.206 F 
HETATM   26  C20 UNL     1      18.174   1.979  50.848  1.00  0.00     0.054 A 
ENDBRANCH   9  20
BRANCH   1  27
HETATM   27  C2  UNL     1      24.098   2.680  53.074  1.00  0.00    -0.013 C 
HETATM   28  C1  UNL     1      24.594   1.498  53.082  1.00  0.00     0.008 C 
ENDBRANCH   1  27
TORSDOF 6
ENDMDL
MODEL 7
REMARK VINA RESULT:      -7.6      3.575      6.078
REMARK  6 active torsions:
REMARK  status: ('A' for Active; 'I' for Inactive)
REMARK    1  A    between atoms: C2_2  and  C3_3 
REMARK    2  A    between atoms: N1_5  and  C6_8 
REMARK    3  A    between atoms: N2_7  and  C6_8 
REMARK    4  A    between atoms: C8_11  and  C9_12 
REMARK    5  A    between atoms: C8_11  and  C15_19 
REMARK    6  A    between atoms: C12_15  and  O1_16 
ROOT
HETATM    1  C3  UNL     1      20.863   4.347  51.076  1.00  0.00     0.172 A 
HETATM    2  C4  UNL     1      19.734   3.602  51.327  1.00  0.00     0.463 A 
HETATM    3  N1  UNL     1      18.419   3.123  51.499  1.00  0.00     0.251 N 
HETATM    4  C5  UNL     1      17.392   4.022  51.246  1.00  0.00     0.543 A 
HETATM    5  N2  UNL     1      18.383   3.077  51.515  1.00  0.00     0.251 N 
HETATM    6  C6  UNL     1      19.743   3.467  51.367  1.00  0.00     0.464 A 
HETATM    7  N3  UNL     1      20.294   1.957  50.904  1.00  0.00    -0.323 N 
HETATM    8  C7  UNL     1      19.844   1.083  49.835  1.00  0.00     0.151 C 
HETATM    9  C8  UNL     1      21.338   1.932  52.027  1.00  0.00     0.162 C 
HETATM   10  N4  UNL     1      20.388   2.897  52.757  1.00  0.00    -0.328 N 
HETATM   11  H17 UNL     1      20.233   2.982  53.817  1.00  0.00     0.160 HD
ENDROOT
BRANCH   9  12
HETATM   12  C9  UNL     1      22.567   2.524  51.647  1.00  0.00    -0.005 A 
HETATM   13  C10 UNL     1      23.317   3.235  52.549  1.00  0.00     0.014 A 
HETATM   14  C11 UNL     1      24.506   3.819  52.241  1.00  0.00     0.037 A 
HETATM   15  C12 UNL     1      24.996   3.693  50.943  1.00  0.00     0.065 A 
HETATM   16  C13 UNL     1      24.258   2.982  50.018  1.00  0.00     0.037 A 
HETATM   17  C14 UNL     1      23.055   2.397  50.347  1.00  0.00     0.014 A 
BRANCH  15  18
HETATM   18  O1  UNL     1      26.191   4.231  50.482  1.00  0.00    -0.361 OA
HETATM   19  H10 UNL     1      26.995   4.144  51.110  1.00  0.00     0.217 HD
ENDBRANCH  15  18
ENDBRANCH   9  12
BRANCH   9  20
HETATM   20  C15 UNL     1      21.299   0.683  52.760  1.00  0.00    -0.002 A 
HETATM   21  C16 UNL     1      22.542   0.279  53.211  1.00  0.00     0.012 A 
HETATM   22  C17 UNL     1      22.637  -0.914  53.952  1.00  0.00     0.004 A 
HETATM   23  C18 UNL     1      21.549  -1.706  54.253  1.00  0.00     0.042 A 
HETATM   24  C19 UNL     1      20.321  -1.287  53.796  1.00  0.00     0.117 A 
HETATM   25  F1  UNL     1      19.242  -2.039  54.074  1.00  0.00    -0.206 F 
HETATM   26  C20 UNL     1      20.234  -0.124  53.075  1.00  0.00     0.054 A 
ENDBRANCH   9  20
BRANCH   1  27
HETATM   27  C2  UNL     1      20.878   5.740  50.554  1.00  0.00    -0.013 C 
HETATM   28  C1  UNL     1      21.878   6.143  51.248  1.00  0.00     0.008 C 
ENDBRANCH   1  27
TORSDOF 6
ENDMDL
MODEL 8
REMARK VINA RESULT:      -7.5      7.212     10.771
REMARK  6 active torsions:
REMARK  status: ('A' for Active; 'I' for Inactive)
REMARK    1  A    between atoms: C2_2  and  C3_3 
REMARK    2  A    between atoms: N1_5  and  C6_8 
REMARK    3  A    between atoms: N2_7  and  C6_8 
REMARK    4  A    between atoms: C8_11  and  C9_12 
REMARK    5  A    between atoms: C8_11  and  C15_19 
REMARK    6  A    between atoms: C12_15  and  O1_16 
ROOT
HETATM    1  C3  UNL     1      32.471   8.382  46.789  1.00  0.00     0.172 A 
HETATM    2  C4  UNL     1      32.357   7.018  46.919  1.00  0.00     0.463 A 
HETATM    3  N1  UNL     1      32.533   5.618  46.885  1.00  0.00     0.251 N 
HETATM    4  C5  UNL     1      33.676   5.151  46.249  1.00  0.00     0.543 A 
HETATM    5  N2  UNL     1      32.512   5.564  46.899  1.00  0.00     0.251 N 
HETATM    6  C6  UNL     1      32.248   6.959  46.986  1.00  0.00     0.464 A 
HETATM    7  N3  UNL     1      31.453   6.881  48.455  1.00  0.00    -0.323 N 
HETATM    8  C7  UNL     1      31.878   6.314  49.722  1.00  0.00     0.151 C 
HETATM    9  C8  UNL     1      30.209   7.574  47.882  1.00  0.00     0.162 C 
HETATM   10  N4  UNL     1      30.679   7.013  46.529  1.00  0.00    -0.328 N 
HETATM   11  H17 UNL     1      30.064   6.709  45.701  1.00  0.00     0.160 HD
ENDROOT
BRANCH   9  12
HETATM   12  C9  UNL     1      30.280   8.985  47.967  1.00  0.00    -0.005 A 
HETATM   13  C10 UNL     1      29.923   9.776  46.905  1.00  0.00     0.014 A 
HETATM   14  C11 UNL     1      29.964  11.134  46.932  1.00  0.00     0.037 A 
HETATM   15  C12 UNL     1      30.391  11.766  48.098  1.00  0.00     0.065 A 
HETATM   16  C13 UNL     1      30.756  10.991  49.182  1.00  0.00     0.037 A 
HETATM   17  C14 UNL     1      30.707   9.615  49.135  1.00  0.00     0.014 A 
BRANCH  15  18
HETATM   18  O1  UNL     1      30.485  13.141  48.276  1.00  0.00    -0.361 OA
HETATM   19  H10 UNL     1      29.643  13.608  48.623  1.00  0.00     0.217 HD
ENDBRANCH  15  18
ENDBRANCH   9  12
BRANCH   9  20
HETATM   20  C15 UNL     1      28.997   6.858  48.226  1.00  0.00    -0.002 A 
HETATM   21  C16 UNL     1      27.927   7.695  48.480  1.00  0.00     0.012 A 
HETATM   22  C17 UNL     1      26.685   7.121  48.811  1.00  0.00     0.004 A 
HETATM   23  C18 UNL     1      26.479   5.761  48.897  1.00  0.00     0.042 A 
HETATM   24  C19 UNL     1      27.556   4.944  48.640  1.00  0.00     0.117 A 
HETATM   25  F1  UNL     1      27.386   3.613  48.717  1.00  0.00    -0.206 F 
HETATM   26  C20 UNL     1      28.764   5.508  48.318  1.00  0.00     0.054 A 
ENDBRANCH   9  20
BRANCH   1  27
HETATM   27  C2  UNL     1      33.632   9.098  46.194  1.00  0.00    -0.013 C 
HETATM   28  C1  UNL     1      33.725   9.999  47.102  1.00  0.00     0.008 C 
ENDBRANCH   1  27
TORSDOF 6
ENDMDL
MODEL 9
REMARK VINA RESULT:      -7.4      6.487      9.144
REMARK  6 active torsions:
REMARK  status: ('A' for Active; 'I' for Inactive)
REMARK    1  A    between atoms: C2_2  and  C3_3 
REMARK    2  A    between atoms: N1_5  and  C6_8 
REMARK    3  A    between atoms: N2_7  and  C6_8 
REMARK    4  A    between atoms: C8_11  and  C9_12 
REMARK    5  A    between atoms: C8_11  and  C15_19 
REMARK    6  A    between atoms: C12_15  and  O1_16 
ROOT
HETATM    1  C3  UNL     1      28.045   6.014  48.480  1.00  0.00     0.172 A 
HETATM    2  C4  UNL     1      29.325   6.345  48.100  1.00  0.00     0.463 A 
HETATM    3  N1  UNL     1      30.684   6.350  47.723  1.00  0.00     0.251 N 
HETATM    4  C5  UNL     1      31.313   5.114  47.649  1.00  0.00     0.543 A 
HETATM    5  N2  UNL     1      30.733   6.383  47.708  1.00  0.00     0.251 N 
HETATM    6  C6  UNL     1      29.363   6.479  48.077  1.00  0.00     0.464 A 
HETATM    7  N3  UNL     1      29.041   7.833  47.151  1.00  0.00    -0.323 N 
HETATM    8  C7  UNL     1      29.255   8.071  45.735  1.00  0.00     0.151 C 
HETATM    9  C8  UNL     1      28.515   8.609  48.366  1.00  0.00     0.162 C 
HETATM   10  N4  UNL     1      29.419   7.676  49.190  1.00  0.00    -0.328 N 
HETATM   11  H17 UNL     1      29.927   7.906  50.109  1.00  0.00     0.160 HD
ENDROOT
BRANCH   9  12
HETATM   12  C9  UNL     1      27.132   8.404  48.590  1.00  0.00    -0.005 A 
HETATM   13  C10 UNL     1      26.621   8.366  49.863  1.00  0.00     0.014 A 
HETATM   14  C11 UNL     1      25.304   8.179  50.137  1.00  0.00     0.037 A 
HETATM   15  C12 UNL     1      24.416   8.016  49.075  1.00  0.00     0.065 A 
HETATM   16  C13 UNL     1      24.907   8.051  47.785  1.00  0.00     0.037 A 
HETATM   17  C14 UNL     1      26.247   8.242  47.526  1.00  0.00     0.014 A 
BRANCH  15  18
HETATM   18  O1  UNL     1      23.046   7.819  49.199  1.00  0.00    -0.361 OA
HETATM   19  H10 UNL     1      22.468   8.190  48.440  1.00  0.00     0.217 HD
ENDBRANCH  15  18
ENDBRANCH   9  12
BRANCH   9  20
HETATM   20  C15 UNL     1      29.104   9.930  48.446  1.00  0.00    -0.002 A 
HETATM   21  C16 UNL     1      28.182  10.917  48.742  1.00  0.00     0.012 A 
HETATM   22  C17 UNL     1      28.631  12.246  48.864  1.00  0.00     0.004 A 
HETATM   23  C18 UNL     1      29.949  12.617  48.703  1.00  0.00     0.042 A 
HETATM   24  C19 UNL     1      30.851  11.620  48.409  1.00  0.00     0.117 A 
HETATM   25  F1  UNL     1      32.143  11.952  48.246  1.00  0.00    -0.206 F 
HETATM   26  C20 UNL     1      30.409  10.328  48.292  1.00  0.00     0.054 A 
ENDBRANCH   9  20
BRANCH   1  27
HETATM   27  C2  UNL     1      27.522   4.631  48.638  1.00  0.00    -0.013 C 
HETATM   28  C1  UNL     1      26.428   4.956  49.222  1.00  0.00     0.008 C 
ENDBRANCH   1  27
TORSDOF 6
ENDMDL
