MODEL 1
REMARK VINA RESULT:      -8.0      0.000      0.000
REMARK  6 active torsions:
REMARK  status: ('A' for Active; 'I' for Inactive)
REMARK    1  A    between atoms: C5_5  and  C6_6 
REMARK    2  A    between atoms: C6_6  and  N1_8 
REMARK    3  A    between atoms: N1_8  and  C8_9 
REMARK    4  A    between atoms: N1_8  and  C14_16 
REMARK    5  A    between atoms: C8_9  and  C9_10 
REMARK    6  A    between atoms: C15_18  and  N3_19 
ROOT
HETATM    1  N1  UNL     1      25.381   1.957  52.061  1.00  0.00    -0.347 N 
ENDROOT
BRANCH   1   2
HETATM    2  C6  UNL     1      24.343   2.241  53.035  1.00  0.00     0.116 C 
HETATM    3  C7  UNL     1      24.217   3.698  53.383  1.00  0.00     0.037 C 
BRANCH   2   4
HETATM    4  C5  UNL     1      23.009   1.731  52.634  1.00  0.00    -0.030 A 
HETATM    5  C4  UNL     1      22.110   2.531  51.914  1.00  0.00     0.010 A 
HETATM    6  C3  UNL     1      20.874   1.989  51.565  1.00  0.00     0.007 A 
HETATM    7  C2  UNL     1      20.529   0.682  51.918  1.00  0.00    -0.061 A 
HETATM    8  C1  UNL     1      19.208   0.122  51.518  1.00  0.00     0.048 C 
HETATM    9  C19 UNL     1      21.427  -0.088  52.627  1.00  0.00     0.014 A 
HETATM   10  C17 UNL     1      22.650   0.439  52.976  1.00  0.00    -0.053 A 
HETATM   11  C18 UNL     1      23.560  -0.447  53.722  1.00  0.00     0.049 C 
ENDBRANCH   2   4
ENDBRANCH   1   2
BRANCH   1  12
HETATM   12  C8  UNL     1      24.900   2.176  50.755  1.00  0.00     0.160 C 
BRANCH  12  13
HETATM   13  C9  UNL     1      25.284   3.419  50.087  1.00  0.00    -0.057 A 
HETATM   14  C10 UNL     1      24.803   4.595  49.726  1.00  0.00     0.006 A 
HETATM   15  C11 UNL     1      25.775   5.444  49.051  1.00  0.00     0.020 A 
HETATM   16  C12 UNL     1      26.876   4.716  49.024  1.00  0.00     0.015 A 
HETATM   17 CL1  UNL     1      28.332   5.380  48.281  1.00  0.00    -0.089 Cl
HETATM   18  C13 UNL     1      26.707   3.389  49.663  1.00  0.00     0.087 A 
ENDBRANCH  12  13
ENDBRANCH   1  12
BRANCH   1  19
HETATM   19  C14 UNL     1      26.589   1.518  52.641  1.00  0.00     0.171 A 
HETATM   20  N2  UNL     1      27.550   2.177  53.325  1.00  0.00    -0.207 NA
HETATM   21  C15 UNL     1      28.521   1.362  53.744  1.00  0.00     0.130 A 
HETATM   22  C16 UNL     1      28.633  -0.096  53.539  1.00  0.00     0.103 A 
HETATM   23  S1  UNL     1      27.046  -0.326  52.566  1.00  0.00    -0.060 SA
BRANCH  21  24
HETATM   24  N3  UNL     1      29.480   2.181  54.456  1.00  0.00    -0.384 N 
HETATM   25  H16 UNL     1      30.032   2.943  53.957  1.00  0.00     0.157 HD
HETATM   26  H17 UNL     1      29.766   2.175  55.465  1.00  0.00     0.157 HD
ENDBRANCH  21  24
ENDBRANCH   1  19
TORSDOF 6
ENDMDL
MODEL 2
REMARK VINA RESULT:      -7.7      2.972      5.897
REMARK  6 active torsions:
REMARK  status: ('A' for Active; 'I' for Inactive)
REMARK    1  A    between atoms: C5_5  and  C6_6 
REMARK    2  A    between atoms: C6_6  and  N1_8 
REMARK    3  A    between atoms: N1_8  and  C8_9 
REMARK    4  A    between atoms: N1_8  and  C14_16 
REMARK    5  A    between atoms: C8_9  and  C9_10 
REMARK    6  A    between atoms: C15_18  and  N3_19 
ROOT
HETATM    1  N1  UNL     1      24.217   1.713  52.364  1.00  0.00    -0.347 N 
ENDROOT
BRANCH   1   2
HETATM    2  C6  UNL     1      24.088   2.161  50.989  1.00  0.00     0.116 C 
HETATM    3  C7  UNL     1      22.769   1.814  50.357  1.00  0.00     0.037 C 
BRANCH   2   4
HETATM    4  C5  UNL     1      24.327   3.615  50.823  1.00  0.00    -0.030 A 
HETATM    5  C4  UNL     1      23.447   4.565  51.362  1.00  0.00     0.010 A 
HETATM    6  C3  UNL     1      23.732   5.916  51.173  1.00  0.00     0.007 A 
HETATM    7  C2  UNL     1      24.864   6.326  50.465  1.00  0.00    -0.061 A 
HETATM    8  C1  UNL     1      25.154   7.777  50.291  1.00  0.00     0.048 C 
HETATM    9  C19 UNL     1      25.717   5.377  49.941  1.00  0.00     0.014 A 
HETATM   10  C17 UNL     1      25.443   4.040  50.123  1.00  0.00    -0.053 A 
HETATM   11  C18 UNL     1      26.405   3.086  49.546  1.00  0.00     0.049 C 
ENDBRANCH   2   4
ENDBRANCH   1   2
BRANCH   1  12
HETATM   12  C8  UNL     1      22.960   1.713  52.999  1.00  0.00     0.160 C 
BRANCH  12  13
HETATM   13  C9  UNL     1      22.451   0.439  53.504  1.00  0.00    -0.057 A 
HETATM   14  C10 UNL     1      22.832  -0.650  54.146  1.00  0.00     0.006 A 
HETATM   15  C11 UNL     1      21.760  -1.613  54.357  1.00  0.00     0.020 A 
HETATM   16  C12 UNL     1      20.703  -1.044  53.807  1.00  0.00     0.015 A 
HETATM   17 CL1  UNL     1      19.153  -1.887  53.840  1.00  0.00    -0.089 Cl
HETATM   18  C13 UNL     1      21.001   0.286  53.223  1.00  0.00     0.087 A 
ENDBRANCH  12  13
ENDBRANCH   1  12
BRANCH   1  19
HETATM   19  C14 UNL     1      25.545   1.413  52.733  1.00  0.00     0.171 A 
HETATM   20  N2  UNL     1      26.516   2.170  53.289  1.00  0.00    -0.207 NA
HETATM   21  C15 UNL     1      27.631   1.472  53.518  1.00  0.00     0.130 A 
HETATM   22  C16 UNL     1      27.883   0.045  53.235  1.00  0.00     0.103 A 
HETATM   23  S1  UNL     1      26.201  -0.358  52.508  1.00  0.00    -0.060 SA
BRANCH  21  24
HETATM   24  N3  UNL     1      28.585   2.386  54.111  1.00  0.00    -0.384 N 
HETATM   25  H16 UNL     1      29.477   2.661  53.597  1.00  0.00     0.157 HD
HETATM   26  H17 UNL     1      28.572   2.882  55.034  1.00  0.00     0.157 HD
ENDBRANCH  21  24
ENDBRANCH   1  19
TORSDOF 6
ENDMDL
MODEL 3
REMARK VINA RESULT:      -7.4      3.576      7.164
REMARK  6 active torsions:
REMARK  status: ('A' for Active; 'I' for Inactive)
REMARK    1  A    between atoms: C5_5  and  C6_6 
REMARK    2  A    between atoms: C6_6  and  N1_8 
REMARK    3  A    between atoms: N1_8  and  C8_9 
REMARK    4  A    between atoms: N1_8  and  C14_16 
REMARK    5  A    between atoms: C8_9  and  C9_10 
REMARK    6  A    between atoms: C15_18  and  N3_19 
ROOT
HETATM    1  N1  UNL     1      22.983   3.804  50.966  1.00  0.00    -0.347 N 
ENDROOT
BRANCH   1   2
HETATM    2  C6  UNL     1      23.692   3.375  49.774  1.00  0.00     0.116 C 
HETATM    3  C7  UNL     1      22.795   3.090  48.602  1.00  0.00     0.037 C 
BRANCH   2   4
HETATM    4  C5  UNL     1      24.746   4.326  49.345  1.00  0.00    -0.030 A 
HETATM    5  C4  UNL     1      24.426   5.616  48.898  1.00  0.00     0.010 A 
HETATM    6  C3  UNL     1      25.466   6.461  48.515  1.00  0.00     0.007 A 
HETATM    7  C2  UNL     1      26.797   6.044  48.570  1.00  0.00    -0.061 A 
HETATM    8  C1  UNL     1      27.890   6.973  48.168  1.00  0.00     0.048 C 
HETATM    9  C19 UNL     1      27.092   4.770  49.011  1.00  0.00     0.014 A 
HETATM   10  C17 UNL     1      26.071   3.929  49.392  1.00  0.00    -0.053 A 
HETATM   11  C18 UNL     1      26.464   2.590  49.864  1.00  0.00     0.049 C 
ENDBRANCH   2   4
ENDBRANCH   1   2
BRANCH   1  12
HETATM   12  C8  UNL     1      23.822   3.711  52.094  1.00  0.00     0.160 C 
BRANCH  12  13
HETATM   13  C9  UNL     1      24.105   2.378  52.624  1.00  0.00    -0.057 A 
HETATM   14  C10 UNL     1      23.610   1.155  52.677  1.00  0.00     0.006 A 
HETATM   15  C11 UNL     1      24.447   0.214  53.408  1.00  0.00     0.020 A 
HETATM   16  C12 UNL     1      25.483   0.936  53.796  1.00  0.00     0.015 A 
HETATM   17 CL1  UNL     1      26.769   0.172  54.730  1.00  0.00    -0.089 Cl
HETATM   18  C13 UNL     1      25.398   2.350  53.354  1.00  0.00     0.087 A 
ENDBRANCH  12  13
ENDBRANCH   1  12
BRANCH   1  19
HETATM   19  C14 UNL     1      21.647   4.181  50.718  1.00  0.00     0.171 A 
HETATM   20  N2  UNL     1      21.111   5.320  50.228  1.00  0.00    -0.207 NA
HETATM   21  C15 UNL     1      19.783   5.243  50.111  1.00  0.00     0.130 A 
HETATM   22  C16 UNL     1      18.906   4.104  50.449  1.00  0.00     0.103 A 
HETATM   23  S1  UNL     1      20.248   2.934  51.041  1.00  0.00    -0.060 SA
BRANCH  21  24
HETATM   24  N3  UNL     1      19.333   6.513  49.579  1.00  0.00    -0.384 N 
HETATM   25  H16 UNL     1      18.688   7.148  50.141  1.00  0.00     0.157 HD
HETATM   26  H17 UNL     1      19.537   6.980  48.663  1.00  0.00     0.157 HD
ENDBRANCH  21  24
ENDBRANCH   1  19
TORSDOF 6
ENDMDL
MODEL 4
REMARK VINA RESULT:      -7.4      4.345      6.858
REMARK  6 active torsions:
REMARK  status: ('A' for Active; 'I' for Inactive)
REMARK    1  A    between atoms: C5_5  and  C6_6 
REMARK    2  A    between atoms: C6_6  and  N1_8 
REMARK    3  A    between atoms: N1_8  and  C8_9 
REMARK    4  A    between atoms: N1_8  and  C14_16 
REMARK    5  A    between atoms: C8_9  and  C9_10 
REMARK    6  A    between atoms: C15_18  and  N3_19 
ROOT
HETATM    1  N1  UNL     1      21.803   2.471  52.386  1.00  0.00    -0.347 N 
ENDROOT
BRANCH   1   2
HETATM    2  C6  UNL     1      22.677   1.501  51.752  1.00  0.00     0.116 C 
HETATM    3  C7  UNL     1      23.098   1.880  50.359  1.00  0.00     0.037 C 
BRANCH   2   4
HETATM    4  C5  UNL     1      23.890   1.196  52.548  1.00  0.00    -0.030 A 
HETATM    5  C4  UNL     1      24.939   2.120  52.662  1.00  0.00     0.010 A 
HETATM    6  C3  UNL     1      26.048   1.772  53.430  1.00  0.00     0.007 A 
HETATM    7  C2  UNL     1      26.126   0.536  54.075  1.00  0.00    -0.061 A 
HETATM    8  C1  UNL     1      27.316   0.197  54.903  1.00  0.00     0.048 C 
HETATM    9  C19 UNL     1      25.084  -0.360  53.951  1.00  0.00     0.014 A 
HETATM   10  C17 UNL     1      23.984  -0.025  53.194  1.00  0.00    -0.053 A 
HETATM   11  C18 UNL     1      22.908  -1.027  53.118  1.00  0.00     0.049 C 
ENDBRANCH   2   4
ENDBRANCH   1   2
BRANCH   1  12
HETATM   12  C8  UNL     1      20.883   1.820  53.232  1.00  0.00     0.160 C 
BRANCH  12  13
HETATM   13  C9  UNL     1      19.855   0.988  52.609  1.00  0.00    -0.057 A 
HETATM   14  C10 UNL     1      19.140   0.875  51.504  1.00  0.00     0.006 A 
HETATM   15  C11 UNL     1      18.229  -0.262  51.509  1.00  0.00     0.020 A 
HETATM   16  C12 UNL     1      18.432  -0.834  52.682  1.00  0.00     0.015 A 
HETATM   17 CL1  UNL     1      17.515  -2.278  53.109  1.00  0.00    -0.089 Cl
HETATM   18  C13 UNL     1      19.460  -0.137  53.493  1.00  0.00     0.087 A 
ENDBRANCH  12  13
ENDBRANCH   1  12
BRANCH   1  19
HETATM   19  C14 UNL     1      22.064   3.800  51.995  1.00  0.00     0.171 A 
HETATM   20  N2  UNL     1      23.096   4.630  52.263  1.00  0.00    -0.207 NA
HETATM   21  C15 UNL     1      22.968   5.808  51.648  1.00  0.00     0.130 A 
HETATM   22  C16 UNL     1      21.875   6.257  50.764  1.00  0.00     0.103 A 
HETATM   23  S1  UNL     1      20.847   4.689  50.835  1.00  0.00    -0.060 SA
BRANCH  21  24
HETATM   24  N3  UNL     1      24.126   6.599  52.011  1.00  0.00    -0.384 N 
HETATM   25  H16 UNL     1      24.930   6.744  51.327  1.00  0.00     0.157 HD
HETATM   26  H17 UNL     1      24.353   7.110  52.898  1.00  0.00     0.157 HD
ENDBRANCH  21  24
ENDBRANCH   1  19
TORSDOF 6
ENDMDL
MODEL 5
REMARK VINA RESULT:      -7.3      3.028      4.729
REMARK  6 active torsions:
REMARK  status: ('A' for Active; 'I' for Inactive)
REMARK    1  A    between atoms: C5_5  and  C6_6 
REMARK    2  A    between atoms: C6_6  and  N1_8 
REMARK    3  A    between atoms: N1_8  and  C8_9 
REMARK    4  A    between atoms: N1_8  and  C14_16 
REMARK    5  A    between atoms: C8_9  and  C9_10 
REMARK    6  A    between atoms: C15_18  and  N3_19 
ROOT
HETATM    1  N1  UNL     1      24.128   3.469  50.236  1.00  0.00    -0.347 N 
ENDROOT
BRANCH   1   2
HETATM    2  C6  UNL     1      22.753   3.304  49.802  1.00  0.00     0.116 C 
HETATM    3  C7  UNL     1      22.613   2.898  48.361  1.00  0.00     0.037 C 
BRANCH   2   4
HETATM    4  C5  UNL     1      21.984   2.352  50.640  1.00  0.00    -0.030 A 
HETATM    5  C4  UNL     1      21.852   1.004  50.277  1.00  0.00     0.010 A 
HETATM    6  C3  UNL     1      21.120   0.162  51.112  1.00  0.00     0.007 A 
HETATM    7  C2  UNL     1      20.528   0.637  52.284  1.00  0.00    -0.061 A 
HETATM    8  C1  UNL     1      19.764  -0.288  53.167  1.00  0.00     0.048 C 
HETATM    9  C19 UNL     1      20.667   1.968  52.623  1.00  0.00     0.014 A 
HETATM   10  C17 UNL     1      21.389   2.806  51.804  1.00  0.00    -0.053 A 
HETATM   11  C18 UNL     1      21.505   4.209  52.238  1.00  0.00     0.049 C 
ENDBRANCH   2   4
ENDBRANCH   1   2
BRANCH   1  12
HETATM   12  C8  UNL     1      24.684   2.222  50.584  1.00  0.00     0.160 C 
BRANCH  12  13
HETATM   13  C9  UNL     1      25.332   2.106  51.890  1.00  0.00    -0.057 A 
HETATM   14  C10 UNL     1      25.068   1.874  53.163  1.00  0.00     0.006 A 
HETATM   15  C11 UNL     1      26.246   1.890  54.019  1.00  0.00     0.020 A 
HETATM   16  C12 UNL     1      27.243   2.143  53.191  1.00  0.00     0.015 A 
HETATM   17 CL1  UNL     1      28.887   2.249  53.824  1.00  0.00    -0.089 Cl
HETATM   18  C13 UNL     1      26.800   2.299  51.784  1.00  0.00     0.087 A 
ENDBRANCH  12  13
ENDBRANCH   1  12
BRANCH   1  19
HETATM   19  C14 UNL     1      24.561   4.811  50.228  1.00  0.00     0.171 A 
HETATM   20  N2  UNL     1      24.116   5.903  50.889  1.00  0.00    -0.207 NA
HETATM   21  C15 UNL     1      24.850   6.986  50.622  1.00  0.00     0.130 A 
HETATM   22  C16 UNL     1      26.021   7.093  49.731  1.00  0.00     0.103 A 
HETATM   23  S1  UNL     1      26.070   5.300  49.180  1.00  0.00    -0.060 SA
BRANCH  21  24
HETATM   24  N3  UNL     1      24.278   8.078  51.383  1.00  0.00    -0.384 N 
HETATM   25  H16 UNL     1      23.268   8.383  51.236  1.00  0.00     0.157 HD
HETATM   26  H17 UNL     1      24.700   8.688  52.125  1.00  0.00     0.157 HD
ENDBRANCH  21  24
ENDBRANCH   1  19
TORSDOF 6
ENDMDL
MODEL 6
REMARK VINA RESULT:      -7.1      2.707      4.707
REMARK  6 active torsions:
REMARK  status: ('A' for Active; 'I' for Inactive)
REMARK    1  A    between atoms: C5_5  and  C6_6 
REMARK    2  A    between atoms: C6_6  and  N1_8 
REMARK    3  A    between atoms: N1_8  and  C8_9 
REMARK    4  A    between atoms: N1_8  and  C14_16 
REMARK    5  A    between atoms: C8_9  and  C9_10 
REMARK    6  A    between atoms: C15_18  and  N3_19 
ROOT
HETATM    1  N1  UNL     1      24.709   2.049  51.484  1.00  0.00    -0.347 N 
ENDROOT
BRANCH   1   2
HETATM    2  C6  UNL     1      24.034   2.239  52.755  1.00  0.00     0.116 C 
HETATM    3  C7  UNL     1      23.807   3.682  53.114  1.00  0.00     0.037 C 
BRANCH   2   4
HETATM    4  C5  UNL     1      22.741   1.519  52.845  1.00  0.00    -0.030 A 
HETATM    5  C4  UNL     1      21.560   2.074  52.333  1.00  0.00     0.010 A 
HETATM    6  C3  UNL     1      20.379   1.342  52.447  1.00  0.00     0.007 A 
HETATM    7  C2  UNL     1      20.361   0.084  53.054  1.00  0.00    -0.061 A 
HETATM    8  C1  UNL     1      19.089  -0.684  53.148  1.00  0.00     0.048 C 
HETATM    9  C19 UNL     1      21.534  -0.445  53.553  1.00  0.00     0.014 A 
HETATM   10  C17 UNL     1      22.704   0.272  53.445  1.00  0.00    -0.053 A 
HETATM   11  C18 UNL     1      23.917  -0.363  53.989  1.00  0.00     0.049 C 
ENDBRANCH   2   4
ENDBRANCH   1   2
BRANCH   1  12
HETATM   12  C8  UNL     1      25.573   0.938  51.550  1.00  0.00     0.160 C 
BRANCH  12  13
HETATM   13  C9  UNL     1      26.823   1.091  52.294  1.00  0.00    -0.057 A 
HETATM   14  C10 UNL     1      27.615   2.011  52.815  1.00  0.00     0.006 A 
HETATM   15  C11 UNL     1      28.790   1.464  53.480  1.00  0.00     0.020 A 
HETATM   16  C12 UNL     1      28.666   0.157  53.334  1.00  0.00     0.015 A 
HETATM   17 CL1  UNL     1      29.899  -0.909  54.006  1.00  0.00    -0.089 Cl
HETATM   18  C13 UNL     1      27.439  -0.227  52.593  1.00  0.00     0.087 A 
ENDBRANCH  12  13
ENDBRANCH   1  12
BRANCH   1  19
HETATM   19  C14 UNL     1      24.363   3.014  50.516  1.00  0.00     0.171 A 
HETATM   20  N2  UNL     1      23.247   3.181  49.772  1.00  0.00    -0.207 NA
HETATM   21  C15 UNL     1      23.316   4.266  48.997  1.00  0.00     0.130 A 
HETATM   22  C16 UNL     1      24.425   5.233  48.885  1.00  0.00     0.103 A 
HETATM   23  S1  UNL     1      25.576   4.425  50.127  1.00  0.00    -0.060 SA
BRANCH  21  24
HETATM   24  N3  UNL     1      22.072   4.334  48.257  1.00  0.00    -0.384 N 
HETATM   25  H16 UNL     1      21.966   3.853  47.312  1.00  0.00     0.157 HD
HETATM   26  H17 UNL     1      21.165   4.805  48.489  1.00  0.00     0.157 HD
ENDBRANCH  21  24
ENDBRANCH   1  19
TORSDOF 6
ENDMDL
MODEL 7
REMARK VINA RESULT:      -7.1      2.832      4.709
REMARK  6 active torsions:
REMARK  status: ('A' for Active; 'I' for Inactive)
REMARK    1  A    between atoms: C5_5  and  C6_6 
REMARK    2  A    between atoms: C6_6  and  N1_8 
REMARK    3  A    between atoms: N1_8  and  C8_9 
REMARK    4  A    between atoms: N1_8  and  C14_16 
REMARK    5  A    between atoms: C8_9  and  C9_10 
REMARK    6  A    between atoms: C15_18  and  N3_19 
ROOT
HETATM    1  N1  UNL     1      23.949   3.223  50.389  1.00  0.00    -0.347 N 
ENDROOT
BRANCH   1   2
HETATM    2  C6  UNL     1      24.015   3.190  51.839  1.00  0.00     0.116 C 
HETATM    3  C7  UNL     1      23.410   4.395  52.504  1.00  0.00     0.037 C 
BRANCH   2   4
HETATM    4  C5  UNL     1      23.407   1.970  52.424  1.00  0.00    -0.030 A 
HETATM    5  C4  UNL     1      22.039   1.911  52.729  1.00  0.00     0.010 A 
HETATM    6  C3  UNL     1      21.532   0.733  53.273  1.00  0.00     0.007 A 
HETATM    7  C2  UNL     1      22.355  -0.369  53.514  1.00  0.00    -0.061 A 
HETATM    8  C1  UNL     1      21.784  -1.622  54.081  1.00  0.00     0.048 C 
HETATM    9  C19 UNL     1      23.699  -0.291  53.209  1.00  0.00     0.014 A 
HETATM   10  C17 UNL     1      24.209   0.869  52.671  1.00  0.00    -0.053 A 
HETATM   11  C18 UNL     1      25.649   0.873  52.361  1.00  0.00     0.049 C 
ENDBRANCH   2   4
ENDBRANCH   1   2
BRANCH   1  12
HETATM   12  C8  UNL     1      25.246   3.194  49.840  1.00  0.00     0.160 C 
BRANCH  12  13
HETATM   13  C9  UNL     1      25.793   4.445  49.318  1.00  0.00    -0.057 A 
HETATM   14  C10 UNL     1      25.456   5.693  49.047  1.00  0.00     0.006 A 
HETATM   15  C11 UNL     1      26.548   6.493  48.510  1.00  0.00     0.020 A 
HETATM   16  C12 UNL     1      27.572   5.659  48.473  1.00  0.00     0.015 A 
HETATM   17 CL1  UNL     1      29.131   6.231  47.878  1.00  0.00    -0.089 Cl
HETATM   18  C13 UNL     1      27.230   4.304  48.971  1.00  0.00     0.087 A 
ENDBRANCH  12  13
ENDBRANCH   1  12
BRANCH   1  19
HETATM   19  C14 UNL     1      22.633   3.299  49.889  1.00  0.00     0.171 A 
HETATM   20  N2  UNL     1      21.767   2.342  49.488  1.00  0.00    -0.207 NA
HETATM   21  C15 UNL     1      20.588   2.851  49.121  1.00  0.00     0.130 A 
HETATM   22  C16 UNL     1      20.173   4.267  49.113  1.00  0.00     0.103 A 
HETATM   23  S1  UNL     1      21.781   4.993  49.754  1.00  0.00    -0.060 SA
BRANCH  21  24
HETATM   24  N3  UNL     1      19.757   1.735  48.717  1.00  0.00    -0.384 N 
HETATM   25  H16 UNL     1      19.700   1.433  47.697  1.00  0.00     0.157 HD
HETATM   26  H17 UNL     1      19.142   1.103  49.283  1.00  0.00     0.157 HD
ENDBRANCH  21  24
ENDBRANCH   1  19
TORSDOF 6
ENDMDL
MODEL 8
REMARK VINA RESULT:      -7.1      3.849      5.819
REMARK  6 active torsions:
REMARK  status: ('A' for Active; 'I' for Inactive)
REMARK    1  A    between atoms: C5_5  and  C6_6 
REMARK    2  A    between atoms: C6_6  and  N1_8 
REMARK    3  A    between atoms: N1_8  and  C8_9 
REMARK    4  A    between atoms: N1_8  and  C14_16 
REMARK    5  A    between atoms: C8_9  and  C9_10 
REMARK    6  A    between atoms: C15_18  and  N3_19 
ROOT
HETATM    1  N1  UNL     1      21.971   1.558  51.301  1.00  0.00    -0.347 N 
ENDROOT
BRANCH   1   2
HETATM    2  C6  UNL     1      21.102   1.767  52.445  1.00  0.00     0.116 C 
HETATM    3  C7  UNL     1      20.374   3.083  52.424  1.00  0.00     0.037 C 
BRANCH   2   4
HETATM    4  C5  UNL     1      20.111   0.680  52.633  1.00  0.00    -0.030 A 
HETATM    5  C4  UNL     1      19.033   0.515  51.751  1.00  0.00     0.010 A 
HETATM    6  C3  UNL     1      18.141  -0.531  51.983  1.00  0.00     0.007 A 
HETATM    7  C2  UNL     1      18.306  -1.399  53.065  1.00  0.00    -0.061 A 
HETATM    8  C1  UNL     1      17.346  -2.517  53.280  1.00  0.00     0.048 C 
HETATM    9  C19 UNL     1      19.371  -1.219  53.922  1.00  0.00     0.014 A 
HETATM   10  C17 UNL     1      20.258  -0.189  53.700  1.00  0.00    -0.053 A 
HETATM   11  C18 UNL     1      21.377  -0.068  54.651  1.00  0.00     0.049 C 
ENDBRANCH   2   4
ENDBRANCH   1   2
BRANCH   1  12
HETATM   12  C8  UNL     1      23.027   0.689  51.641  1.00  0.00     0.160 C 
BRANCH  12  13
HETATM   13  C9  UNL     1      24.109   1.224  52.466  1.00  0.00    -0.057 A 
HETATM   14  C10 UNL     1      24.652   2.363  52.857  1.00  0.00     0.006 A 
HETATM   15  C11 UNL     1      25.789   2.194  53.751  1.00  0.00     0.020 A 
HETATM   16  C12 UNL     1      25.906   0.885  53.883  1.00  0.00     0.015 A 
HETATM   17 CL1  UNL     1      27.185   0.230  54.906  1.00  0.00    -0.089 Cl
HETATM   18  C13 UNL     1      24.883   0.134  53.114  1.00  0.00     0.087 A 
ENDBRANCH  12  13
ENDBRANCH   1  12
BRANCH   1  19
HETATM   19  C14 UNL     1      21.573   2.278  50.156  1.00  0.00     0.171 A 
HETATM   20  N2  UNL     1      20.587   2.062  49.257  1.00  0.00    -0.207 NA
HETATM   21  C15 UNL     1      20.525   3.026  48.335  1.00  0.00     0.130 A 
HETATM   22  C16 UNL     1      21.380   4.224  48.215  1.00  0.00     0.103 A 
HETATM   23  S1  UNL     1      22.468   3.894  49.709  1.00  0.00    -0.060 SA
BRANCH  21  24
HETATM   24  N3  UNL     1      19.440   2.683  47.439  1.00  0.00    -0.384 N 
HETATM   25  H16 UNL     1      18.829   1.829  47.617  1.00  0.00     0.157 HD
HETATM   26  H17 UNL     1      19.100   3.155  46.567  1.00  0.00     0.157 HD
ENDBRANCH  21  24
ENDBRANCH   1  19
TORSDOF 6
ENDMDL
MODEL 9
REMARK VINA RESULT:      -7.0      2.842      4.838
REMARK  6 active torsions:
REMARK  status: ('A' for Active; 'I' for Inactive)
REMARK    1  A    between atoms: C5_5  and  C6_6 
REMARK    2  A    between atoms: C6_6  and  N1_8 
REMARK    3  A    between atoms: N1_8  and  C8_9 
REMARK    4  A    between atoms: N1_8  and  C14_16 
REMARK    5  A    between atoms: C8_9  and  C9_10 
REMARK    6  A    between atoms: C15_18  and  N3_19 
ROOT
HETATM    1  N1  UNL     1      25.219   2.438  52.532  1.00  0.00    -0.347 N 
ENDROOT
BRANCH   1   2
HETATM    2  C6  UNL     1      25.332   3.270  51.348  1.00  0.00     0.116 C 
HETATM    3  C7  UNL     1      26.415   2.835  50.400  1.00  0.00     0.037 C 
BRANCH   2   4
HETATM    4  C5  UNL     1      24.061   3.390  50.593  1.00  0.00    -0.030 A 
HETATM    5  C4  UNL     1      23.569   2.329  49.818  1.00  0.00     0.010 A 
HETATM    6  C3  UNL     1      22.366   2.507  49.138  1.00  0.00     0.007 A 
HETATM    7  C2  UNL     1      21.658   3.708  49.218  1.00  0.00    -0.061 A 
HETATM    8  C1  UNL     1      20.367   3.866  48.493  1.00  0.00     0.048 C 
HETATM    9  C19 UNL     1      22.159   4.741  49.984  1.00  0.00     0.014 A 
HETATM   10  C17 UNL     1      23.346   4.574  50.659  1.00  0.00    -0.053 A 
HETATM   11  C18 UNL     1      23.811   5.716  51.466  1.00  0.00     0.049 C 
ENDBRANCH   2   4
ENDBRANCH   1   2
BRANCH   1  12
HETATM   12  C8  UNL     1      23.893   2.443  53.008  1.00  0.00     0.160 C 
BRANCH  12  13
HETATM   13  C9  UNL     1      23.192   1.162  53.085  1.00  0.00    -0.057 A 
HETATM   14  C10 UNL     1      23.408  -0.133  53.223  1.00  0.00     0.006 A 
HETATM   15  C11 UNL     1      22.191  -0.934  53.227  1.00  0.00     0.020 A 
HETATM   16  C12 UNL     1      21.222  -0.049  53.085  1.00  0.00     0.015 A 
HETATM   17 CL1  UNL     1      19.547  -0.602  53.040  1.00  0.00    -0.089 Cl
HETATM   18  C13 UNL     1      21.721   1.344  52.987  1.00  0.00     0.087 A 
ENDBRANCH  12  13
ENDBRANCH   1  12
BRANCH   1  19
HETATM   19  C14 UNL     1      26.441   1.856  52.927  1.00  0.00     0.171 A 
HETATM   20  N2  UNL     1      27.460   2.328  53.677  1.00  0.00    -0.207 NA
HETATM   21  C15 UNL     1      28.425   1.420  53.847  1.00  0.00     0.130 A 
HETATM   22  C16 UNL     1      28.475   0.041  53.323  1.00  0.00     0.103 A 
HETATM   23  S1  UNL     1      26.828   0.064  52.423  1.00  0.00    -0.060 SA
BRANCH  21  24
HETATM   24  N3  UNL     1      29.449   2.042  54.660  1.00  0.00    -0.384 N 
HETATM   25  H16 UNL     1      29.775   1.597  55.571  1.00  0.00     0.157 HD
HETATM   26  H17 UNL     1      29.990   2.929  54.516  1.00  0.00     0.157 HD
ENDBRANCH  21  24
ENDBRANCH   1  19
TORSDOF 6
ENDMDL
