MODEL 1
REMARK VINA RESULT:      -9.5      0.000      0.000
REMARK  2 active torsions:
REMARK  status: ('A' for Active; 'I' for Inactive)
REMARK    1  A    between atoms: C3_4  and  C4_5 
REMARK    2  A    between atoms: C16_20  and  C17_21 
ROOT
HETATM    1  C4  UNL     1      24.548   0.096  53.295  1.00  0.00     0.046 C 
HETATM    2  C5  UNL     1      25.637   0.781  53.467  1.00  0.00     0.047 A 
HETATM    3  C6  UNL     1      25.912   2.178  53.724  1.00  0.00     0.257 A 
HETATM    4  O1  UNL     1      25.076   3.095  53.843  1.00  0.00    -0.267 OA
HETATM    5  N2  UNL     1      27.300   2.435  53.839  1.00  0.00    -0.322 N 
HETATM    6  C7  UNL     1      27.891   1.153  53.646  1.00  0.00     0.046 A 
HETATM    7  C8  UNL     1      29.203   0.760  53.648  1.00  0.00     0.033 A 
HETATM    8  C9  UNL     1      29.695  -0.533  53.450  1.00  0.00     0.044 A 
HETATM    9  C10 UNL     1      28.725  -1.513  53.228  1.00  0.00     0.117 A 
HETATM   10  F1  UNL     1      29.160  -2.778  53.035  1.00  0.00    -0.206 F 
HETATM   11  C11 UNL     1      27.380  -1.128  53.224  1.00  0.00     0.057 A 
HETATM   12  C12 UNL     1      26.969   0.168  53.426  1.00  0.00     0.009 A 
HETATM   13  H7  UNL     1      27.815   3.331  54.018  1.00  0.00     0.169 HD
ENDROOT
BRANCH   1  14
HETATM   14  C3  UNL     1      23.131   0.444  53.286  1.00  0.00     0.026 C 
HETATM   15  N1  UNL     1      22.068   0.293  54.291  1.00  0.00    -0.385 N 
HETATM   16  C2  UNL     1      20.745  -0.097  53.692  1.00  0.00     0.088 C 
HETATM   17  H5  UNL     1      21.925   0.378  55.359  1.00  0.00     0.160 HD
HETATM   18  C1  UNL     1      20.575  -1.531  53.946  1.00  0.00     0.033 C 
HETATM   19  C16 UNL     1      20.748   0.243  52.172  1.00  0.00     0.002 A 
HETATM   20  C15 UNL     1      20.826   0.625  50.613  1.00  0.00     0.017 A 
HETATM   21  C14 UNL     1      21.141   0.498  51.802  1.00  0.00    -0.000 A 
HETATM   22  C17 UNL     1      19.709  -0.072  51.549  1.00  0.00     0.017 A 
HETATM   23  C13 UNL     1      22.564   1.036  52.177  1.00  0.00     0.014 C 
ENDBRANCH   1  14
TORSDOF 2
ENDMDL
MODEL 2
REMARK VINA RESULT:      -9.4      2.609      7.067
REMARK  2 active torsions:
REMARK  status: ('A' for Active; 'I' for Inactive)
REMARK    1  A    between atoms: C3_4  and  C4_5 
REMARK    2  A    between atoms: C16_20  and  C17_21 
ROOT
HETATM    1  C4  UNL     1      24.832   0.331  53.228  1.00  0.00     0.046 C 
HETATM    2  C5  UNL     1      23.638  -0.096  53.509  1.00  0.00     0.047 A 
HETATM    3  C6  UNL     1      23.080  -0.865  54.600  1.00  0.00     0.257 A 
HETATM    4  O1  UNL     1      23.694  -1.318  55.587  1.00  0.00    -0.267 OA
HETATM    5  N2  UNL     1      21.688  -1.075  54.446  1.00  0.00    -0.322 N 
HETATM    6  C7  UNL     1      21.388  -0.411  53.221  1.00  0.00     0.046 A 
HETATM    7  C8  UNL     1      20.204  -0.262  52.549  1.00  0.00     0.033 A 
HETATM    8  C9  UNL     1      20.000   0.414  51.343  1.00  0.00     0.044 A 
HETATM    9  C10 UNL     1      21.141   0.991  50.783  1.00  0.00     0.117 A 
HETATM   10  F1  UNL     1      20.985   1.657  49.616  1.00  0.00    -0.206 F 
HETATM   11  C11 UNL     1      22.359   0.848  51.458  1.00  0.00     0.057 A 
HETATM   12  C12 UNL     1      22.483   0.166  52.644  1.00  0.00     0.009 A 
HETATM   13  H7  UNL     1      21.004  -1.588  55.054  1.00  0.00     0.169 HD
ENDROOT
BRANCH   1  14
HETATM   14  C3  UNL     1      26.125   0.217  53.895  1.00  0.00     0.026 C 
HETATM   15  N1  UNL     1      26.898   1.153  54.725  1.00  0.00    -0.385 N 
HETATM   16  C2  UNL     1      28.376   1.087  54.462  1.00  0.00     0.088 C 
HETATM   17  H5  UNL     1      26.740   1.898  55.492  1.00  0.00     0.160 HD
HETATM   18  C1  UNL     1      28.708   2.248  53.629  1.00  0.00     0.033 C 
HETATM   19  C16 UNL     1      28.715  -0.264  53.764  1.00  0.00     0.002 A 
HETATM   20  C15 UNL     1      28.987  -1.677  53.049  1.00  0.00     0.017 A 
HETATM   21  C14 UNL     1      28.397  -0.742  53.602  1.00  0.00    -0.000 A 
HETATM   22  C17 UNL     1      29.918  -0.422  53.456  1.00  0.00     0.017 A 
HETATM   23  C13 UNL     1      26.856  -0.949  53.804  1.00  0.00     0.014 C 
ENDBRANCH   1  14
TORSDOF 2
ENDMDL
MODEL 3
REMARK VINA RESULT:      -9.2      2.809      6.807
REMARK  2 active torsions:
REMARK  status: ('A' for Active; 'I' for Inactive)
REMARK    1  A    between atoms: C3_4  and  C4_5 
REMARK    2  A    between atoms: C16_20  and  C17_21 
ROOT
HETATM    1  C4  UNL     1      24.894   0.577  53.005  1.00  0.00     0.046 C 
HETATM    2  C5  UNL     1      24.528   1.335  52.016  1.00  0.00     0.047 A 
HETATM    3  C6  UNL     1      25.195   2.354  51.235  1.00  0.00     0.257 A 
HETATM    4  O1  UNL     1      26.370   2.748  51.367  1.00  0.00    -0.267 OA
HETATM    5  N2  UNL     1      24.348   2.901  50.240  1.00  0.00    -0.322 N 
HETATM    6  C7  UNL     1      23.125   2.193  50.422  1.00  0.00     0.046 A 
HETATM    7  C8  UNL     1      21.931   2.278  49.755  1.00  0.00     0.033 A 
HETATM    8  C9  UNL     1      20.774   1.535  50.001  1.00  0.00     0.044 A 
HETATM    9  C10 UNL     1      20.869   0.612  51.045  1.00  0.00     0.117 A 
HETATM   10  F1  UNL     1      19.771  -0.129  51.314  1.00  0.00    -0.206 F 
HETATM   11  C11 UNL     1      22.082   0.512  51.736  1.00  0.00     0.057 A 
HETATM   12  C12 UNL     1      23.182   1.280  51.437  1.00  0.00     0.009 A 
HETATM   13  H7  UNL     1      24.528   3.648  49.526  1.00  0.00     0.169 HD
ENDROOT
BRANCH   1  14
HETATM   14  C3  UNL     1      26.138   0.429  53.753  1.00  0.00     0.026 C 
HETATM   15  N1  UNL     1      26.887   1.349  54.621  1.00  0.00    -0.385 N 
HETATM   16  C2  UNL     1      28.376   1.232  54.453  1.00  0.00     0.088 C 
HETATM   17  H5  UNL     1      26.706   2.108  55.369  1.00  0.00     0.160 HD
HETATM   18  C1  UNL     1      28.798   2.372  53.632  1.00  0.00     0.033 C 
HETATM   19  C16 UNL     1      28.714  -0.137  53.791  1.00  0.00     0.002 A 
HETATM   20  C15 UNL     1      28.983  -1.566  53.110  1.00  0.00     0.017 A 
HETATM   21  C14 UNL     1      28.391  -0.606  53.615  1.00  0.00    -0.000 A 
HETATM   22  C17 UNL     1      29.928  -0.338  53.562  1.00  0.00     0.017 A 
HETATM   23  C13 UNL     1      26.835  -0.761  53.720  1.00  0.00     0.014 C 
ENDBRANCH   1  14
TORSDOF 2
ENDMDL
MODEL 4
REMARK VINA RESULT:      -8.7      2.623      3.604
REMARK  2 active torsions:
REMARK  status: ('A' for Active; 'I' for Inactive)
REMARK    1  A    between atoms: C3_4  and  C4_5 
REMARK    2  A    between atoms: C16_20  and  C17_21 
ROOT
HETATM    1  C4  UNL     1      21.675   0.334  52.821  1.00  0.00     0.046 C 
HETATM    2  C5  UNL     1      22.653  -0.167  53.513  1.00  0.00     0.047 A 
HETATM    3  C6  UNL     1      22.721  -1.009  54.688  1.00  0.00     0.257 A 
HETATM    4  O1  UNL     1      21.759  -1.467  55.336  1.00  0.00    -0.267 OA
HETATM    5  N2  UNL     1      24.057  -1.289  55.065  1.00  0.00    -0.322 N 
HETATM    6  C7  UNL     1      24.829  -0.596  54.087  1.00  0.00     0.046 A 
HETATM    7  C8  UNL     1      26.184  -0.494  53.922  1.00  0.00     0.033 A 
HETATM    8  C9  UNL     1      26.860   0.211  52.924  1.00  0.00     0.044 A 
HETATM    9  C10 UNL     1      26.043   0.877  52.007  1.00  0.00     0.117 A 
HETATM   10  F1  UNL     1      26.659   1.570  51.023  1.00  0.00    -0.206 F 
HETATM   11  C11 UNL     1      24.656   0.782  52.162  1.00  0.00     0.057 A 
HETATM   12  C12 UNL     1      24.060   0.067  53.173  1.00  0.00     0.009 A 
HETATM   13  H7  UNL     1      24.436  -1.858  55.860  1.00  0.00     0.169 HD
ENDROOT
BRANCH   1  14
HETATM   14  C3  UNL     1      20.222   0.262  52.933  1.00  0.00     0.026 C 
HETATM   15  N1  UNL     1      19.335  -0.303  53.960  1.00  0.00    -0.385 N 
HETATM   16  C2  UNL     1      18.123  -0.979  53.381  1.00  0.00     0.088 C 
HETATM   17  H5  UNL     1      19.269  -0.391  55.036  1.00  0.00     0.160 HD
HETATM   18  C1  UNL     1      18.376  -2.422  53.441  1.00  0.00     0.033 C 
HETATM   19  C16 UNL     1      17.898  -0.473  51.925  1.00  0.00     0.002 A 
HETATM   20  C15 UNL     1      17.729   0.099  50.433  1.00  0.00     0.017 A 
HETATM   21  C14 UNL     1      18.170  -0.074  51.575  1.00  0.00    -0.000 A 
HETATM   22  C17 UNL     1      16.935  -0.994  51.318  1.00  0.00     0.017 A 
HETATM   23  C13 UNL     1      19.418   0.797  51.948  1.00  0.00     0.014 C 
ENDBRANCH   1  14
TORSDOF 2
ENDMDL
MODEL 5
REMARK VINA RESULT:      -8.4      2.358      3.011
REMARK  2 active torsions:
REMARK  status: ('A' for Active; 'I' for Inactive)
REMARK    1  A    between atoms: C3_4  and  C4_5 
REMARK    2  A    between atoms: C16_20  and  C17_21 
ROOT
HETATM    1  C4  UNL     1      24.677   2.100  52.254  1.00  0.00     0.046 C 
HETATM    2  C5  UNL     1      25.195   1.165  52.990  1.00  0.00     0.047 A 
HETATM    3  C6  UNL     1      24.703  -0.096  53.502  1.00  0.00     0.257 A 
HETATM    4  O1  UNL     1      23.570  -0.584  53.322  1.00  0.00    -0.267 OA
HETATM    5  N2  UNL     1      25.678  -0.775  54.272  1.00  0.00    -0.322 N 
HETATM    6  C7  UNL     1      26.801   0.100  54.229  1.00  0.00     0.046 A 
HETATM    7  C8  UNL     1      28.048  -0.012  54.784  1.00  0.00     0.033 A 
HETATM    8  C9  UNL     1      29.099   0.903  54.686  1.00  0.00     0.044 A 
HETATM    9  C10 UNL     1      28.825   2.048  53.936  1.00  0.00     0.117 A 
HETATM   10  F1  UNL     1      29.818   2.958  53.815  1.00  0.00    -0.206 F 
HETATM   11  C11 UNL     1      27.556   2.178  53.361  1.00  0.00     0.057 A 
HETATM   12  C12 UNL     1      26.568   1.233  53.501  1.00  0.00     0.009 A 
HETATM   13  H7  UNL     1      25.631  -1.694  54.775  1.00  0.00     0.169 HD
ENDROOT
BRANCH   1  14
HETATM   14  C3  UNL     1      23.371   2.282  51.628  1.00  0.00     0.026 C 
HETATM   15  N1  UNL     1      22.001   2.078  52.119  1.00  0.00    -0.385 N 
HETATM   16  C2  UNL     1      21.084   1.501  51.077  1.00  0.00     0.088 C 
HETATM   17  H5  UNL     1      21.418   2.217  53.019  1.00  0.00     0.160 HD
HETATM   18  C1  UNL     1      20.933   0.076  51.392  1.00  0.00     0.033 C 
HETATM   19  C16 UNL     1      21.697   1.736  49.664  1.00  0.00     0.002 A 
HETATM   20  C15 UNL     1      22.390   2.019  48.243  1.00  0.00     0.017 A 
HETATM   21  C14 UNL     1      22.187   2.009  49.462  1.00  0.00    -0.000 A 
HETATM   22  C17 UNL     1      21.041   1.263  48.708  1.00  0.00     0.017 A 
HETATM   23  C13 UNL     1      23.278   2.730  50.327  1.00  0.00     0.014 C 
ENDBRANCH   1  14
TORSDOF 2
ENDMDL
MODEL 6
REMARK VINA RESULT:      -8.2      3.210      7.262
REMARK  2 active torsions:
REMARK  status: ('A' for Active; 'I' for Inactive)
REMARK    1  A    between atoms: C3_4  and  C4_5 
REMARK    2  A    between atoms: C16_20  and  C17_21 
ROOT
HETATM    1  C4  UNL     1      22.508   0.303  53.083  1.00  0.00     0.046 C 
HETATM    2  C5  UNL     1      21.691   0.578  52.112  1.00  0.00     0.047 A 
HETATM    3  C6  UNL     1      21.832   1.272  50.850  1.00  0.00     0.257 A 
HETATM    4  O1  UNL     1      22.867   1.799  50.398  1.00  0.00    -0.267 OA
HETATM    5  N2  UNL     1      20.617   1.306  50.123  1.00  0.00    -0.322 N 
HETATM    6  C7  UNL     1      19.706   0.609  50.969  1.00  0.00     0.046 A 
HETATM    7  C8  UNL     1      18.379   0.312  50.807  1.00  0.00     0.033 A 
HETATM    8  C9  UNL     1      17.558  -0.385  51.696  1.00  0.00     0.044 A 
HETATM    9  C10 UNL     1      18.179  -0.816  52.870  1.00  0.00     0.117 A 
HETATM   10  F1  UNL     1      17.419  -1.497  53.757  1.00  0.00    -0.206 F 
HETATM   11  C11 UNL     1      19.535  -0.521  53.051  1.00  0.00     0.057 A 
HETATM   12  C12 UNL     1      20.282   0.172  52.129  1.00  0.00     0.009 A 
HETATM   13  H7  UNL     1      20.391   1.729  49.191  1.00  0.00     0.169 HD
ENDROOT
BRANCH   1  14
HETATM   14  C3  UNL     1      23.922   0.579  53.317  1.00  0.00     0.026 C 
HETATM   15  N1  UNL     1      24.722   1.808  53.211  1.00  0.00    -0.385 N 
HETATM   16  C2  UNL     1      26.097   1.567  52.651  1.00  0.00     0.088 C 
HETATM   17  H5  UNL     1      24.640   2.866  53.415  1.00  0.00     0.160 HD
HETATM   18  C1  UNL     1      26.062   1.998  51.250  1.00  0.00     0.033 C 
HETATM   19  C16 UNL     1      26.456   0.058  52.801  1.00  0.00     0.002 A 
HETATM   20  C15 UNL     1      26.756  -1.508  52.993  1.00  0.00     0.017 A 
HETATM   21  C14 UNL     1      26.181  -0.415  53.037  1.00  0.00    -0.000 A 
HETATM   22  C17 UNL     1      27.567  -0.278  52.333  1.00  0.00     0.017 A 
HETATM   23  C13 UNL     1      24.772  -0.428  53.724  1.00  0.00     0.014 C 
ENDBRANCH   1  14
TORSDOF 2
ENDMDL
MODEL 7
REMARK VINA RESULT:      -8.2      4.108      6.174
REMARK  2 active torsions:
REMARK  status: ('A' for Active; 'I' for Inactive)
REMARK    1  A    between atoms: C3_4  and  C4_5 
REMARK    2  A    between atoms: C16_20  and  C17_21 
ROOT
HETATM    1  C4  UNL     1      23.236   2.227  51.396  1.00  0.00     0.046 C 
HETATM    2  C5  UNL     1      23.604   1.350  52.279  1.00  0.00     0.047 A 
HETATM    3  C6  UNL     1      24.881   0.979  52.852  1.00  0.00     0.257 A 
HETATM    4  O1  UNL     1      25.992   1.476  52.585  1.00  0.00    -0.267 OA
HETATM    5  N2  UNL     1      24.754  -0.061  53.805  1.00  0.00    -0.322 N 
HETATM    6  C7  UNL     1      23.355  -0.333  53.813  1.00  0.00     0.046 A 
HETATM    7  C8  UNL     1      22.621  -1.236  54.536  1.00  0.00     0.033 A 
HETATM    8  C9  UNL     1      21.240  -1.434  54.481  1.00  0.00     0.044 A 
HETATM    9  C10 UNL     1      20.554  -0.610  53.585  1.00  0.00     0.117 A 
HETATM   10  F1  UNL     1      19.214  -0.769  53.504  1.00  0.00    -0.206 F 
HETATM   11  C11 UNL     1      21.289   0.318  52.840  1.00  0.00     0.057 A 
HETATM   12  C12 UNL     1      22.653   0.456  52.947  1.00  0.00     0.009 A 
HETATM   13  H7  UNL     1      25.481  -0.547  54.384  1.00  0.00     0.169 HD
ENDROOT
BRANCH   1  14
HETATM   14  C3  UNL     1      23.955   3.216  50.599  1.00  0.00     0.026 C 
HETATM   15  N1  UNL     1      25.016   4.176  50.934  1.00  0.00    -0.385 N 
HETATM   16  C2  UNL     1      24.852   5.499  50.239  1.00  0.00     0.088 C 
HETATM   17  H5  UNL     1      25.911   4.239  51.538  1.00  0.00     0.160 HD
HETATM   18  C1  UNL     1      24.310   6.432  51.232  1.00  0.00     0.033 C 
HETATM   19  C16 UNL     1      23.911   5.322  49.011  1.00  0.00     0.002 A 
HETATM   20  C15 UNL     1      22.935   5.060  47.761  1.00  0.00     0.017 A 
HETATM   21  C14 UNL     1      23.630   4.857  48.763  1.00  0.00    -0.000 A 
HETATM   22  C17 UNL     1      23.663   6.367  48.368  1.00  0.00     0.017 A 
HETATM   23  C13 UNL     1      23.672   3.371  49.257  1.00  0.00     0.014 C 
ENDBRANCH   1  14
TORSDOF 2
ENDMDL
MODEL 8
REMARK VINA RESULT:      -8.2      2.930      7.059
REMARK  2 active torsions:
REMARK  status: ('A' for Active; 'I' for Inactive)
REMARK    1  A    between atoms: C3_4  and  C4_5 
REMARK    2  A    between atoms: C16_20  and  C17_21 
ROOT
HETATM    1  C4  UNL     1      24.843   1.494  51.959  1.00  0.00     0.046 C 
HETATM    2  C5  UNL     1      23.565   1.306  51.831  1.00  0.00     0.047 A 
HETATM    3  C6  UNL     1      22.559   0.670  52.654  1.00  0.00     0.257 A 
HETATM    4  O1  UNL     1      22.735   0.120  53.758  1.00  0.00    -0.267 OA
HETATM    5  N2  UNL     1      21.273   0.730  52.063  1.00  0.00    -0.322 N 
HETATM    6  C7  UNL     1      21.503   1.425  50.840  1.00  0.00     0.046 A 
HETATM    7  C8  UNL     1      20.641   1.791  49.841  1.00  0.00     0.033 A 
HETATM    8  C9  UNL     1      20.957   2.480  48.667  1.00  0.00     0.044 A 
HETATM    9  C10 UNL     1      22.303   2.822  48.521  1.00  0.00     0.117 A 
HETATM   10  F1  UNL     1      22.650   3.493  47.399  1.00  0.00    -0.206 F 
HETATM   11  C11 UNL     1      23.197   2.456  49.533  1.00  0.00     0.057 A 
HETATM   12  C12 UNL     1      22.812   1.776  50.664  1.00  0.00     0.009 A 
HETATM   13  H7  UNL     1      20.350   0.364  52.400  1.00  0.00     0.169 HD
ENDROOT
BRANCH   1  14
HETATM   14  C3  UNL     1      25.815   1.141  52.989  1.00  0.00     0.026 C 
HETATM   15  N1  UNL     1      26.504   1.938  54.014  1.00  0.00    -0.385 N 
HETATM   16  C2  UNL     1      27.935   1.523  54.216  1.00  0.00     0.088 C 
HETATM   17  H5  UNL     1      26.307   2.753  54.696  1.00  0.00     0.160 HD
HETATM   18  C1  UNL     1      28.763   2.516  53.524  1.00  0.00     0.033 C 
HETATM   19  C16 UNL     1      28.137   0.084  53.656  1.00  0.00     0.002 A 
HETATM   20  C15 UNL     1      28.267  -1.403  53.060  1.00  0.00     0.017 A 
HETATM   21  C14 UNL     1      27.778  -0.322  53.405  1.00  0.00    -0.000 A 
HETATM   22  C17 UNL     1      29.305  -0.363  53.730  1.00  0.00     0.017 A 
HETATM   23  C13 UNL     1      26.244  -0.162  53.127  1.00  0.00     0.014 C 
ENDBRANCH   1  14
TORSDOF 2
ENDMDL
MODEL 9
REMARK VINA RESULT:      -8.0      4.762      5.862
REMARK  2 active torsions:
REMARK  status: ('A' for Active; 'I' for Inactive)
REMARK    1  A    between atoms: C3_4  and  C4_5 
REMARK    2  A    between atoms: C16_20  and  C17_21 
ROOT
HETATM    1  C4  UNL     1      24.336   3.434  50.249  1.00  0.00     0.046 C 
HETATM    2  C5  UNL     1      24.450   4.674  50.615  1.00  0.00     0.047 A 
HETATM    3  C6  UNL     1      23.788   5.491  51.610  1.00  0.00     0.257 A 
HETATM    4  O1  UNL     1      22.887   5.131  52.392  1.00  0.00    -0.267 OA
HETATM    5  N2  UNL     1      24.282   6.818  51.623  1.00  0.00    -0.322 N 
HETATM    6  C7  UNL     1      25.278   6.810  50.604  1.00  0.00     0.046 A 
HETATM    7  C8  UNL     1      26.107   7.803  50.151  1.00  0.00     0.033 A 
HETATM    8  C9  UNL     1      27.064   7.704  49.139  1.00  0.00     0.044 A 
HETATM    9  C10 UNL     1      27.169   6.448  48.538  1.00  0.00     0.117 A 
HETATM   10  F1  UNL     1      28.086   6.310  47.554  1.00  0.00    -0.206 F 
HETATM   11  C11 UNL     1      26.330   5.423  48.989  1.00  0.00     0.057 A 
HETATM   12  C12 UNL     1      25.408   5.595  49.993  1.00  0.00     0.009 A 
HETATM   13  H7  UNL     1      24.012   7.640  52.215  1.00  0.00     0.169 HD
ENDROOT
BRANCH   1  14
HETATM   14  C3  UNL     1      23.489   2.329  50.687  1.00  0.00     0.026 C 
HETATM   15  N1  UNL     1      22.060   2.042  50.498  1.00  0.00    -0.385 N 
HETATM   16  C2  UNL     1      21.416   1.438  51.715  1.00  0.00     0.088 C 
HETATM   17  H5  UNL     1      21.295   2.126  49.738  1.00  0.00     0.160 HD
HETATM   18  C1  UNL     1      20.658   2.512  52.366  1.00  0.00     0.033 C 
HETATM   19  C16 UNL     1      22.520   0.843  52.639  1.00  0.00     0.002 A 
HETATM   20  C15 UNL     1      23.713   0.250  53.537  1.00  0.00     0.017 A 
HETATM   21  C14 UNL     1      23.113   0.793  52.603  1.00  0.00    -0.000 A 
HETATM   22  C17 UNL     1      22.111   0.342  53.711  1.00  0.00     0.017 A 
HETATM   23  C13 UNL     1      24.020   1.292  51.425  1.00  0.00     0.014 C 
ENDBRANCH   1  14
TORSDOF 2
ENDMDL
