MODEL 1
REMARK VINA RESULT:      -8.4      0.000      0.000
REMARK  5 active torsions:
REMARK  status: ('A' for Active; 'I' for Inactive)
REMARK    1  A    between atoms: C3_3  and  C4_4 
REMARK    2  A    between atoms: C5_5  and  N1_6 
REMARK    3  A    between atoms: N1_6  and  C6_7 
REMARK    4  A    between atoms: C13_17  and  C14_18 
REMARK    5  A    between atoms: C14_18  and  O2_20 
ROOT
HETATM    1  C6  UNL     1      24.797   4.446  50.831  1.00  0.00     0.159 A 
HETATM    2  N2  UNL     1      23.514   4.784  50.635  1.00  0.00    -0.222 NA
HETATM    3  C7  UNL     1      22.526   3.917  50.990  1.00  0.00     0.238 A 
HETATM    4  N3  UNL     1      22.882   2.739  51.532  1.00  0.00    -0.215 NA
HETATM    5  C8  UNL     1      24.171   2.407  51.725  1.00  0.00     0.202 A 
HETATM    6  C9  UNL     1      25.206   3.253  51.381  1.00  0.00     0.129 A 
HETATM    7  N4  UNL     1      26.618   3.168  51.467  1.00  0.00    -0.379 N 
HETATM    8  C10 UNL     1      27.338   2.372  52.452  1.00  0.00     0.161 C 
HETATM    9  C11 UNL     1      26.797   0.997  52.589  1.00  0.00    -0.006 A 
HETATM   10  C12 UNL     1      27.850   0.115  52.831  1.00  0.00     0.029 A 
HETATM   11  C13 UNL     1      27.614  -1.234  52.998  1.00  0.00     0.038 A 
HETATM   12  C15 UNL     1      26.349  -1.780  52.939  1.00  0.00     0.021 A 
HETATM   13  C16 UNL     1      25.293  -0.910  52.699  1.00  0.00     0.039 A 
HETATM   14  C17 UNL     1      25.538   0.438  52.533  1.00  0.00     0.086 A 
HETATM   15  O3  UNL     1      24.356   1.132  52.305  1.00  0.00    -0.289 OA
HETATM   16  H10 UNL     1      27.049   3.764  50.717  1.00  0.00     0.160 HD
ENDROOT
BRANCH   1  17
HETATM   17  N1  UNL     1      25.704   5.451  50.412  1.00  0.00    -0.349 N 
HETATM   18  H8  UNL     1      26.585   5.955  50.633  1.00  0.00     0.167 HD
BRANCH  17  19
HETATM   19  C5  UNL     1      25.519   6.198  49.229  1.00  0.00     0.090 C 
HETATM   20  C4  UNL     1      26.497   6.094  48.314  1.00  0.00     0.017 C 
BRANCH  20  21
HETATM   21  C3  UNL     1      27.638   5.245  48.608  1.00  0.00    -0.003 C 
HETATM   22  C2  UNL     1      28.865   5.603  48.265  1.00  0.00    -0.031 C 
HETATM   23  C1  UNL     1      29.039   6.911  47.566  1.00  0.00     0.036 C 
ENDBRANCH  20  21
ENDBRANCH  17  19
ENDBRANCH   1  17
BRANCH  11  24
HETATM   24  C14 UNL     1      28.694  -2.180  53.251  1.00  0.00     0.176 C 
HETATM   25  O1  UNL     1      29.866  -1.857  53.605  1.00  0.00    -0.646 OA
BRANCH  24  26
HETATM   26  O2  UNL     1      28.586  -3.552  53.138  1.00  0.00    -0.773 OA
HETATM   27  H14 UNL     1      28.013  -3.985  52.452  1.00  0.00     0.167 HD
ENDBRANCH  24  26
ENDBRANCH  11  24
TORSDOF 5
ENDMDL
MODEL 2
REMARK VINA RESULT:      -8.3      3.646      6.067
REMARK  5 active torsions:
REMARK  status: ('A' for Active; 'I' for Inactive)
REMARK    1  A    between atoms: C3_3  and  C4_4 
REMARK    2  A    between atoms: C5_5  and  N1_6 
REMARK    3  A    between atoms: N1_6  and  C6_7 
REMARK    4  A    between atoms: C13_17  and  C14_18 
REMARK    5  A    between atoms: C14_18  and  O2_20 
ROOT
HETATM    1  C6  UNL     1      26.144   1.713  52.947  1.00  0.00     0.159 A 
HETATM    2  N2  UNL     1      27.275   1.380  53.588  1.00  0.00    -0.222 NA
HETATM    3  C7  UNL     1      27.291   0.295  54.409  1.00  0.00     0.238 A 
HETATM    4  N3  UNL     1      26.154  -0.410  54.548  1.00  0.00    -0.215 NA
HETATM    5  C8  UNL     1      25.024  -0.070  53.905  1.00  0.00     0.202 A 
HETATM    6  C9  UNL     1      24.960   1.021  53.061  1.00  0.00     0.129 A 
HETATM    7  N4  UNL     1      23.933   1.599  52.274  1.00  0.00    -0.379 N 
HETATM    8  C10 UNL     1      22.802   0.864  51.725  1.00  0.00     0.161 C 
HETATM    9  C11 UNL     1      22.155  -0.028  52.719  1.00  0.00    -0.006 A 
HETATM   10  C12 UNL     1      20.781  -0.048  52.488  1.00  0.00     0.029 A 
HETATM   11  C13 UNL     1      19.944  -0.807  53.281  1.00  0.00     0.038 A 
HETATM   12  C15 UNL     1      20.408  -1.576  54.328  1.00  0.00     0.021 A 
HETATM   13  C16 UNL     1      21.777  -1.562  54.566  1.00  0.00     0.039 A 
HETATM   14  C17 UNL     1      22.606  -0.800  53.769  1.00  0.00     0.086 A 
HETATM   15  O3  UNL     1      23.931  -0.925  54.170  1.00  0.00    -0.289 OA
HETATM   16  H10 UNL     1      24.122   2.625  52.155  1.00  0.00     0.160 HD
ENDROOT
BRANCH   1  17
HETATM   17  N1  UNL     1      26.288   2.863  52.131  1.00  0.00    -0.349 N 
HETATM   18  H8  UNL     1      26.172   3.893  52.076  1.00  0.00     0.167 HD
BRANCH  17  19
HETATM   19  C5  UNL     1      26.775   2.800  50.809  1.00  0.00     0.090 C 
HETATM   20  C4  UNL     1      26.151   3.590  49.919  1.00  0.00     0.017 C 
BRANCH  20  21
HETATM   21  C3  UNL     1      25.052   4.422  50.377  1.00  0.00    -0.003 C 
HETATM   22  C2  UNL     1      23.827   4.261  49.902  1.00  0.00    -0.031 C 
HETATM   23  C1  UNL     1      23.611   3.195  48.880  1.00  0.00     0.036 C 
ENDBRANCH  20  21
ENDBRANCH  17  19
ENDBRANCH   1  17
BRANCH  11  24
HETATM   24  C14 UNL     1      18.503  -0.848  53.064  1.00  0.00     0.176 C 
HETATM   25  O1  UNL     1      17.932  -0.555  51.972  1.00  0.00    -0.646 OA
BRANCH  24  26
HETATM   26  O2  UNL     1      17.570  -1.210  54.015  1.00  0.00    -0.773 OA
HETATM   27  H14 UNL     1      17.626  -0.902  54.957  1.00  0.00     0.167 HD
ENDBRANCH  24  26
ENDBRANCH  11  24
TORSDOF 5
ENDMDL
MODEL 3
REMARK VINA RESULT:      -8.2      3.442      5.628
REMARK  5 active torsions:
REMARK  status: ('A' for Active; 'I' for Inactive)
REMARK    1  A    between atoms: C3_3  and  C4_4 
REMARK    2  A    between atoms: C5_5  and  N1_6 
REMARK    3  A    between atoms: N1_6  and  C6_7 
REMARK    4  A    between atoms: C13_17  and  C14_18 
REMARK    5  A    between atoms: C14_18  and  O2_20 
ROOT
HETATM    1  C6  UNL     1      26.130   2.108  52.401  1.00  0.00     0.159 A 
HETATM    2  N2  UNL     1      27.314   1.874  52.987  1.00  0.00    -0.222 NA
HETATM    3  C7  UNL     1      27.438   0.847  53.871  1.00  0.00     0.238 A 
HETATM    4  N3  UNL     1      26.351   0.097  54.127  1.00  0.00    -0.215 NA
HETATM    5  C8  UNL     1      25.167   0.338  53.538  1.00  0.00     0.202 A 
HETATM    6  C9  UNL     1      24.993   1.367  52.634  1.00  0.00     0.129 A 
HETATM    7  N4  UNL     1      23.890   1.842  51.880  1.00  0.00    -0.379 N 
HETATM    8  C10 UNL     1      22.769   1.017  51.453  1.00  0.00     0.161 C 
HETATM    9  C11 UNL     1      22.233   0.162  52.540  1.00  0.00    -0.006 A 
HETATM   10  C12 UNL     1      20.850   0.059  52.400  1.00  0.00     0.029 A 
HETATM   11  C13 UNL     1      20.105  -0.687  53.291  1.00  0.00     0.038 A 
HETATM   12  C15 UNL     1      20.673  -1.362  54.351  1.00  0.00     0.021 A 
HETATM   13  C16 UNL     1      22.051  -1.266  54.500  1.00  0.00     0.039 A 
HETATM   14  C17 UNL     1      22.787  -0.518  53.604  1.00  0.00     0.086 A 
HETATM   15  O3  UNL     1      24.139  -0.550  53.926  1.00  0.00    -0.289 OA
HETATM   16  H10 UNL     1      24.017   2.866  51.686  1.00  0.00     0.160 HD
ENDROOT
BRANCH   1  17
HETATM   17  N1  UNL     1      26.162   3.208  51.507  1.00  0.00    -0.349 N 
HETATM   18  H8  UNL     1      25.994   4.226  51.398  1.00  0.00     0.167 HD
BRANCH  17  19
HETATM   19  C5  UNL     1      26.555   3.080  50.159  1.00  0.00     0.090 C 
HETATM   20  C4  UNL     1      26.224   4.103  49.354  1.00  0.00     0.017 C 
BRANCH  20  21
HETATM   21  C3  UNL     1      25.503   5.230  49.922  1.00  0.00    -0.003 C 
HETATM   22  C2  UNL     1      25.789   6.473  49.570  1.00  0.00    -0.031 C 
HETATM   23  C1  UNL     1      26.876   6.681  48.569  1.00  0.00     0.036 C 
ENDBRANCH  20  21
ENDBRANCH  17  19
ENDBRANCH   1  17
BRANCH  11  24
HETATM   24  C14 UNL     1      18.658  -0.813  53.170  1.00  0.00     0.176 C 
HETATM   25  O1  UNL     1      17.990  -0.487  52.145  1.00  0.00    -0.646 OA
BRANCH  24  26
HETATM   26  O2  UNL     1      17.822  -1.303  54.154  1.00  0.00    -0.773 OA
HETATM   27  H14 UNL     1      18.084  -2.055  54.748  1.00  0.00     0.167 HD
ENDBRANCH  24  26
ENDBRANCH  11  24
TORSDOF 5
ENDMDL
MODEL 4
REMARK VINA RESULT:      -7.8      4.695      7.562
REMARK  5 active torsions:
REMARK  status: ('A' for Active; 'I' for Inactive)
REMARK    1  A    between atoms: C3_3  and  C4_4 
REMARK    2  A    between atoms: C5_5  and  N1_6 
REMARK    3  A    between atoms: N1_6  and  C6_7 
REMARK    4  A    between atoms: C13_17  and  C14_18 
REMARK    5  A    between atoms: C14_18  and  O2_20 
ROOT
HETATM    1  C6  UNL     1      24.356   0.890  53.038  1.00  0.00     0.159 A 
HETATM    2  N2  UNL     1      24.900   1.986  52.489  1.00  0.00    -0.222 NA
HETATM    3  C7  UNL     1      24.102   2.897  51.868  1.00  0.00     0.238 A 
HETATM    4  N3  UNL     1      22.779   2.658  51.830  1.00  0.00    -0.215 NA
HETATM    5  C8  UNL     1      22.240   1.557  52.382  1.00  0.00     0.202 A 
HETATM    6  C9  UNL     1      23.010   0.605  53.022  1.00  0.00     0.129 A 
HETATM    7  N4  UNL     1      22.721  -0.619  53.676  1.00  0.00    -0.379 N 
HETATM    8  C10 UNL     1      21.452  -0.929  54.320  1.00  0.00     0.161 C 
HETATM    9  C11 UNL     1      20.278  -0.582  53.482  1.00  0.00    -0.006 A 
HETATM   10  C12 UNL     1      19.276  -1.530  53.686  1.00  0.00     0.029 A 
HETATM   11  C13 UNL     1      18.071  -1.435  53.019  1.00  0.00     0.038 A 
HETATM   12  C15 UNL     1      17.792  -0.417  52.131  1.00  0.00     0.021 A 
HETATM   13  C16 UNL     1      18.784   0.533  51.922  1.00  0.00     0.039 A 
HETATM   14  C17 UNL     1      19.985   0.430  52.592  1.00  0.00     0.086 A 
HETATM   15  O3  UNL     1      20.837   1.473  52.246  1.00  0.00    -0.289 OA
HETATM   16  H10 UNL     1      23.558  -1.249  53.619  1.00  0.00     0.160 HD
ENDROOT
BRANCH   1  17
HETATM   17  N1  UNL     1      25.315   0.041  53.646  1.00  0.00    -0.349 N 
HETATM   18  H8  UNL     1      25.795  -0.211  54.531  1.00  0.00     0.167 HD
BRANCH  17  19
HETATM   19  C5  UNL     1      26.027  -0.940  52.925  1.00  0.00     0.090 C 
HETATM   20  C4  UNL     1      27.365  -0.823  52.946  1.00  0.00     0.017 C 
BRANCH  20  21
HETATM   21  C3  UNL     1      27.956   0.277  53.689  1.00  0.00    -0.003 C 
HETATM   22  C2  UNL     1      29.232   0.259  54.039  1.00  0.00    -0.031 C 
HETATM   23  C1  UNL     1      30.046  -0.928  53.644  1.00  0.00     0.036 C 
ENDBRANCH  20  21
ENDBRANCH  17  19
ENDBRANCH   1  17
BRANCH  11  24
HETATM   24  C14 UNL     1      17.005  -2.410  53.210  1.00  0.00     0.176 C 
HETATM   25  O1  UNL     1      17.179  -3.594  53.625  1.00  0.00    -0.646 OA
BRANCH  24  26
HETATM   26  O2  UNL     1      15.666  -2.177  52.965  1.00  0.00    -0.773 OA
HETATM   27  H14 UNL     1      15.029  -2.910  52.759  1.00  0.00     0.167 HD
ENDBRANCH  24  26
ENDBRANCH  11  24
TORSDOF 5
ENDMDL
MODEL 5
REMARK VINA RESULT:      -7.6      3.172      6.957
REMARK  5 active torsions:
REMARK  status: ('A' for Active; 'I' for Inactive)
REMARK    1  A    between atoms: C3_3  and  C4_4 
REMARK    2  A    between atoms: C5_5  and  N1_6 
REMARK    3  A    between atoms: N1_6  and  C6_7 
REMARK    4  A    between atoms: C13_17  and  C14_18 
REMARK    5  A    between atoms: C14_18  and  O2_20 
ROOT
HETATM    1  C6  UNL     1      24.296   0.851  52.461  1.00  0.00     0.159 A 
HETATM    2  N2  UNL     1      23.108   0.267  52.678  1.00  0.00    -0.222 NA
HETATM    3  C7  UNL     1      22.019   0.673  51.970  1.00  0.00     0.238 A 
HETATM    4  N3  UNL     1      22.179   1.658  51.069  1.00  0.00    -0.215 NA
HETATM    5  C8  UNL     1      23.373   2.239  50.858  1.00  0.00     0.202 A 
HETATM    6  C9  UNL     1      24.506   1.861  51.551  1.00  0.00     0.129 A 
HETATM    7  N4  UNL     1      25.858   2.287  51.536  1.00  0.00    -0.379 N 
HETATM    8  C10 UNL     1      26.524   2.878  50.383  1.00  0.00     0.161 C 
HETATM    9  C11 UNL     1      25.715   3.935  49.728  1.00  0.00    -0.006 A 
HETATM   10  C12 UNL     1      26.565   4.936  49.261  1.00  0.00     0.029 A 
HETATM   11  C13 UNL     1      26.059   6.041  48.607  1.00  0.00     0.038 A 
HETATM   12  C15 UNL     1      24.710   6.218  48.382  1.00  0.00     0.021 A 
HETATM   13  C16 UNL     1      23.854   5.226  48.844  1.00  0.00     0.039 A 
HETATM   14  C17 UNL     1      24.369   4.124  49.496  1.00  0.00     0.086 A 
HETATM   15  O3  UNL     1      23.353   3.254  49.876  1.00  0.00    -0.289 OA
HETATM   16  H10 UNL     1      26.289   2.108  52.477  1.00  0.00     0.160 HD
ENDROOT
BRANCH   1  17
HETATM   17  N1  UNL     1      25.330   0.319  53.272  1.00  0.00    -0.349 N 
HETATM   18  H8  UNL     1      25.939   0.482  54.097  1.00  0.00     0.167 HD
BRANCH  17  19
HETATM   19  C5  UNL     1      25.915  -0.941  53.029  1.00  0.00     0.090 C 
HETATM   20  C4  UNL     1      27.250  -1.002  53.167  1.00  0.00     0.017 C 
BRANCH  20  21
HETATM   21  C3  UNL     1      27.966   0.205  53.545  1.00  0.00    -0.003 C 
HETATM   22  C2  UNL     1      29.271   0.185  53.768  1.00  0.00    -0.031 C 
HETATM   23  C1  UNL     1      29.983  -1.117  53.620  1.00  0.00     0.036 C 
ENDBRANCH  20  21
ENDBRANCH  17  19
ENDBRANCH   1  17
BRANCH  11  24
HETATM   24  C14 UNL     1      26.923   7.104  48.107  1.00  0.00     0.176 C 
HETATM   25  O1  UNL     1      28.080   7.359  48.553  1.00  0.00    -0.646 OA
BRANCH  24  26
HETATM   26  O2  UNL     1      26.597   7.973  47.085  1.00  0.00    -0.773 OA
HETATM   27  H14 UNL     1      26.586   7.692  46.132  1.00  0.00     0.167 HD
ENDBRANCH  24  26
ENDBRANCH  11  24
TORSDOF 5
ENDMDL
MODEL 6
REMARK VINA RESULT:      -7.6      2.608      4.649
REMARK  5 active torsions:
REMARK  status: ('A' for Active; 'I' for Inactive)
REMARK    1  A    between atoms: C3_3  and  C4_4 
REMARK    2  A    between atoms: C5_5  and  N1_6 
REMARK    3  A    between atoms: N1_6  and  C6_7 
REMARK    4  A    between atoms: C13_17  and  C14_18 
REMARK    5  A    between atoms: C14_18  and  O2_20 
ROOT
HETATM    1  C6  UNL     1      24.573   4.416  49.604  1.00  0.00     0.159 A 
HETATM    2  N2  UNL     1      25.713   4.886  49.077  1.00  0.00    -0.222 NA
HETATM    3  C7  UNL     1      26.892   4.267  49.359  1.00  0.00     0.238 A 
HETATM    4  N3  UNL     1      26.865   3.193  50.168  1.00  0.00    -0.215 NA
HETATM    5  C8  UNL     1      25.719   2.728  50.694  1.00  0.00     0.202 A 
HETATM    6  C9  UNL     1      24.499   3.323  50.436  1.00  0.00     0.129 A 
HETATM    7  N4  UNL     1      23.168   3.056  50.842  1.00  0.00    -0.379 N 
HETATM    8  C10 UNL     1      22.667   1.740  51.214  1.00  0.00     0.161 C 
HETATM    9  C11 UNL     1      23.571   1.020  52.145  1.00  0.00    -0.006 A 
HETATM   10  C12 UNL     1      22.804   0.276  53.041  1.00  0.00     0.029 A 
HETATM   11  C13 UNL     1      23.408  -0.490  54.017  1.00  0.00     0.038 A 
HETATM   12  C15 UNL     1      24.778  -0.565  54.161  1.00  0.00     0.021 A 
HETATM   13  C16 UNL     1      25.551   0.173  53.273  1.00  0.00     0.039 A 
HETATM   14  C17 UNL     1      24.938   0.937  52.300  1.00  0.00     0.086 A 
HETATM   15  O3  UNL     1      25.882   1.593  51.519  1.00  0.00    -0.289 OA
HETATM   16  H10 UNL     1      22.615   3.949  50.829  1.00  0.00     0.160 HD
ENDROOT
BRANCH   1  17
HETATM   17  N1  UNL     1      23.434   5.166  49.217  1.00  0.00    -0.349 N 
HETATM   18  H8  UNL     1      22.397   5.217  49.235  1.00  0.00     0.167 HD
BRANCH  17  19
HETATM   19  C5  UNL     1      23.529   6.377  48.500  1.00  0.00     0.090 C 
HETATM   20  C4  UNL     1      23.053   7.466  49.128  1.00  0.00     0.017 C 
BRANCH  20  21
HETATM   21  C3  UNL     1      22.493   7.312  50.459  1.00  0.00    -0.003 C 
HETATM   22  C2  UNL     1      21.257   7.700  50.731  1.00  0.00    -0.031 C 
HETATM   23  C1  UNL     1      20.456   8.299  49.623  1.00  0.00     0.036 C 
ENDBRANCH  20  21
ENDBRANCH  17  19
ENDBRANCH   1  17
BRANCH  11  24
HETATM   24  C14 UNL     1      22.634  -1.278  54.968  1.00  0.00     0.176 C 
HETATM   25  O1  UNL     1      21.377  -1.424  54.926  1.00  0.00    -0.646 OA
BRANCH  24  26
HETATM   26  O2  UNL     1      23.164  -1.969  56.039  1.00  0.00    -0.773 OA
HETATM   27  H14 UNL     1      23.844  -1.571  56.643  1.00  0.00     0.167 HD
ENDBRANCH  24  26
ENDBRANCH  11  24
TORSDOF 5
ENDMDL
MODEL 7
REMARK VINA RESULT:      -7.5      2.752      4.750
REMARK  5 active torsions:
REMARK  status: ('A' for Active; 'I' for Inactive)
REMARK    1  A    between atoms: C3_3  and  C4_4 
REMARK    2  A    between atoms: C5_5  and  N1_6 
REMARK    3  A    between atoms: N1_6  and  C6_7 
REMARK    4  A    between atoms: C13_17  and  C14_18 
REMARK    5  A    between atoms: C14_18  and  O2_20 
ROOT
HETATM    1  C6  UNL     1      24.682   4.726  49.524  1.00  0.00     0.159 A 
HETATM    2  N2  UNL     1      25.868   5.085  49.009  1.00  0.00    -0.222 NA
HETATM    3  C7  UNL     1      26.971   4.331  49.265  1.00  0.00     0.238 A 
HETATM    4  N3  UNL     1      26.826   3.239  50.037  1.00  0.00    -0.215 NA
HETATM    5  C8  UNL     1      25.635   2.885  50.551  1.00  0.00     0.202 A 
HETATM    6  C9  UNL     1      24.489   3.618  50.317  1.00  0.00     0.129 A 
HETATM    7  N4  UNL     1      23.136   3.486  50.719  1.00  0.00    -0.379 N 
HETATM    8  C10 UNL     1      22.493   2.221  51.048  1.00  0.00     0.161 C 
HETATM    9  C11 UNL     1      23.313   1.375  51.950  1.00  0.00    -0.006 A 
HETATM   10  C12 UNL     1      22.469   0.689  52.822  1.00  0.00     0.029 A 
HETATM   11  C13 UNL     1      22.985  -0.173  53.769  1.00  0.00     0.038 A 
HETATM   12  C15 UNL     1      24.338  -0.403  53.906  1.00  0.00     0.021 A 
HETATM   13  C16 UNL     1      25.187   0.276  53.041  1.00  0.00     0.039 A 
HETATM   14  C17 UNL     1      24.663   1.136  52.097  1.00  0.00     0.086 A 
HETATM   15  O3  UNL     1      25.673   1.711  51.336  1.00  0.00    -0.289 OA
HETATM   16  H10 UNL     1      22.685   4.434  50.738  1.00  0.00     0.160 HD
ENDROOT
BRANCH   1  17
HETATM   17  N1  UNL     1      23.633   5.609  49.166  1.00  0.00    -0.349 N 
HETATM   18  H8  UNL     1      22.747   6.054  49.475  1.00  0.00     0.167 HD
BRANCH  17  19
HETATM   19  C5  UNL     1      23.580   6.261  47.917  1.00  0.00     0.090 C 
HETATM   20  C4  UNL     1      22.582   5.881  47.102  1.00  0.00     0.017 C 
BRANCH  20  21
HETATM   21  C3  UNL     1      21.661   4.854  47.560  1.00  0.00    -0.003 C 
HETATM   22  C2  UNL     1      21.325   3.839  46.781  1.00  0.00    -0.031 C 
HETATM   23  C1  UNL     1      21.924   3.781  45.415  1.00  0.00     0.036 C 
ENDBRANCH  20  21
ENDBRANCH  17  19
ENDBRANCH   1  17
BRANCH  11  24
HETATM   24  C14 UNL     1      22.128  -0.904  54.695  1.00  0.00     0.176 C 
HETATM   25  O1  UNL     1      22.522  -1.836  55.456  1.00  0.00    -0.646 OA
BRANCH  24  26
HETATM   26  O2  UNL     1      20.776  -0.679  54.866  1.00  0.00    -0.773 OA
HETATM   27  H14 UNL     1      20.334   0.155  54.561  1.00  0.00     0.167 HD
ENDBRANCH  24  26
ENDBRANCH  11  24
TORSDOF 5
ENDMDL
MODEL 8
REMARK VINA RESULT:      -7.4      3.441      6.906
REMARK  5 active torsions:
REMARK  status: ('A' for Active; 'I' for Inactive)
REMARK    1  A    between atoms: C3_3  and  C4_4 
REMARK    2  A    between atoms: C5_5  and  N1_6 
REMARK    3  A    between atoms: N1_6  and  C6_7 
REMARK    4  A    between atoms: C13_17  and  C14_18 
REMARK    5  A    between atoms: C14_18  and  O2_20 
ROOT
HETATM    1  C6  UNL     1      23.274   3.897  51.967  1.00  0.00     0.159 A 
HETATM    2  N2  UNL     1      22.053   4.420  52.156  1.00  0.00    -0.222 NA
HETATM    3  C7  UNL     1      21.663   5.501  51.427  1.00  0.00     0.238 A 
HETATM    4  N3  UNL     1      22.529   6.010  50.534  1.00  0.00    -0.215 NA
HETATM    5  C8  UNL     1      23.752   5.482  50.351  1.00  0.00     0.202 A 
HETATM    6  C9  UNL     1      24.193   4.385  51.066  1.00  0.00     0.129 A 
HETATM    7  N4  UNL     1      25.397   3.638  51.082  1.00  0.00    -0.379 N 
HETATM    8  C10 UNL     1      26.299   3.504  49.946  1.00  0.00     0.161 C 
HETATM    9  C11 UNL     1      26.584   4.798  49.278  1.00  0.00    -0.006 A 
HETATM   10  C12 UNL     1      27.905   4.799  48.833  1.00  0.00     0.029 A 
HETATM   11  C13 UNL     1      28.424   5.895  48.173  1.00  0.00     0.038 A 
HETATM   12  C15 UNL     1      27.682   7.030  47.920  1.00  0.00     0.021 A 
HETATM   13  C16 UNL     1      26.364   7.038  48.360  1.00  0.00     0.039 A 
HETATM   14  C17 UNL     1      25.853   5.938  49.018  1.00  0.00     0.086 A 
HETATM   15  O3  UNL     1      24.525   6.146  49.372  1.00  0.00    -0.289 OA
HETATM   16  H10 UNL     1      25.526   3.207  52.030  1.00  0.00     0.160 HD
ENDROOT
BRANCH   1  17
HETATM   17  N1  UNL     1      23.532   2.778  52.798  1.00  0.00    -0.349 N 
HETATM   18  H8  UNL     1      24.147   2.384  53.536  1.00  0.00     0.167 HD
BRANCH  17  19
HETATM   19  C5  UNL     1      22.743   1.610  52.765  1.00  0.00     0.090 C 
HETATM   20  C4  UNL     1      23.418   0.448  52.769  1.00  0.00     0.017 C 
BRANCH  20  21
HETATM   21  C3  UNL     1      24.870   0.488  52.804  1.00  0.00    -0.003 C 
HETATM   22  C2  UNL     1      25.548  -0.117  53.766  1.00  0.00    -0.031 C 
HETATM   23  C1  UNL     1      24.773  -0.842  54.815  1.00  0.00     0.036 C 
ENDBRANCH  20  21
ENDBRANCH  17  19
ENDBRANCH   1  17
BRANCH  11  24
HETATM   24  C14 UNL     1      29.801   5.927  47.696  1.00  0.00     0.176 C 
HETATM   25  O1  UNL     1      30.331   6.906  47.092  1.00  0.00    -0.646 OA
BRANCH  24  26
HETATM   26  O2  UNL     1      30.711   4.898  47.837  1.00  0.00    -0.773 OA
HETATM   27  H14 UNL     1      31.578   4.886  47.354  1.00  0.00     0.167 HD
ENDBRANCH  24  26
ENDBRANCH  11  24
TORSDOF 5
ENDMDL
MODEL 9
REMARK VINA RESULT:      -7.3      3.100      5.169
REMARK  5 active torsions:
REMARK  status: ('A' for Active; 'I' for Inactive)
REMARK    1  A    between atoms: C3_3  and  C4_4 
REMARK    2  A    between atoms: C5_5  and  N1_6 
REMARK    3  A    between atoms: N1_6  and  C6_7 
REMARK    4  A    between atoms: C13_17  and  C14_18 
REMARK    5  A    between atoms: C14_18  and  O2_20 
ROOT
HETATM    1  C6  UNL     1      23.143   5.695  51.084  1.00  0.00     0.159 A 
HETATM    2  N2  UNL     1      24.109   6.291  50.368  1.00  0.00    -0.222 NA
HETATM    3  C7  UNL     1      25.233   5.597  50.041  1.00  0.00     0.238 A 
HETATM    4  N3  UNL     1      25.332   4.322  50.455  1.00  0.00    -0.215 NA
HETATM    5  C8  UNL     1      24.361   3.730  51.173  1.00  0.00     0.202 A 
HETATM    6  C9  UNL     1      23.203   4.394  51.528  1.00  0.00     0.129 A 
HETATM    7  N4  UNL     1      22.044   4.031  52.259  1.00  0.00    -0.379 N 
HETATM    8  C10 UNL     1      21.531   2.673  52.370  1.00  0.00     0.161 C 
HETATM    9  C11 UNL     1      22.588   1.680  52.685  1.00  0.00    -0.006 A 
HETATM   10  C12 UNL     1      22.057   0.700  53.523  1.00  0.00     0.029 A 
HETATM   11  C13 UNL     1      22.840  -0.347  53.965  1.00  0.00     0.038 A 
HETATM   12  C15 UNL     1      24.167  -0.484  53.612  1.00  0.00     0.021 A 
HETATM   13  C16 UNL     1      24.704   0.487  52.778  1.00  0.00     0.039 A 
HETATM   14  C17 UNL     1      23.914   1.531  52.340  1.00  0.00     0.086 A 
HETATM   15  O3  UNL     1      24.637   2.389  51.519  1.00  0.00    -0.289 OA
HETATM   16  H10 UNL     1      21.628   4.890  52.698  1.00  0.00     0.160 HD
ENDROOT
BRANCH   1  17
HETATM   17  N1  UNL     1      22.039   6.546  51.342  1.00  0.00    -0.349 N 
HETATM   18  H8  UNL     1      21.293   6.797  52.019  1.00  0.00     0.167 HD
BRANCH  17  19
HETATM   19  C5  UNL     1      21.608   7.530  50.429  1.00  0.00     0.090 C 
HETATM   20  C4  UNL     1      20.547   7.202  49.675  1.00  0.00     0.017 C 
BRANCH  20  21
HETATM   21  C3  UNL     1      19.944   5.893  49.853  1.00  0.00    -0.003 C 
HETATM   22  C2  UNL     1      19.799   5.061  48.834  1.00  0.00    -0.031 C 
HETATM   23  C1  UNL     1      20.277   5.511  47.494  1.00  0.00     0.036 C 
ENDBRANCH  20  21
ENDBRANCH  17  19
ENDBRANCH   1  17
BRANCH  11  24
HETATM   24  C14 UNL     1      22.314  -1.387  54.842  1.00  0.00     0.176 C 
HETATM   25  O1  UNL     1      21.149  -1.875  54.760  1.00  0.00    -0.646 OA
BRANCH  24  26
HETATM   26  O2  UNL     1      23.013  -1.977  55.877  1.00  0.00    -0.773 OA
HETATM   27  H14 UNL     1      22.592  -2.182  56.752  1.00  0.00     0.167 HD
ENDBRANCH  24  26
ENDBRANCH  11  24
TORSDOF 5
ENDMDL
