MODEL 1
REMARK VINA RESULT:      -8.3      0.000      0.000
REMARK  3 active torsions:
REMARK  status: ('A' for Active; 'I' for Inactive)
REMARK    1  A    between atoms: C1_2  and  C2_3 
REMARK       I    between atoms: C1_2  and  N2_20 
REMARK    2  A    between atoms: C2_3  and  N1_4 
REMARK    3  A    between atoms: N2_20  and  C15_21 
ROOT
HETATM    1  N1  UNL     1      23.576   2.918  51.334  1.00  0.00    -0.379 N 
HETATM    2  C3  UNL     1      24.549   3.682  50.654  1.00  0.00     0.073 C 
HETATM    3  C4  UNL     1      25.687   3.055  50.124  1.00  0.00     0.094 C 
HETATM    4  C5  UNL     1      26.595   3.969  49.414  1.00  0.00     0.005 C 
HETATM    5  C6  UNL     1      26.870   5.221  48.957  1.00  0.00     0.138 C 
HETATM    6  O2  UNL     1      25.644   5.617  49.493  1.00  0.00    -0.326 OA
HETATM    7  C7  UNL     1      24.468   5.589  48.652  1.00  0.00     0.064 A 
HETATM    8  C8  UNL     1      23.441   4.716  48.347  1.00  0.00     0.001 A 
HETATM    9  C9  UNL     1      22.364   5.091  47.381  1.00  0.00     0.112 A 
HETATM   10  C10 UNL     1      22.499   6.413  46.787  1.00  0.00     0.095 A 
HETATM   11  F1  UNL     1      21.559   6.771  45.901  1.00  0.00    -0.211 F 
HETATM   12  C11 UNL     1      23.496   7.174  47.124  1.00  0.00     0.018 A 
HETATM   13  C12 UNL     1      24.607   6.934  48.074  1.00  0.00     0.095 A 
HETATM   14  C13 UNL     1      23.086   3.342  48.766  1.00  0.00     0.058 C 
HETATM   15 CL1  UNL     1      22.472   2.246  47.534  1.00  0.00    -0.082 Cl
HETATM   16  C14 UNL     1      23.129   2.614  49.929  1.00  0.00     0.110 C 
ENDROOT
BRANCH   1  17
HETATM   17  C2  UNL     1      22.906   2.372  52.467  1.00  0.00     0.224 C 
BRANCH  17  18
HETATM   18  C1  UNL     1      23.284   0.980  52.772  1.00  0.00     0.236 C 
HETATM   19  O1  UNL     1      22.525  -0.007  52.970  1.00  0.00    -0.272 OA
HETATM   20  N2  UNL     1      24.691   0.784  52.839  1.00  0.00    -0.347 N 
HETATM   21  H13 UNL     1      25.388   1.544  52.690  1.00  0.00     0.163 HD
BRANCH  20  22
HETATM   22  C15 UNL     1      25.323  -0.492  53.122  1.00  0.00     0.149 C 
HETATM   23  C16 UNL     1      25.508  -0.499  54.619  1.00  0.00     0.023 C 
HETATM   24  C17 UNL     1      26.486   0.014  55.366  1.00  0.00     0.116 C 
HETATM   25  N3  UNL     1      27.631   0.720  54.904  1.00  0.00    -0.254 NA
HETATM   26  C18 UNL     1      28.162   0.595  53.735  1.00  0.00     0.231 C 
HETATM   27  N4  UNL     1      27.773  -0.239  52.635  1.00  0.00    -0.256 NA
HETATM   28  C19 UNL     1      26.584  -0.678  52.403  1.00  0.00     0.120 C 
ENDBRANCH  20  22
ENDBRANCH  17  18
ENDBRANCH   1  17
TORSDOF 3
ENDMDL
MODEL 2
REMARK VINA RESULT:      -8.1      3.723      7.534
REMARK  3 active torsions:
REMARK  status: ('A' for Active; 'I' for Inactive)
REMARK    1  A    between atoms: C1_2  and  C2_3 
REMARK       I    between atoms: C1_2  and  N2_20 
REMARK    2  A    between atoms: C2_3  and  N1_4 
REMARK    3  A    between atoms: N2_20  and  C15_21 
ROOT
HETATM    1  N1  UNL     1      26.320   3.035  50.815  1.00  0.00    -0.379 N 
HETATM    2  C3  UNL     1      26.269   2.036  51.812  1.00  0.00     0.073 C 
HETATM    3  C4  UNL     1      26.911   2.243  53.043  1.00  0.00     0.094 C 
HETATM    4  C5  UNL     1      26.745   1.133  53.994  1.00  0.00     0.005 C 
HETATM    5  C6  UNL     1      26.200  -0.077  54.295  1.00  0.00     0.138 C 
HETATM    6  O2  UNL     1      25.584  -0.038  53.044  1.00  0.00    -0.326 OA
HETATM    7  C7  UNL     1      24.251   0.514  52.934  1.00  0.00     0.064 A 
HETATM    8  C8  UNL     1      23.662   1.733  52.663  1.00  0.00     0.001 A 
HETATM    9  C9  UNL     1      22.176   1.890  52.640  1.00  0.00     0.112 A 
HETATM   10  C10 UNL     1      21.421   0.682  52.943  1.00  0.00     0.095 A 
HETATM   11  F1  UNL     1      20.086   0.794  52.950  1.00  0.00    -0.211 F 
HETATM   12  C11 UNL     1      22.051  -0.427  53.189  1.00  0.00     0.018 A 
HETATM   13  C12 UNL     1      23.503  -0.719  53.223  1.00  0.00     0.095 A 
HETATM   14  C13 UNL     1      24.170   3.090  52.362  1.00  0.00     0.058 C 
HETATM   15 CL1  UNL     1      23.334   4.456  53.089  1.00  0.00    -0.082 Cl
HETATM   16  C14 UNL     1      25.208   3.627  51.641  1.00  0.00     0.110 C 
ENDROOT
BRANCH   1  17
HETATM   17  C2  UNL     1      26.793   3.673  49.632  1.00  0.00     0.224 C 
BRANCH  17  18
HETATM   18  C1  UNL     1      26.013   4.861  49.240  1.00  0.00     0.236 C 
HETATM   19  O1  UNL     1      24.831   4.907  48.806  1.00  0.00    -0.272 OA
HETATM   20  N2  UNL     1      26.733   6.078  49.391  1.00  0.00    -0.347 N 
HETATM   21  H13 UNL     1      27.714   6.130  49.741  1.00  0.00     0.163 HD
BRANCH  20  22
HETATM   22  C15 UNL     1      26.192   7.389  49.077  1.00  0.00     0.149 C 
HETATM   23  C16 UNL     1      26.635   7.650  47.657  1.00  0.00     0.023 C 
HETATM   24  C17 UNL     1      27.782   8.144  47.193  1.00  0.00     0.116 C 
HETATM   25  N3  UNL     1      28.906   8.558  47.960  1.00  0.00    -0.254 NA
HETATM   26  C18 UNL     1      28.865   8.960  49.186  1.00  0.00     0.231 C 
HETATM   27  N4  UNL     1      27.743   9.097  50.069  1.00  0.00    -0.256 NA
HETATM   28  C19 UNL     1      26.643   8.430  50.002  1.00  0.00     0.120 C 
ENDBRANCH  20  22
ENDBRANCH  17  18
ENDBRANCH   1  17
TORSDOF 3
ENDMDL
MODEL 3
REMARK VINA RESULT:      -8.0      4.254      7.308
REMARK  3 active torsions:
REMARK  status: ('A' for Active; 'I' for Inactive)
REMARK    1  A    between atoms: C1_2  and  C2_3 
REMARK       I    between atoms: C1_2  and  N2_20 
REMARK    2  A    between atoms: C2_3  and  N1_4 
REMARK    3  A    between atoms: N2_20  and  C15_21 
ROOT
HETATM    1  N1  UNL     1      25.253   6.513  50.059  1.00  0.00    -0.379 N 
HETATM    2  C3  UNL     1      24.046   5.782  50.011  1.00  0.00     0.073 C 
HETATM    3  C4  UNL     1      23.466   5.469  48.772  1.00  0.00     0.094 C 
HETATM    4  C5  UNL     1      22.231   4.676  48.876  1.00  0.00     0.005 C 
HETATM    5  C6  UNL     1      21.325   4.020  49.652  1.00  0.00     0.138 C 
HETATM    6  O2  UNL     1      22.106   4.375  50.752  1.00  0.00    -0.326 OA
HETATM    7  C7  UNL     1      23.132   3.463  51.210  1.00  0.00     0.064 A 
HETATM    8  C8  UNL     1      24.480   3.244  51.005  1.00  0.00     0.001 A 
HETATM    9  C9  UNL     1      25.205   2.144  51.710  1.00  0.00     0.112 A 
HETATM   10  C10 UNL     1      24.383   1.328  52.593  1.00  0.00     0.095 A 
HETATM   11  F1  UNL     1      24.999   0.320  53.225  1.00  0.00    -0.211 F 
HETATM   12  C11 UNL     1      23.119   1.598  52.730  1.00  0.00     0.018 A 
HETATM   13  C12 UNL     1      22.293   2.660  52.112  1.00  0.00     0.095 A 
HETATM   14  C13 UNL     1      25.521   3.880  50.166  1.00  0.00     0.058 C 
HETATM   15 CL1  UNL     1      26.684   2.827  49.371  1.00  0.00    -0.082 Cl
HETATM   16  C14 UNL     1      25.846   5.157  49.781  1.00  0.00     0.110 C 
ENDROOT
BRANCH   1  17
HETATM   17  C2  UNL     1      26.071   7.670  50.207  1.00  0.00     0.224 C 
BRANCH  17  18
HETATM   18  C1  UNL     1      26.916   7.959  49.034  1.00  0.00     0.236 C 
HETATM   19  O1  UNL     1      26.553   8.342  47.889  1.00  0.00    -0.272 OA
HETATM   20  N2  UNL     1      28.303   7.764  49.281  1.00  0.00    -0.347 N 
HETATM   21  H13 UNL     1      28.688   7.448  50.197  1.00  0.00     0.163 HD
BRANCH  20  22
HETATM   22  C15 UNL     1      29.345   7.981  48.293  1.00  0.00     0.149 C 
HETATM   23  C16 UNL     1      29.509   6.643  47.616  1.00  0.00     0.023 C 
HETATM   24  C17 UNL     1      30.235   5.583  47.973  1.00  0.00     0.116 C 
HETATM   25  N3  UNL     1      31.059   5.462  49.126  1.00  0.00    -0.254 NA
HETATM   26  C18 UNL     1      31.608   6.445  49.755  1.00  0.00     0.231 C 
HETATM   27  N4  UNL     1      31.550   7.853  49.489  1.00  0.00    -0.256 NA
HETATM   28  C19 UNL     1      30.595   8.467  48.878  1.00  0.00     0.120 C 
ENDBRANCH  20  22
ENDBRANCH  17  18
ENDBRANCH   1  17
TORSDOF 3
ENDMDL
MODEL 4
REMARK VINA RESULT:      -8.0      4.050      7.791
REMARK  3 active torsions:
REMARK  status: ('A' for Active; 'I' for Inactive)
REMARK    1  A    between atoms: C1_2  and  C2_3 
REMARK       I    between atoms: C1_2  and  N2_20 
REMARK    2  A    between atoms: C2_3  and  N1_4 
REMARK    3  A    between atoms: N2_20  and  C15_21 
ROOT
HETATM    1  N1  UNL     1      23.769   4.775  50.840  1.00  0.00    -0.379 N 
HETATM    2  C3  UNL     1      23.022   3.644  50.449  1.00  0.00     0.073 C 
HETATM    3  C4  UNL     1      23.123   3.158  49.135  1.00  0.00     0.094 C 
HETATM    4  C5  UNL     1      22.314   1.955  48.881  1.00  0.00     0.005 C 
HETATM    5  C6  UNL     1      21.476   0.990  49.349  1.00  0.00     0.138 C 
HETATM    6  O2  UNL     1      21.585   1.594  50.602  1.00  0.00    -0.326 OA
HETATM    7  C7  UNL     1      22.601   1.129  51.520  1.00  0.00     0.064 A 
HETATM    8  C8  UNL     1      23.905   1.440  51.856  1.00  0.00     0.001 A 
HETATM    9  C9  UNL     1      24.637   0.682  52.916  1.00  0.00     0.112 A 
HETATM   10  C10 UNL     1      23.884  -0.401  53.533  1.00  0.00     0.095 A 
HETATM   11  F1  UNL     1      24.519  -1.113  54.473  1.00  0.00    -0.211 F 
HETATM   12  C11 UNL     1      22.661  -0.632  53.160  1.00  0.00     0.018 A 
HETATM   13  C12 UNL     1      21.822   0.050  52.148  1.00  0.00     0.095 A 
HETATM   14  C13 UNL     1      24.890   2.438  51.383  1.00  0.00     0.058 C 
HETATM   15 CL1  UNL     1      26.563   1.918  51.216  1.00  0.00    -0.082 Cl
HETATM   16  C14 UNL     1      24.863   3.750  50.979  1.00  0.00     0.110 C 
ENDROOT
BRANCH   1  17
HETATM   17  C2  UNL     1      23.996   6.153  51.125  1.00  0.00     0.224 C 
BRANCH  17  18
HETATM   18  C1  UNL     1      24.023   7.014  49.929  1.00  0.00     0.236 C 
HETATM   19  O1  UNL     1      23.053   7.392  49.220  1.00  0.00    -0.272 OA
HETATM   20  N2  UNL     1      25.334   7.442  49.578  1.00  0.00    -0.347 N 
HETATM   21  H13 UNL     1      26.191   7.175  50.108  1.00  0.00     0.163 HD
BRANCH  20  22
HETATM   22  C15 UNL     1      25.634   8.298  48.444  1.00  0.00     0.149 C 
HETATM   23  C16 UNL     1      26.849   7.669  47.807  1.00  0.00     0.023 C 
HETATM   24  C17 UNL     1      28.142   7.808  48.101  1.00  0.00     0.116 C 
HETATM   25  N3  UNL     1      28.701   8.616  49.130  1.00  0.00    -0.254 NA
HETATM   26  C18 UNL     1      28.150   9.668  49.633  1.00  0.00     0.231 C 
HETATM   27  N4  UNL     1      26.894  10.286  49.319  1.00  0.00    -0.256 NA
HETATM   28  C19 UNL     1      25.863   9.693  48.825  1.00  0.00     0.120 C 
ENDBRANCH  20  22
ENDBRANCH  17  18
ENDBRANCH   1  17
TORSDOF 3
ENDMDL
MODEL 5
REMARK VINA RESULT:      -7.9      4.046      7.465
REMARK  3 active torsions:
REMARK  status: ('A' for Active; 'I' for Inactive)
REMARK    1  A    between atoms: C1_2  and  C2_3 
REMARK       I    between atoms: C1_2  and  N2_20 
REMARK    2  A    between atoms: C2_3  and  N1_4 
REMARK    3  A    between atoms: N2_20  and  C15_21 
ROOT
HETATM    1  N1  UNL     1      23.369   3.845  52.362  1.00  0.00    -0.379 N 
HETATM    2  C3  UNL     1      23.425   2.485  52.735  1.00  0.00     0.073 C 
HETATM    3  C4  UNL     1      22.838   1.509  51.914  1.00  0.00     0.094 C 
HETATM    4  C5  UNL     1      23.004   0.134  52.412  1.00  0.00     0.005 C 
HETATM    5  C6  UNL     1      23.520  -0.719  53.338  1.00  0.00     0.138 C 
HETATM    6  O2  UNL     1      24.088   0.396  53.955  1.00  0.00    -0.326 OA
HETATM    7  C7  UNL     1      25.433   0.789  53.595  1.00  0.00     0.064 A 
HETATM    8  C8  UNL     1      26.052   1.641  52.701  1.00  0.00     0.001 A 
HETATM    9  C9  UNL     1      27.540   1.764  52.648  1.00  0.00     0.112 A 
HETATM   10  C10 UNL     1      28.265   0.914  53.581  1.00  0.00     0.095 A 
HETATM   11  F1  UNL     1      29.602   0.986  53.545  1.00  0.00    -0.211 F 
HETATM   12  C11 UNL     1      27.609   0.137  54.390  1.00  0.00     0.018 A 
HETATM   13  C12 UNL     1      26.151  -0.062  54.556  1.00  0.00     0.095 A 
HETATM   14  C13 UNL     1      25.577   2.568  51.650  1.00  0.00     0.058 C 
HETATM   15 CL1  UNL     1      26.486   2.631  50.145  1.00  0.00    -0.082 Cl
HETATM   16  C14 UNL     1      24.530   3.443  51.492  1.00  0.00     0.110 C 
ENDROOT
BRANCH   1  17
HETATM   17  C2  UNL     1      22.871   5.181  52.373  1.00  0.00     0.224 C 
BRANCH  17  18
HETATM   18  C1  UNL     1      21.740   5.405  51.454  1.00  0.00     0.236 C 
HETATM   19  O1  UNL     1      21.506   6.417  50.740  1.00  0.00    -0.272 OA
HETATM   20  N2  UNL     1      20.831   4.312  51.409  1.00  0.00    -0.347 N 
HETATM   21  H13 UNL     1      20.947   3.439  51.967  1.00  0.00     0.163 HD
BRANCH  20  22
HETATM   22  C15 UNL     1      19.637   4.280  50.583  1.00  0.00     0.149 C 
HETATM   23  C16 UNL     1      18.626   3.522  51.409  1.00  0.00     0.023 C 
HETATM   24  C17 UNL     1      18.431   2.209  51.533  1.00  0.00     0.116 C 
HETATM   25  N3  UNL     1      19.161   1.172  50.889  1.00  0.00    -0.254 NA
HETATM   26  C18 UNL     1      19.793   1.290  49.771  1.00  0.00     0.231 C 
HETATM   27  N4  UNL     1      19.932   2.429  48.911  1.00  0.00    -0.256 NA
HETATM   28  C19 UNL     1      19.863   3.664  49.274  1.00  0.00     0.120 C 
ENDBRANCH  20  22
ENDBRANCH  17  18
ENDBRANCH   1  17
TORSDOF 3
ENDMDL
MODEL 6
REMARK VINA RESULT:      -7.7      2.761      3.690
REMARK  3 active torsions:
REMARK  status: ('A' for Active; 'I' for Inactive)
REMARK    1  A    between atoms: C1_2  and  C2_3 
REMARK       I    between atoms: C1_2  and  N2_20 
REMARK    2  A    between atoms: C2_3  and  N1_4 
REMARK    3  A    between atoms: N2_20  and  C15_21 
ROOT
HETATM    1  N1  UNL     1      21.664   0.309  51.991  1.00  0.00    -0.379 N 
HETATM    2  C3  UNL     1      21.987   0.847  50.726  1.00  0.00     0.073 C 
HETATM    3  C4  UNL     1      21.005   0.923  49.727  1.00  0.00     0.094 C 
HETATM    4  C5  UNL     1      21.476   1.536  48.475  1.00  0.00     0.005 C 
HETATM    5  C6  UNL     1      22.472   2.142  47.773  1.00  0.00     0.138 C 
HETATM    6  O2  UNL     1      23.258   2.036  48.921  1.00  0.00    -0.326 OA
HETATM    7  C7  UNL     1      23.279   3.134  49.862  1.00  0.00     0.064 A 
HETATM    8  C8  UNL     1      22.611   3.520  51.008  1.00  0.00     0.001 A 
HETATM    9  C9  UNL     1      22.955   4.789  51.718  1.00  0.00     0.112 A 
HETATM   10  C10 UNL     1      24.012   5.577  51.101  1.00  0.00     0.095 A 
HETATM   11  F1  UNL     1      24.330   6.731  51.702  1.00  0.00    -0.211 F 
HETATM   12  C11 UNL     1      24.591   5.146  50.020  1.00  0.00     0.018 A 
HETATM   13  C12 UNL     1      24.361   3.910  49.237  1.00  0.00     0.095 A 
HETATM   14  C13 UNL     1      21.508   2.947  51.812  1.00  0.00     0.058 C 
HETATM   15 CL1  UNL     1      20.297   4.055  52.446  1.00  0.00    -0.082 Cl
HETATM   16  C14 UNL     1      21.115   1.693  52.212  1.00  0.00     0.110 C 
ENDROOT
BRANCH   1  17
HETATM   17  C2  UNL     1      21.595  -0.692  53.003  1.00  0.00     0.224 C 
BRANCH  17  18
HETATM   18  C1  UNL     1      22.814  -0.798  53.825  1.00  0.00     0.236 C 
HETATM   19  O1  UNL     1      22.923  -1.232  55.003  1.00  0.00    -0.272 OA
HETATM   20  N2  UNL     1      23.982  -0.337  53.156  1.00  0.00    -0.347 N 
HETATM   21  H13 UNL     1      23.981   0.040  52.184  1.00  0.00     0.163 HD
BRANCH  20  22
HETATM   22  C15 UNL     1      25.309  -0.335  53.744  1.00  0.00     0.149 C 
HETATM   23  C16 UNL     1      25.488   1.069  54.269  1.00  0.00     0.023 C 
HETATM   24  C17 UNL     1      25.894   2.174  53.645  1.00  0.00     0.116 C 
HETATM   25  N3  UNL     1      26.267   2.294  52.278  1.00  0.00    -0.254 NA
HETATM   26  C18 UNL     1      26.719   1.335  51.542  1.00  0.00     0.231 C 
HETATM   27  N4  UNL     1      26.957  -0.041  51.872  1.00  0.00    -0.256 NA
HETATM   28  C19 UNL     1      26.356  -0.712  52.793  1.00  0.00     0.120 C 
ENDBRANCH  20  22
ENDBRANCH  17  18
ENDBRANCH   1  17
TORSDOF 3
ENDMDL
MODEL 7
REMARK VINA RESULT:      -7.7      3.859      7.352
REMARK  3 active torsions:
REMARK  status: ('A' for Active; 'I' for Inactive)
REMARK    1  A    between atoms: C1_2  and  C2_3 
REMARK       I    between atoms: C1_2  and  N2_20 
REMARK    2  A    between atoms: C2_3  and  N1_4 
REMARK    3  A    between atoms: N2_20  and  C15_21 
ROOT
HETATM    1  N1  UNL     1      22.741   2.435  49.545  1.00  0.00    -0.379 N 
HETATM    2  C3  UNL     1      23.502   2.287  50.724  1.00  0.00     0.073 C 
HETATM    3  C4  UNL     1      23.834   3.415  51.490  1.00  0.00     0.094 C 
HETATM    4  C5  UNL     1      24.599   3.104  52.708  1.00  0.00     0.005 C 
HETATM    5  C6  UNL     1      25.156   2.176  53.533  1.00  0.00     0.138 C 
HETATM    6  O2  UNL     1      24.657   1.202  52.668  1.00  0.00    -0.326 OA
HETATM    7  C7  UNL     1      23.355   0.628  52.933  1.00  0.00     0.064 A 
HETATM    8  C8  UNL     1      22.040   0.852  52.573  1.00  0.00     0.001 A 
HETATM    9  C9  UNL     1      20.936  -0.015  53.088  1.00  0.00     0.112 A 
HETATM   10  C10 UNL     1      21.353  -1.074  53.996  1.00  0.00     0.095 A 
HETATM   11  F1  UNL     1      20.384  -1.855  54.491  1.00  0.00    -0.211 F 
HETATM   12  C11 UNL     1      22.611  -1.217  54.286  1.00  0.00     0.018 A 
HETATM   13  C12 UNL     1      23.793  -0.449  53.834  1.00  0.00     0.095 A 
HETATM   14  C13 UNL     1      21.350   1.843  51.719  1.00  0.00     0.058 C 
HETATM   15 CL1  UNL     1      19.810   2.479  52.287  1.00  0.00    -0.082 Cl
HETATM   16  C14 UNL     1      21.603   2.479  50.529  1.00  0.00     0.110 C 
ENDROOT
BRANCH   1  17
HETATM   17  C2  UNL     1      22.520   2.549  48.141  1.00  0.00     0.224 C 
BRANCH  17  18
HETATM   18  C1  UNL     1      22.429   3.940  47.661  1.00  0.00     0.236 C 
HETATM   19  O1  UNL     1      21.771   4.382  46.681  1.00  0.00    -0.272 OA
HETATM   20  N2  UNL     1      23.198   4.851  48.436  1.00  0.00    -0.347 N 
HETATM   21  H13 UNL     1      23.771   4.570  49.260  1.00  0.00     0.163 HD
BRANCH  20  22
HETATM   22  C15 UNL     1      23.277   6.277  48.173  1.00  0.00     0.149 C 
HETATM   23  C16 UNL     1      24.751   6.592  48.233  1.00  0.00     0.023 C 
HETATM   24  C17 UNL     1      25.530   6.863  49.280  1.00  0.00     0.116 C 
HETATM   25  N3  UNL     1      25.135   6.920  50.646  1.00  0.00    -0.254 NA
HETATM   26  C18 UNL     1      23.942   7.179  51.066  1.00  0.00     0.231 C 
HETATM   27  N4  UNL     1      22.749   7.464  50.323  1.00  0.00    -0.256 NA
HETATM   28  C19 UNL     1      22.497   7.077  49.120  1.00  0.00     0.120 C 
ENDBRANCH  20  22
ENDBRANCH  17  18
ENDBRANCH   1  17
TORSDOF 3
ENDMDL
MODEL 8
REMARK VINA RESULT:      -7.6      3.066      7.273
REMARK  3 active torsions:
REMARK  status: ('A' for Active; 'I' for Inactive)
REMARK    1  A    between atoms: C1_2  and  C2_3 
REMARK       I    between atoms: C1_2  and  N2_20 
REMARK    2  A    between atoms: C2_3  and  N1_4 
REMARK    3  A    between atoms: N2_20  and  C15_21 
ROOT
HETATM    1  N1  UNL     1      26.374   2.926  50.596  1.00  0.00    -0.379 N 
HETATM    2  C3  UNL     1      26.521   1.955  51.609  1.00  0.00     0.073 C 
HETATM    3  C4  UNL     1      27.329   2.223  52.725  1.00  0.00     0.094 C 
HETATM    4  C5  UNL     1      27.361   1.133  53.713  1.00  0.00     0.005 C 
HETATM    5  C6  UNL     1      26.926  -0.091  54.117  1.00  0.00     0.138 C 
HETATM    6  O2  UNL     1      26.128  -0.114  52.972  1.00  0.00    -0.326 OA
HETATM    7  C7  UNL     1      24.769   0.375  53.053  1.00  0.00     0.064 A 
HETATM    8  C8  UNL     1      24.088   1.559  52.849  1.00  0.00     0.001 A 
HETATM    9  C9  UNL     1      22.609   1.649  53.047  1.00  0.00     0.112 A 
HETATM   10  C10 UNL     1      21.967   0.418  53.484  1.00  0.00     0.095 A 
HETATM   11  F1  UNL     1      20.645   0.471  53.690  1.00  0.00    -0.211 F 
HETATM   12  C11 UNL     1      22.680  -0.655  53.656  1.00  0.00     0.018 A 
HETATM   13  C12 UNL     1      24.132  -0.881  53.476  1.00  0.00     0.095 A 
HETATM   14  C13 UNL     1      24.480   2.929  52.447  1.00  0.00     0.058 C 
HETATM   15 CL1  UNL     1      23.697   4.276  53.264  1.00  0.00    -0.082 Cl
HETATM   16  C14 UNL     1      25.372   3.491  51.567  1.00  0.00     0.110 C 
ENDROOT
BRANCH   1  17
HETATM   17  C2  UNL     1      26.634   3.553  49.342  1.00  0.00     0.224 C 
BRANCH  17  18
HETATM   18  C1  UNL     1      25.973   4.860  49.178  1.00  0.00     0.236 C 
HETATM   19  O1  UNL     1      26.483   6.008  49.285  1.00  0.00    -0.272 OA
HETATM   20  N2  UNL     1      24.591   4.753  48.861  1.00  0.00    -0.347 N 
HETATM   21  H13 UNL     1      24.091   3.844  48.757  1.00  0.00     0.163 HD
BRANCH  20  22
HETATM   22  C15 UNL     1      23.714   5.890  48.647  1.00  0.00     0.149 C 
HETATM   23  C16 UNL     1      22.982   6.055  49.957  1.00  0.00     0.023 C 
HETATM   24  C17 UNL     1      21.886   5.447  50.410  1.00  0.00     0.116 C 
HETATM   25  N3  UNL     1      21.118   4.458  49.737  1.00  0.00    -0.254 NA
HETATM   26  C18 UNL     1      21.051   4.310  48.456  1.00  0.00     0.231 C 
HETATM   27  N4  UNL     1      21.693   5.055  47.412  1.00  0.00    -0.256 NA
HETATM   28  C19 UNL     1      22.801   5.703  47.518  1.00  0.00     0.120 C 
ENDBRANCH  20  22
ENDBRANCH  17  18
ENDBRANCH   1  17
TORSDOF 3
ENDMDL
MODEL 9
REMARK VINA RESULT:      -7.4      4.483      7.029
REMARK  3 active torsions:
REMARK  status: ('A' for Active; 'I' for Inactive)
REMARK    1  A    between atoms: C1_2  and  C2_3 
REMARK       I    between atoms: C1_2  and  N2_20 
REMARK    2  A    between atoms: C2_3  and  N1_4 
REMARK    3  A    between atoms: N2_20  and  C15_21 
ROOT
HETATM    1  N1  UNL     1      25.890   6.196  49.056  1.00  0.00    -0.379 N 
HETATM    2  C3  UNL     1      25.168   5.726  50.175  1.00  0.00     0.073 C 
HETATM    3  C4  UNL     1      24.360   6.610  50.908  1.00  0.00     0.094 C 
HETATM    4  C5  UNL     1      23.643   5.974  52.024  1.00  0.00     0.005 C 
HETATM    5  C6  UNL     1      23.333   4.849  52.724  1.00  0.00     0.138 C 
HETATM    6  O2  UNL     1      24.129   4.145  51.821  1.00  0.00    -0.326 OA
HETATM    7  C7  UNL     1      23.513   3.562  50.648  1.00  0.00     0.064 A 
HETATM    8  C8  UNL     1      23.270   3.909  49.334  1.00  0.00     0.001 A 
HETATM    9  C9  UNL     1      22.574   2.973  48.399  1.00  0.00     0.112 A 
HETATM   10  C10 UNL     1      22.165   1.704  48.984  1.00  0.00     0.095 A 
HETATM   11  F1  UNL     1      21.521   0.851  48.177  1.00  0.00    -0.211 F 
HETATM   12  C11 UNL     1      22.430   1.454  50.231  1.00  0.00     0.018 A 
HETATM   13  C12 UNL     1      23.123   2.277  51.249  1.00  0.00     0.095 A 
HETATM   14  C13 UNL     1      23.539   5.107  48.508  1.00  0.00     0.058 C 
HETATM   15 CL1  UNL     1      22.288   5.621  47.383  1.00  0.00    -0.082 Cl
HETATM   16  C14 UNL     1      24.557   6.019  48.379  1.00  0.00     0.110 C 
ENDROOT
BRANCH   1  17
HETATM   17  C2  UNL     1      27.031   6.672  48.347  1.00  0.00     0.224 C 
BRANCH  17  18
HETATM   18  C1  UNL     1      28.221   5.813  48.482  1.00  0.00     0.236 C 
HETATM   19  O1  UNL     1      28.272   4.554  48.507  1.00  0.00    -0.272 OA
HETATM   20  N2  UNL     1      29.433   6.549  48.594  1.00  0.00    -0.347 N 
HETATM   21  H13 UNL     1      29.480   7.590  48.584  1.00  0.00     0.163 HD
BRANCH  20  22
HETATM   22  C15 UNL     1      30.744   5.941  48.736  1.00  0.00     0.149 C 
HETATM   23  C16 UNL     1      31.537   6.936  49.548  1.00  0.00     0.023 C 
HETATM   24  C17 UNL     1      32.211   8.018  49.159  1.00  0.00     0.116 C 
HETATM   25  N3  UNL     1      32.347   8.508  47.830  1.00  0.00    -0.254 NA
HETATM   26  C18 UNL     1      32.257   7.793  46.760  1.00  0.00     0.231 C 
HETATM   27  N4  UNL     1      32.009   6.388  46.613  1.00  0.00    -0.256 NA
HETATM   28  C19 UNL     1      31.376   5.641  47.450  1.00  0.00     0.120 C 
ENDBRANCH  20  22
ENDBRANCH  17  18
ENDBRANCH   1  17
TORSDOF 3
ENDMDL
