MODEL 1
REMARK VINA RESULT:      -9.3      0.000      0.000
REMARK  1 active torsions:
REMARK  status: ('A' for Active; 'I' for Inactive)
REMARK    1  A    between atoms: C7_7  and  N1_8 
ROOT
HETATM    1  C1  UNL     1      29.364   1.777  54.506  1.00  0.00     0.049 A 
HETATM    2  C2  UNL     1      28.378   0.951  54.390  1.00  0.00    -0.053 A 
HETATM    3  C3  UNL     1      28.522   2.168  53.478  1.00  0.00     0.042 A 
HETATM    4  C4  UNL     1      27.536   2.152  52.592  1.00  0.00    -0.018 C 
HETATM    5  C5  UNL     1      26.734   2.577  51.497  1.00  0.00    -0.005 C 
HETATM    6  C6  UNL     1      25.823   2.739  50.527  1.00  0.00     0.012 C 
HETATM    7  C7  UNL     1      25.740   3.833  49.520  1.00  0.00     0.263 C 
HETATM    8  C8  UNL     1      24.247   4.162  49.442  1.00  0.00     0.009 C 
HETATM    9  C9  UNL     1      23.326   3.219  49.767  1.00  0.00    -0.019 C 
HETATM   10  C10 UNL     1      22.020   2.552  50.012  1.00  0.00     0.046 C 
HETATM   11  C11 UNL     1      21.819   1.386  49.058  1.00  0.00     0.020 C 
HETATM   12  C12 UNL     1      21.883   2.059  51.431  1.00  0.00     0.122 C 
HETATM   13  N2  UNL     1      22.844   1.172  51.542  1.00  0.00    -0.166 NA
HETATM   14  N3  UNL     1      23.155   0.432  52.621  1.00  0.00    -0.156 NA
HETATM   15  C13 UNL     1      22.539  -0.123  53.553  1.00  0.00     0.054 C 
HETATM   16  C14 UNL     1      21.375  -0.541  54.356  1.00  0.00     0.072 C 
HETATM   17  C15 UNL     1      23.811  -0.597  54.100  1.00  0.00     0.048 C 
HETATM   18  C16 UNL     1      25.112  -0.587  53.883  1.00  0.00     0.118 C 
HETATM   19  N4  UNL     1      26.429  -0.935  54.231  1.00  0.00    -0.273 NA
HETATM   20  C17 UNL     1      27.361  -0.077  54.313  1.00  0.00     0.119 C 
ENDROOT
BRANCH   7  21
HETATM   21  N1  UNL     1      26.436   5.003  49.937  1.00  0.00     0.089 N 
HETATM   22  H8  UNL     1      25.899   5.610  50.585  1.00  0.00     0.314 HD
HETATM   23  H9  UNL     1      26.691   5.529  49.042  1.00  0.00     0.314 HD
ENDBRANCH   7  21
TORSDOF 1
ENDMDL
MODEL 2
REMARK VINA RESULT:      -8.0      2.109      5.259
REMARK  1 active torsions:
REMARK  status: ('A' for Active; 'I' for Inactive)
REMARK    1  A    between atoms: C7_7  and  N1_8 
ROOT
HETATM    1  C1  UNL     1      27.345  -0.149  53.001  1.00  0.00     0.049 A 
HETATM    2  C2  UNL     1      26.789   0.805  52.331  1.00  0.00    -0.053 A 
HETATM    3  C3  UNL     1      25.973  -0.163  53.186  1.00  0.00     0.042 A 
HETATM    4  C4  UNL     1      24.698   0.199  53.135  1.00  0.00    -0.018 C 
HETATM    5  C5  UNL     1      23.301   0.164  53.399  1.00  0.00    -0.005 C 
HETATM    6  C6  UNL     1      21.978   0.366  53.475  1.00  0.00     0.012 C 
HETATM    7  C7  UNL     1      20.971  -0.430  54.230  1.00  0.00     0.263 C 
HETATM    8  C8  UNL     1      19.776  -0.528  53.278  1.00  0.00     0.009 C 
HETATM    9  C9  UNL     1      19.586   0.424  52.329  1.00  0.00    -0.019 C 
HETATM   10  C10 UNL     1      18.997   1.180  51.192  1.00  0.00     0.046 C 
HETATM   11  C11 UNL     1      18.538   2.559  51.638  1.00  0.00     0.020 C 
HETATM   12  C12 UNL     1      19.960   1.329  50.040  1.00  0.00     0.122 C 
HETATM   13  N2  UNL     1      20.947   2.025  50.552  1.00  0.00    -0.166 NA
HETATM   14  N3  UNL     1      22.070   2.433  49.934  1.00  0.00    -0.156 NA
HETATM   15  C13 UNL     1      22.390   2.824  48.793  1.00  0.00     0.054 C 
HETATM   16  C14 UNL     1      22.202   3.187  47.377  1.00  0.00     0.072 C 
HETATM   17  C15 UNL     1      23.774   2.976  49.244  1.00  0.00     0.048 C 
HETATM   18  C16 UNL     1      24.551   2.844  50.302  1.00  0.00     0.118 C 
HETATM   19  N4  UNL     1      25.803   2.918  50.936  1.00  0.00    -0.273 NA
HETATM   20  C17 UNL     1      26.290   1.948  51.595  1.00  0.00     0.119 C 
ENDROOT
BRANCH   7  21
HETATM   21  N1  UNL     1      21.428  -1.749  54.512  1.00  0.00     0.089 N 
HETATM   22  H8  UNL     1      21.904  -1.848  55.429  1.00  0.00     0.314 HD
HETATM   23  H9  UNL     1      22.084  -2.012  53.710  1.00  0.00     0.314 HD
ENDBRANCH   7  21
TORSDOF 1
ENDMDL
MODEL 3
REMARK VINA RESULT:      -7.9      2.203      7.421
REMARK  1 active torsions:
REMARK  status: ('A' for Active; 'I' for Inactive)
REMARK    1  A    between atoms: C7_7  and  N1_8 
ROOT
HETATM    1  C1  UNL     1      17.874   1.827  49.832  1.00  0.00     0.049 A 
HETATM    2  C2  UNL     1      19.068   1.994  49.370  1.00  0.00    -0.053 A 
HETATM    3  C3  UNL     1      18.801   1.201  50.649  1.00  0.00     0.042 A 
HETATM    4  C4  UNL     1      19.954   0.723  51.098  1.00  0.00    -0.018 C 
HETATM    5  C5  UNL     1      20.855   0.024  51.947  1.00  0.00    -0.005 C 
HETATM    6  C6  UNL     1      21.905  -0.543  52.557  1.00  0.00     0.012 C 
HETATM    7  C7  UNL     1      21.912  -1.355  53.806  1.00  0.00     0.263 C 
HETATM    8  C8  UNL     1      23.151  -0.871  54.565  1.00  0.00     0.009 C 
HETATM    9  C9  UNL     1      24.192  -0.327  53.885  1.00  0.00    -0.019 C 
HETATM   10  C10 UNL     1      25.506   0.303  53.593  1.00  0.00     0.046 C 
HETATM   11  C11 UNL     1      26.375  -0.617  52.751  1.00  0.00     0.020 C 
HETATM   12  C12 UNL     1      25.365   1.629  52.889  1.00  0.00     0.122 C 
HETATM   13  N2  UNL     1      24.780   1.315  51.757  1.00  0.00    -0.166 NA
HETATM   14  N3  UNL     1      24.427   2.145  50.759  1.00  0.00    -0.156 NA
HETATM   15  C13 UNL     1      24.881   3.182  50.233  1.00  0.00     0.054 C 
HETATM   16  C14 UNL     1      25.814   4.303  50.021  1.00  0.00     0.072 C 
HETATM   17  C15 UNL     1      23.745   3.199  49.310  1.00  0.00     0.048 C 
HETATM   18  C16 UNL     1      22.651   2.539  48.984  1.00  0.00     0.118 C 
HETATM   19  N4  UNL     1      21.494   2.367  48.205  1.00  0.00    -0.273 NA
HETATM   20  C17 UNL     1      20.347   2.190  48.720  1.00  0.00     0.119 C 
ENDROOT
BRANCH   7  21
HETATM   21  N1  UNL     1      20.766  -1.109  54.615  1.00  0.00     0.089 N 
HETATM   22  H8  UNL     1      20.298  -0.202  54.427  1.00  0.00     0.314 HD
HETATM   23  H9  UNL     1      21.102  -1.164  55.628  1.00  0.00     0.314 HD
ENDBRANCH   7  21
TORSDOF 1
ENDMDL
MODEL 4
REMARK VINA RESULT:      -7.9      2.132      5.414
REMARK  1 active torsions:
REMARK  status: ('A' for Active; 'I' for Inactive)
REMARK    1  A    between atoms: C7_7  and  N1_8 
ROOT
HETATM    1  C1  UNL     1      27.161   4.548  48.927  1.00  0.00     0.049 A 
HETATM    2  C2  UNL     1      25.912   4.771  49.167  1.00  0.00    -0.053 A 
HETATM    3  C3  UNL     1      26.678   3.643  49.857  1.00  0.00     0.042 A 
HETATM    4  C4  UNL     1      25.864   3.043  50.716  1.00  0.00    -0.018 C 
HETATM    5  C5  UNL     1      25.435   2.118  51.707  1.00  0.00    -0.005 C 
HETATM    6  C6  UNL     1      24.777   1.388  52.618  1.00  0.00     0.012 C 
HETATM    7  C7  UNL     1      25.291   0.242  53.420  1.00  0.00     0.263 C 
HETATM    8  C8  UNL     1      24.140  -0.769  53.414  1.00  0.00     0.009 C 
HETATM    9  C9  UNL     1      22.863  -0.342  53.242  1.00  0.00    -0.019 C 
HETATM   10  C10 UNL     1      21.384  -0.351  53.093  1.00  0.00     0.046 C 
HETATM   11  C11 UNL     1      20.720   0.408  54.231  1.00  0.00     0.020 C 
HETATM   12  C12 UNL     1      20.934   0.237  51.779  1.00  0.00     0.122 C 
HETATM   13  N2  UNL     1      21.350   1.479  51.839  1.00  0.00    -0.166 NA
HETATM   14  N3  UNL     1      21.200   2.440  50.910  1.00  0.00    -0.156 NA
HETATM   15  C13 UNL     1      20.333   2.774  50.077  1.00  0.00     0.054 C 
HETATM   16  C14 UNL     1      19.058   2.708  49.339  1.00  0.00     0.072 C 
HETATM   17  C15 UNL     1      21.189   3.879  49.643  1.00  0.00     0.048 C 
HETATM   18  C16 UNL     1      22.351   4.457  49.877  1.00  0.00     0.118 C 
HETATM   19  N4  UNL     1      23.319   5.443  49.617  1.00  0.00    -0.273 NA
HETATM   20  C17 UNL     1      24.538   5.160  49.403  1.00  0.00     0.119 C 
ENDROOT
BRANCH   7  21
HETATM   21  N1  UNL     1      26.428  -0.369  52.819  1.00  0.00     0.089 N 
HETATM   22  H8  UNL     1      26.343  -0.513  51.794  1.00  0.00     0.314 HD
HETATM   23  H9  UNL     1      26.565  -1.300  53.326  1.00  0.00     0.314 HD
ENDBRANCH   7  21
TORSDOF 1
ENDMDL
MODEL 5
REMARK VINA RESULT:      -7.3      2.958      4.989
REMARK  1 active torsions:
REMARK  status: ('A' for Active; 'I' for Inactive)
REMARK    1  A    between atoms: C7_7  and  N1_8 
ROOT
HETATM    1  C1  UNL     1      22.409  -1.196  55.037  1.00  0.00     0.049 A 
HETATM    2  C2  UNL     1      21.524  -0.802  54.183  1.00  0.00    -0.053 A 
HETATM    3  C3  UNL     1      22.975  -0.329  54.117  1.00  0.00     0.042 A 
HETATM    4  C4  UNL     1      23.117   0.454  53.056  1.00  0.00    -0.018 C 
HETATM    5  C5  UNL     1      23.763   1.301  52.114  1.00  0.00    -0.005 C 
HETATM    6  C6  UNL     1      24.108   2.109  51.102  1.00  0.00     0.012 C 
HETATM    7  C7  UNL     1      25.443   2.705  50.818  1.00  0.00     0.263 C 
HETATM    8  C8  UNL     1      25.132   4.141  50.387  1.00  0.00     0.009 C 
HETATM    9  C9  UNL     1      23.923   4.440  49.847  1.00  0.00    -0.019 C 
HETATM   10  C10 UNL     1      22.802   5.208  49.244  1.00  0.00     0.046 C 
HETATM   11  C11 UNL     1      22.500   4.714  47.838  1.00  0.00     0.020 C 
HETATM   12  C12 UNL     1      21.544   5.137  50.073  1.00  0.00     0.122 C 
HETATM   13  N2  UNL     1      21.241   3.861  50.064  1.00  0.00    -0.166 NA
HETATM   14  N3  UNL     1      20.196   3.261  50.662  1.00  0.00    -0.156 NA
HETATM   15  C13 UNL     1      19.004   3.539  50.904  1.00  0.00     0.054 C 
HETATM   16  C14 UNL     1      17.771   4.346  50.916  1.00  0.00     0.072 C 
HETATM   17  C15 UNL     1      18.843   2.238  51.555  1.00  0.00     0.048 C 
HETATM   18  C16 UNL     1      19.492   1.129  51.854  1.00  0.00     0.118 C 
HETATM   19  N4  UNL     1      19.556  -0.153  52.426  1.00  0.00    -0.273 NA
HETATM   20  C17 UNL     1      20.463  -0.486  53.249  1.00  0.00     0.119 C 
ENDROOT
BRANCH   7  21
HETATM   21  N1  UNL     1      26.269   2.753  51.977  1.00  0.00     0.089 N 
HETATM   22  H8  UNL     1      26.599   3.705  52.225  1.00  0.00     0.314 HD
HETATM   23  H9  UNL     1      27.092   2.102  51.780  1.00  0.00     0.314 HD
ENDBRANCH   7  21
TORSDOF 1
ENDMDL
MODEL 6
REMARK VINA RESULT:      -7.1      1.850      2.658
REMARK  1 active torsions:
REMARK  status: ('A' for Active; 'I' for Inactive)
REMARK    1  A    between atoms: C7_7  and  N1_8 
ROOT
HETATM    1  C1  UNL     1      26.373   0.459  54.733  1.00  0.00     0.049 A 
HETATM    2  C2  UNL     1      25.290   0.039  54.169  1.00  0.00    -0.053 A 
HETATM    3  C3  UNL     1      26.098   1.204  53.599  1.00  0.00     0.042 A 
HETATM    4  C4  UNL     1      25.523   1.606  52.473  1.00  0.00    -0.018 C 
HETATM    5  C5  UNL     1      25.316   2.374  51.295  1.00  0.00    -0.005 C 
HETATM    6  C6  UNL     1      24.890   2.923  50.149  1.00  0.00     0.012 C 
HETATM    7  C7  UNL     1      25.492   4.059  49.397  1.00  0.00     0.263 C 
HETATM    8  C8  UNL     1      24.289   4.892  48.943  1.00  0.00     0.009 C 
HETATM    9  C9  UNL     1      23.076   4.302  48.787  1.00  0.00    -0.019 C 
HETATM   10  C10 UNL     1      21.631   4.112  48.497  1.00  0.00     0.046 C 
HETATM   11  C11 UNL     1      21.434   3.173  47.318  1.00  0.00     0.020 C 
HETATM   12  C12 UNL     1      20.870   3.578  49.685  1.00  0.00     0.122 C 
HETATM   13  N2  UNL     1      21.421   2.408  49.902  1.00  0.00    -0.166 NA
HETATM   14  N3  UNL     1      21.103   1.517  50.859  1.00  0.00    -0.156 NA
HETATM   15  C13 UNL     1      20.066   1.133  51.437  1.00  0.00     0.054 C 
HETATM   16  C14 UNL     1      18.629   1.078  51.758  1.00  0.00     0.072 C 
HETATM   17  C15 UNL     1      20.867   0.202  52.234  1.00  0.00     0.048 C 
HETATM   18  C16 UNL     1      22.102  -0.221  52.422  1.00  0.00     0.118 C 
HETATM   19  N4  UNL     1      23.048  -1.033  53.071  1.00  0.00    -0.273 NA
HETATM   20  C17 UNL     1      24.105  -0.561  53.594  1.00  0.00     0.119 C 
ENDROOT
BRANCH   7  21
HETATM   21  N1  UNL     1      26.316   4.875  50.222  1.00  0.00     0.089 N 
HETATM   22  H8  UNL     1      25.930   5.820  50.409  1.00  0.00     0.314 HD
HETATM   23  H9  UNL     1      27.260   4.940  49.725  1.00  0.00     0.314 HD
ENDBRANCH   7  21
TORSDOF 1
ENDMDL
MODEL 7
REMARK VINA RESULT:      -7.0      1.611      5.231
REMARK  1 active torsions:
REMARK  status: ('A' for Active; 'I' for Inactive)
REMARK    1  A    between atoms: C7_7  and  N1_8 
ROOT
HETATM    1  C1  UNL     1      24.877   5.566  48.780  1.00  0.00     0.049 A 
HETATM    2  C2  UNL     1      25.476   4.583  49.366  1.00  0.00    -0.053 A 
HETATM    3  C3  UNL     1      23.956   4.625  49.210  1.00  0.00     0.042 A 
HETATM    4  C4  UNL     1      23.448   3.507  49.712  1.00  0.00    -0.018 C 
HETATM    5  C5  UNL     1      22.462   2.556  50.090  1.00  0.00    -0.005 C 
HETATM    6  C6  UNL     1      21.762   1.506  50.542  1.00  0.00     0.012 C 
HETATM    7  C7  UNL     1      20.286   1.307  50.512  1.00  0.00     0.263 C 
HETATM    8  C8  UNL     1      19.960   0.691  51.876  1.00  0.00     0.009 C 
HETATM    9  C9  UNL     1      20.910  -0.006  52.550  1.00  0.00    -0.019 C 
HETATM   10  C10 UNL     1      21.585  -0.807  53.605  1.00  0.00     0.046 C 
HETATM   11  C11 UNL     1      21.983  -2.176  53.076  1.00  0.00     0.020 C 
HETATM   12  C12 UNL     1      22.807  -0.117  54.157  1.00  0.00     0.122 C 
HETATM   13  N2  UNL     1      23.603  -0.022  53.118  1.00  0.00    -0.166 NA
HETATM   14  N3  UNL     1      24.833   0.520  53.075  1.00  0.00    -0.156 NA
HETATM   15  C13 UNL     1      25.821   0.599  53.834  1.00  0.00     0.054 C 
HETATM   16  C14 UNL     1      26.617   0.390  55.056  1.00  0.00     0.072 C 
HETATM   17  C15 UNL     1      26.533   1.366  52.811  1.00  0.00     0.048 C 
HETATM   18  C16 UNL     1      26.410   1.851  51.590  1.00  0.00     0.118 C 
HETATM   19  N4  UNL     1      26.906   2.562  50.484  1.00  0.00    -0.273 NA
HETATM   20  C17 UNL     1      26.261   3.511  49.940  1.00  0.00     0.119 C 
ENDROOT
BRANCH   7  21
HETATM   21  N1  UNL     1      19.578   2.537  50.394  1.00  0.00     0.089 N 
HETATM   22  H8  UNL     1      18.902   2.566  49.608  1.00  0.00     0.314 HD
HETATM   23  H9  UNL     1      20.322   3.296  50.288  1.00  0.00     0.314 HD
ENDBRANCH   7  21
TORSDOF 1
ENDMDL
MODEL 8
REMARK VINA RESULT:      -6.6      3.055      6.190
REMARK  1 active torsions:
REMARK  status: ('A' for Active; 'I' for Inactive)
REMARK    1  A    between atoms: C7_7  and  N1_8 
ROOT
HETATM    1  C1  UNL     1      24.519   7.979  50.224  1.00  0.00     0.049 A 
HETATM    2  C2  UNL     1      23.313   7.521  50.276  1.00  0.00    -0.053 A 
HETATM    3  C3  UNL     1      24.498   6.741  50.843  1.00  0.00     0.042 A 
HETATM    4  C4  UNL     1      24.043   5.625  51.398  1.00  0.00    -0.018 C 
HETATM    5  C5  UNL     1      24.077   4.379  52.082  1.00  0.00    -0.005 C 
HETATM    6  C6  UNL     1      23.819   3.211  52.688  1.00  0.00     0.012 C 
HETATM    7  C7  UNL     1      24.788   2.269  53.313  1.00  0.00     0.263 C 
HETATM    8  C8  UNL     1      24.294   0.883  52.891  1.00  0.00     0.009 C 
HETATM    9  C9  UNL     1      22.985   0.694  52.584  1.00  0.00    -0.019 C 
HETATM   10  C10 UNL     1      21.717   0.037  52.172  1.00  0.00     0.046 C 
HETATM   11  C11 UNL     1      20.702   0.061  53.304  1.00  0.00     0.020 C 
HETATM   12  C12 UNL     1      21.108   0.676  50.949  1.00  0.00     0.122 C 
HETATM   13  N2  UNL     1      20.848   1.901  51.340  1.00  0.00    -0.166 NA
HETATM   14  N3  UNL     1      20.292   2.892  50.619  1.00  0.00    -0.156 NA
HETATM   15  C13 UNL     1      19.421   2.993  49.731  1.00  0.00     0.054 C 
HETATM   16  C14 UNL     1      18.391   2.542  48.778  1.00  0.00     0.072 C 
HETATM   17  C15 UNL     1      19.638   4.440  49.697  1.00  0.00     0.048 C 
HETATM   18  C16 UNL     1      20.345   5.406  50.251  1.00  0.00     0.118 C 
HETATM   19  N4  UNL     1      20.707   6.758  50.380  1.00  0.00    -0.273 NA
HETATM   20  C17 UNL     1      21.916   7.145  50.336  1.00  0.00     0.119 C 
ENDROOT
BRANCH   7  21
HETATM   21  N1  UNL     1      26.110   2.445  52.814  1.00  0.00     0.089 N 
HETATM   22  H8  UNL     1      26.311   1.917  51.944  1.00  0.00     0.314 HD
HETATM   23  H9  UNL     1      26.766   2.147  53.603  1.00  0.00     0.314 HD
ENDBRANCH   7  21
TORSDOF 1
ENDMDL
MODEL 9
REMARK VINA RESULT:      -6.6      2.632      5.984
REMARK  1 active torsions:
REMARK  status: ('A' for Active; 'I' for Inactive)
REMARK    1  A    between atoms: C7_7  and  N1_8 
ROOT
HETATM    1  C1  UNL     1      28.088   5.907  48.131  1.00  0.00     0.049 A 
HETATM    2  C2  UNL     1      26.834   6.200  48.231  1.00  0.00    -0.053 A 
HETATM    3  C3  UNL     1      27.447   5.014  48.973  1.00  0.00     0.042 A 
HETATM    4  C4  UNL     1      26.505   4.447  49.715  1.00  0.00    -0.018 C 
HETATM    5  C5  UNL     1      25.911   3.529  50.624  1.00  0.00    -0.005 C 
HETATM    6  C6  UNL     1      25.110   2.821  51.432  1.00  0.00     0.012 C 
HETATM    7  C7  UNL     1      25.459   1.630  52.256  1.00  0.00     0.263 C 
HETATM    8  C8  UNL     1      24.262   0.691  52.089  1.00  0.00     0.009 C 
HETATM    9  C9  UNL     1      23.040   1.197  51.782  1.00  0.00    -0.019 C 
HETATM   10  C10 UNL     1      21.591   1.280  51.462  1.00  0.00     0.046 C 
HETATM   11  C11 UNL     1      20.842   2.053  52.536  1.00  0.00     0.020 C 
HETATM   12  C12 UNL     1      21.332   1.920  50.122  1.00  0.00     0.122 C 
HETATM   13  N2  UNL     1      21.809   3.134  50.264  1.00  0.00    -0.166 NA
HETATM   14  N3  UNL     1      21.825   4.121  49.350  1.00  0.00    -0.156 NA
HETATM   15  C13 UNL     1      21.081   4.524  48.432  1.00  0.00     0.054 C 
HETATM   16  C14 UNL     1      19.901   4.549  47.550  1.00  0.00     0.072 C 
HETATM   17  C15 UNL     1      22.044   5.584  48.130  1.00  0.00     0.048 C 
HETATM   18  C16 UNL     1      23.202   6.086  48.513  1.00  0.00     0.118 C 
HETATM   19  N4  UNL     1      24.248   7.018  48.394  1.00  0.00    -0.273 NA
HETATM   20  C17 UNL     1      25.466   6.666  48.316  1.00  0.00     0.119 C 
ENDROOT
BRANCH   7  21
HETATM   21  N1  UNL     1      26.622   0.964  51.775  1.00  0.00     0.089 N 
HETATM   22  H8  UNL     1      27.516   1.401  52.070  1.00  0.00     0.314 HD
HETATM   23  H9  UNL     1      26.536   0.952  50.710  1.00  0.00     0.314 HD
ENDBRANCH   7  21
TORSDOF 1
ENDMDL
