MODEL 1
REMARK VINA RESULT:      -8.4      0.000      0.000
REMARK  7 active torsions:
REMARK  status: ('A' for Active; 'I' for Inactive)
REMARK    1  A    between atoms: C6_8  and  N3_9 
REMARK    2  A    between atoms: N3_9  and  C7_10 
REMARK    3  A    between atoms: N4_20  and  C15_21 
REMARK    4  A    between atoms: C15_21  and  N5_23 
REMARK    5  A    between atoms: N5_23  and  C16_24 
REMARK    6  A    between atoms: C16_24  and  C17_25 
REMARK    7  A    between atoms: C17_25  and  N6_26 
ROOT
HETATM    1  C1  UNL     1      19.003   0.171  51.565  1.00  0.00     0.037 C 
HETATM    2  C2  UNL     1      20.019   0.934  52.375  1.00  0.00     0.112 A 
HETATM    3  C3  UNL     1      20.394   0.131  53.556  1.00  0.00     0.031 A 
HETATM    4  C4  UNL     1      21.609  -0.236  53.900  1.00  0.00     0.071 A 
HETATM    5  N1  UNL     1      21.701  -0.967  55.021  1.00  0.00    -0.241 NA
HETATM    6  C5  UNL     1      22.933  -1.383  55.438  1.00  0.00     0.236 A 
HETATM    7  N2  UNL     1      23.977  -1.026  54.687  1.00  0.00    -0.223 NA
HETATM    8  C6  UNL     1      23.910  -0.302  53.572  1.00  0.00     0.143 A 
HETATM    9  C13 UNL     1      22.682   0.126  53.135  1.00  0.00     0.054 A 
HETATM   10  C14 UNL     1      22.430   0.838  52.074  1.00  0.00     0.112 A 
HETATM   11  N4  UNL     1      21.181   1.301  51.584  1.00  0.00    -0.325 N 
ENDROOT
BRANCH  11  12
HETATM   12  C15 UNL     1      20.959   2.074  50.411  1.00  0.00     0.174 C 
HETATM   13  S1  UNL     1      21.338   1.330  48.976  1.00  0.00    -0.041 SA
BRANCH  12  14
HETATM   14  N5  UNL     1      20.446   3.420  50.303  1.00  0.00    -0.365 N 
HETATM   15  H12 UNL     1      19.476   3.465  49.948  1.00  0.00     0.161 HD
BRANCH  14  16
HETATM   16  C16 UNL     1      20.833   4.753  50.541  1.00  0.00     0.152 C 
BRANCH  16  17
HETATM   17  C17 UNL     1      21.762   5.083  51.651  1.00  0.00     0.294 C 
BRANCH  17  18
HETATM   18  N6  UNL     1      23.112   5.325  51.386  1.00  0.00     0.115 NA
HETATM   19  C18 UNL     1      23.945   4.180  51.324  1.00  0.00     0.301 C 
HETATM   20  C19 UNL     1      25.021   4.668  50.302  1.00  0.00     0.200 C 
HETATM   21  O1  UNL     1      24.169   5.224  49.350  1.00  0.00    -0.361 OA
HETATM   22  C20 UNL     1      23.289   5.983  50.111  1.00  0.00     0.440 C 
ENDBRANCH  17  18
ENDBRANCH  16  17
ENDBRANCH  14  16
ENDBRANCH  12  14
ENDBRANCH  11  12
BRANCH   8  23
HETATM   23  N3  UNL     1      25.056   0.040  52.820  1.00  0.00    -0.340 N 
HETATM   24  H7  UNL     1      24.997   0.537  51.911  1.00  0.00     0.167 HD
BRANCH  23  25
HETATM   25  C7  UNL     1      26.438  -0.170  53.068  1.00  0.00     0.035 A 
HETATM   26  C8  UNL     1      27.160  -1.321  52.838  1.00  0.00     0.032 A 
HETATM   27  C9  UNL     1      28.499  -1.466  53.091  1.00  0.00     0.046 A 
HETATM   28  C10 UNL     1      29.214  -0.411  53.612  1.00  0.00     0.138 A 
HETATM   29  F1  UNL     1      30.525  -0.677  53.817  1.00  0.00    -0.204 F 
HETATM   30  C11 UNL     1      28.549   0.759  53.861  1.00  0.00     0.074 A 
HETATM   31 CL1  UNL     1      29.544   2.038  54.522  1.00  0.00    -0.081 Cl
HETATM   32  C12 UNL     1      27.183   0.869  53.590  1.00  0.00     0.056 A 
ENDBRANCH  23  25
ENDBRANCH   8  23
TORSDOF 7
ENDMDL
MODEL 2
REMARK VINA RESULT:      -8.4      1.149      1.515
REMARK  7 active torsions:
REMARK  status: ('A' for Active; 'I' for Inactive)
REMARK    1  A    between atoms: C6_8  and  N3_9 
REMARK    2  A    between atoms: N3_9  and  C7_10 
REMARK    3  A    between atoms: N4_20  and  C15_21 
REMARK    4  A    between atoms: C15_21  and  N5_23 
REMARK    5  A    between atoms: N5_23  and  C16_24 
REMARK    6  A    between atoms: C16_24  and  C17_25 
REMARK    7  A    between atoms: C17_25  and  N6_26 
ROOT
HETATM    1  C1  UNL     1      18.865  -0.091  51.602  1.00  0.00     0.037 C 
HETATM    2  C2  UNL     1      19.849   0.751  52.373  1.00  0.00     0.112 A 
HETATM    3  C3  UNL     1      20.311  -0.007  53.551  1.00  0.00     0.031 A 
HETATM    4  C4  UNL     1      21.558  -0.284  53.865  1.00  0.00     0.071 A 
HETATM    5  N1  UNL     1      21.733  -0.992  54.992  1.00  0.00    -0.241 NA
HETATM    6  C5  UNL     1      23.002  -1.316  55.377  1.00  0.00     0.236 A 
HETATM    7  N2  UNL     1      23.997  -0.899  54.592  1.00  0.00    -0.223 NA
HETATM    8  C6  UNL     1      23.848  -0.196  53.470  1.00  0.00     0.143 A 
HETATM    9  C13 UNL     1      22.582   0.140  53.064  1.00  0.00     0.054 A 
HETATM   10  C14 UNL     1      22.251   0.818  52.002  1.00  0.00     0.112 A 
HETATM   11  N4  UNL     1      20.960   1.186  51.544  1.00  0.00    -0.325 N 
ENDROOT
BRANCH  11  12
HETATM   12  C15 UNL     1      20.652   1.925  50.368  1.00  0.00     0.174 C 
HETATM   13  S1  UNL     1      21.253   1.307  48.950  1.00  0.00    -0.041 SA
BRANCH  12  14
HETATM   14  N5  UNL     1      19.884   3.143  50.245  1.00  0.00    -0.365 N 
HETATM   15  H12 UNL     1      19.168   3.105  49.499  1.00  0.00     0.161 HD
BRANCH  14  16
HETATM   16  C16 UNL     1      19.765   4.417  50.832  1.00  0.00     0.152 C 
BRANCH  16  17
HETATM   17  C17 UNL     1      20.732   5.494  50.502  1.00  0.00     0.294 C 
BRANCH  17  18
HETATM   18  N6  UNL     1      21.997   5.504  51.093  1.00  0.00     0.115 NA
HETATM   19  C18 UNL     1      22.115   4.793  52.314  1.00  0.00     0.301 C 
HETATM   20  C19 UNL     1      23.610   4.345  52.237  1.00  0.00     0.200 C 
HETATM   21  O1  UNL     1      23.626   3.894  50.918  1.00  0.00    -0.361 OA
HETATM   22  C20 UNL     1      22.990   4.915  50.223  1.00  0.00     0.440 C 
ENDBRANCH  17  18
ENDBRANCH  16  17
ENDBRANCH  14  16
ENDBRANCH  12  14
ENDBRANCH  11  12
BRANCH   8  23
HETATM   23  N3  UNL     1      24.946   0.213  52.682  1.00  0.00    -0.340 N 
HETATM   24  H7  UNL     1      24.831   0.599  51.725  1.00  0.00     0.167 HD
BRANCH  23  25
HETATM   25  C7  UNL     1      26.341   0.215  52.944  1.00  0.00     0.035 A 
HETATM   26  C8  UNL     1      27.142   1.309  53.192  1.00  0.00     0.032 A 
HETATM   27  C9  UNL     1      28.487   1.251  53.447  1.00  0.00     0.046 A 
HETATM   28  C10 UNL     1      29.126   0.032  53.467  1.00  0.00     0.138 A 
HETATM   29  F1  UNL     1      30.452   0.105  53.729  1.00  0.00    -0.204 F 
HETATM   30  C11 UNL     1      28.382  -1.091  53.227  1.00  0.00     0.074 A 
HETATM   31 CL1  UNL     1      29.285  -2.590  53.275  1.00  0.00    -0.081 Cl
HETATM   32  C12 UNL     1      27.012  -0.992  52.972  1.00  0.00     0.056 A 
ENDBRANCH  23  25
ENDBRANCH   8  23
TORSDOF 7
ENDMDL
MODEL 3
REMARK VINA RESULT:      -7.8      2.544      3.487
REMARK  7 active torsions:
REMARK  status: ('A' for Active; 'I' for Inactive)
REMARK    1  A    between atoms: C6_8  and  N3_9 
REMARK    2  A    between atoms: N3_9  and  C7_10 
REMARK    3  A    between atoms: N4_20  and  C15_21 
REMARK    4  A    between atoms: C15_21  and  N5_23 
REMARK    5  A    between atoms: N5_23  and  C16_24 
REMARK    6  A    between atoms: C16_24  and  C17_25 
REMARK    7  A    between atoms: C17_25  and  N6_26 
ROOT
HETATM    1  C1  UNL     1      19.012   0.207  51.586  1.00  0.00     0.037 C 
HETATM    2  C2  UNL     1      20.028   0.951  52.414  1.00  0.00     0.112 A 
HETATM    3  C3  UNL     1      20.406   0.120  53.573  1.00  0.00     0.031 A 
HETATM    4  C4  UNL     1      21.623  -0.253  53.907  1.00  0.00     0.071 A 
HETATM    5  N1  UNL     1      21.718  -1.013  55.009  1.00  0.00    -0.241 NA
HETATM    6  C5  UNL     1      22.951  -1.437  55.413  1.00  0.00     0.236 A 
HETATM    7  N2  UNL     1      23.994  -1.058  54.670  1.00  0.00    -0.223 NA
HETATM    8  C6  UNL     1      23.923  -0.306  53.574  1.00  0.00     0.143 A 
HETATM    9  C13 UNL     1      22.694   0.131  53.150  1.00  0.00     0.054 A 
HETATM   10  C14 UNL     1      22.439   0.868  52.107  1.00  0.00     0.112 A 
HETATM   11  N4  UNL     1      21.188   1.341  51.631  1.00  0.00    -0.325 N 
ENDROOT
BRANCH  11  12
HETATM   12  C15 UNL     1      20.963   2.143  50.478  1.00  0.00     0.174 C 
HETATM   13  S1  UNL     1      21.147   1.374  49.019  1.00  0.00    -0.041 SA
BRANCH  12  14
HETATM   14  N5  UNL     1      20.594   3.538  50.410  1.00  0.00    -0.365 N 
HETATM   15  H12 UNL     1      21.324   4.137  49.989  1.00  0.00     0.161 HD
BRANCH  14  16
HETATM   16  C16 UNL     1      19.523   4.396  50.725  1.00  0.00     0.152 C 
BRANCH  16  17
HETATM   17  C17 UNL     1      18.242   3.848  51.237  1.00  0.00     0.294 C 
BRANCH  17  18
HETATM   18  N6  UNL     1      17.036   4.478  50.924  1.00  0.00     0.115 NA
HETATM   19  C18 UNL     1      16.494   4.178  49.649  1.00  0.00     0.301 C 
HETATM   20  C19 UNL     1      14.968   4.327  49.948  1.00  0.00     0.200 C 
HETATM   21  O1  UNL     1      14.918   3.616  51.146  1.00  0.00    -0.361 OA
HETATM   22  C20 UNL     1      15.996   4.122  51.863  1.00  0.00     0.440 C 
ENDBRANCH  17  18
ENDBRANCH  16  17
ENDBRANCH  14  16
ENDBRANCH  12  14
ENDBRANCH  11  12
BRANCH   8  23
HETATM   23  N3  UNL     1      25.067   0.058  52.830  1.00  0.00    -0.340 N 
HETATM   24  H7  UNL     1      25.005   0.560  51.924  1.00  0.00     0.167 HD
BRANCH  23  25
HETATM   25  C7  UNL     1      26.451  -0.136  53.082  1.00  0.00     0.035 A 
HETATM   26  C8  UNL     1      27.190  -1.275  52.845  1.00  0.00     0.032 A 
HETATM   27  C9  UNL     1      28.530  -1.404  53.102  1.00  0.00     0.046 A 
HETATM   28  C10 UNL     1      29.229  -0.344  53.635  1.00  0.00     0.138 A 
HETATM   29  F1  UNL     1      30.542  -0.593  53.843  1.00  0.00    -0.204 F 
HETATM   30  C11 UNL     1      28.547   0.815  53.891  1.00  0.00     0.074 A 
HETATM   31 CL1  UNL     1      29.521   2.102  54.567  1.00  0.00    -0.081 Cl
HETATM   32  C12 UNL     1      27.180   0.908  53.616  1.00  0.00     0.056 A 
ENDBRANCH  23  25
ENDBRANCH   8  23
TORSDOF 7
ENDMDL
MODEL 4
REMARK VINA RESULT:      -7.7      4.316      6.092
REMARK  7 active torsions:
REMARK  status: ('A' for Active; 'I' for Inactive)
REMARK    1  A    between atoms: C6_8  and  N3_9 
REMARK    2  A    between atoms: N3_9  and  C7_10 
REMARK    3  A    between atoms: N4_20  and  C15_21 
REMARK    4  A    between atoms: C15_21  and  N5_23 
REMARK    5  A    between atoms: N5_23  and  C16_24 
REMARK    6  A    between atoms: C16_24  and  C17_25 
REMARK    7  A    between atoms: C17_25  and  N6_26 
ROOT
HETATM    1  C1  UNL     1      23.166   7.704  49.573  1.00  0.00     0.037 C 
HETATM    2  C2  UNL     1      23.685   6.946  50.768  1.00  0.00     0.112 A 
HETATM    3  C3  UNL     1      22.619   6.061  51.276  1.00  0.00     0.031 A 
HETATM    4  C4  UNL     1      22.697   4.759  51.450  1.00  0.00     0.071 A 
HETATM    5  N1  UNL     1      21.591   4.167  51.926  1.00  0.00    -0.241 NA
HETATM    6  C5  UNL     1      21.602   2.817  52.130  1.00  0.00     0.236 A 
HETATM    7  N2  UNL     1      22.732   2.170  51.836  1.00  0.00    -0.223 NA
HETATM    8  C6  UNL     1      23.840   2.737  51.362  1.00  0.00     0.143 A 
HETATM    9  C13 UNL     1      23.851   4.092  51.150  1.00  0.00     0.054 A 
HETATM   10  C14 UNL     1      24.840   4.807  50.695  1.00  0.00     0.112 A 
HETATM   11  N4  UNL     1      24.895   6.206  50.459  1.00  0.00    -0.325 N 
ENDROOT
BRANCH  11  12
HETATM   12  C15 UNL     1      26.004   6.941  49.953  1.00  0.00     0.174 C 
HETATM   13  S1  UNL     1      26.694   6.341  48.568  1.00  0.00    -0.041 SA
BRANCH  12  14
HETATM   14  N5  UNL     1      26.606   8.141  50.485  1.00  0.00    -0.365 N 
HETATM   15  H12 UNL     1      26.605   8.180  51.518  1.00  0.00     0.161 HD
BRANCH  14  16
HETATM   16  C16 UNL     1      27.235   9.325  50.053  1.00  0.00     0.152 C 
BRANCH  16  17
HETATM   17  C17 UNL     1      28.650   9.307  49.602  1.00  0.00     0.294 C 
BRANCH  17  18
HETATM   18  N6  UNL     1      29.136  10.328  48.782  1.00  0.00     0.115 NA
HETATM   19  C18 UNL     1      28.523  11.595  48.943  1.00  0.00     0.301 C 
HETATM   20  C19 UNL     1      29.715  12.535  48.574  1.00  0.00     0.200 C 
HETATM   21  O1  UNL     1      30.714  11.908  49.317  1.00  0.00    -0.361 OA
HETATM   22  C20 UNL     1      30.543  10.563  49.013  1.00  0.00     0.440 C 
ENDBRANCH  17  18
ENDBRANCH  16  17
ENDBRANCH  14  16
ENDBRANCH  12  14
ENDBRANCH  11  12
BRANCH   8  23
HETATM   23  N3  UNL     1      25.004   1.993  51.069  1.00  0.00    -0.340 N 
HETATM   24  H7  UNL     1      25.327   1.825  50.097  1.00  0.00     0.167 HD
BRANCH  23  25
HETATM   25  C7  UNL     1      25.945   1.349  51.916  1.00  0.00     0.035 A 
HETATM   26  C8  UNL     1      25.973   0.017  52.269  1.00  0.00     0.032 A 
HETATM   27  C9  UNL     1      26.912  -0.554  53.087  1.00  0.00     0.046 A 
HETATM   28  C10 UNL     1      27.919   0.221  53.617  1.00  0.00     0.138 A 
HETATM   29  F1  UNL     1      28.784  -0.456  54.408  1.00  0.00    -0.204 F 
HETATM   30  C11 UNL     1      27.943   1.553  53.300  1.00  0.00     0.074 A 
HETATM   31 CL1  UNL     1      29.260   2.452  54.021  1.00  0.00    -0.081 Cl
HETATM   32  C12 UNL     1      26.968   2.099  52.462  1.00  0.00     0.056 A 
ENDBRANCH  23  25
ENDBRANCH   8  23
TORSDOF 7
ENDMDL
MODEL 5
REMARK VINA RESULT:      -7.5      6.518      9.585
REMARK  7 active torsions:
REMARK  status: ('A' for Active; 'I' for Inactive)
REMARK    1  A    between atoms: C6_8  and  N3_9 
REMARK    2  A    between atoms: N3_9  and  C7_10 
REMARK    3  A    between atoms: N4_20  and  C15_21 
REMARK    4  A    between atoms: C15_21  and  N5_23 
REMARK    5  A    between atoms: N5_23  and  C16_24 
REMARK    6  A    between atoms: C16_24  and  C17_25 
REMARK    7  A    between atoms: C17_25  and  N6_26 
ROOT
HETATM    1  C1  UNL     1      25.428   7.163  49.881  1.00  0.00     0.037 C 
HETATM    2  C2  UNL     1      26.021   6.513  48.658  1.00  0.00     0.112 A 
HETATM    3  C3  UNL     1      26.824   7.510  47.924  1.00  0.00     0.031 A 
HETATM    4  C4  UNL     1      28.091   7.402  47.587  1.00  0.00     0.071 A 
HETATM    5  N1  UNL     1      28.608   8.445  46.920  1.00  0.00    -0.241 NA
HETATM    6  C5  UNL     1      29.918   8.400  46.539  1.00  0.00     0.236 A 
HETATM    7  N2  UNL     1      30.605   7.302  46.863  1.00  0.00    -0.223 NA
HETATM    8  C6  UNL     1      30.113   6.256  47.524  1.00  0.00     0.143 A 
HETATM    9  C13 UNL     1      28.799   6.280  47.916  1.00  0.00     0.054 A 
HETATM   10  C14 UNL     1      28.156   5.352  48.566  1.00  0.00     0.112 A 
HETATM   11  N4  UNL     1      26.802   5.335  48.993  1.00  0.00    -0.325 N 
ENDROOT
BRANCH  11  12
HETATM   12  C15 UNL     1      26.148   4.294  49.708  1.00  0.00     0.174 C 
HETATM   13  S1  UNL     1      24.621   3.908  49.183  1.00  0.00    -0.041 SA
BRANCH  12  14
HETATM   14  N5  UNL     1      26.637   3.528  50.831  1.00  0.00    -0.365 N 
HETATM   15  H12 UNL     1      27.309   4.045  51.422  1.00  0.00     0.161 HD
BRANCH  14  16
HETATM   16  C16 UNL     1      26.492   2.260  51.427  1.00  0.00     0.152 C 
BRANCH  16  17
HETATM   17  C17 UNL     1      27.056   1.991  52.774  1.00  0.00     0.294 C 
BRANCH  17  18
HETATM   18  N6  UNL     1      27.782   0.821  53.008  1.00  0.00     0.115 NA
HETATM   19  C18 UNL     1      29.046   0.990  53.626  1.00  0.00     0.301 C 
HETATM   20  C19 UNL     1      29.159  -0.356  54.411  1.00  0.00     0.200 C 
HETATM   21  O1  UNL     1      27.878  -0.389  54.958  1.00  0.00    -0.361 OA
HETATM   22  C20 UNL     1      27.060  -0.081  53.877  1.00  0.00     0.440 C 
ENDBRANCH  17  18
ENDBRANCH  16  17
ENDBRANCH  14  16
ENDBRANCH  12  14
ENDBRANCH  11  12
BRANCH   8  23
HETATM   23  N3  UNL     1      30.895   5.123  47.838  1.00  0.00    -0.340 N 
HETATM   24  H7  UNL     1      30.659   4.483  48.620  1.00  0.00     0.167 HD
BRANCH  23  25
HETATM   25  C7  UNL     1      32.077   4.604  47.245  1.00  0.00     0.035 A 
HETATM   26  C8  UNL     1      33.055   3.849  47.856  1.00  0.00     0.032 A 
HETATM   27  C9  UNL     1      34.174   3.368  47.231  1.00  0.00     0.046 A 
HETATM   28  C10 UNL     1      34.378   3.632  45.895  1.00  0.00     0.138 A 
HETATM   29  F1  UNL     1      35.517   3.103  45.392  1.00  0.00    -0.204 F 
HETATM   30  C11 UNL     1      33.439   4.377  45.234  1.00  0.00     0.074 A 
HETATM   31 CL1  UNL     1      33.788   4.658  43.542  1.00  0.00    -0.081 Cl
HETATM   32  C12 UNL     1      32.310   4.851  45.906  1.00  0.00     0.056 A 
ENDBRANCH  23  25
ENDBRANCH   8  23
TORSDOF 7
ENDMDL
MODEL 6
REMARK VINA RESULT:      -7.5      2.171      5.105
REMARK  7 active torsions:
REMARK  status: ('A' for Active; 'I' for Inactive)
REMARK    1  A    between atoms: C6_8  and  N3_9 
REMARK    2  A    between atoms: N3_9  and  C7_10 
REMARK    3  A    between atoms: N4_20  and  C15_21 
REMARK    4  A    between atoms: C15_21  and  N5_23 
REMARK    5  A    between atoms: N5_23  and  C16_24 
REMARK    6  A    between atoms: C16_24  and  C17_25 
REMARK    7  A    between atoms: C17_25  and  N6_26 
ROOT
HETATM    1  C1  UNL     1      21.736   6.523  49.319  1.00  0.00     0.037 C 
HETATM    2  C2  UNL     1      22.375   5.254  48.817  1.00  0.00     0.112 A 
HETATM    3  C3  UNL     1      23.808   5.503  48.568  1.00  0.00     0.031 A 
HETATM    4  C4  UNL     1      24.820   4.838  49.081  1.00  0.00     0.071 A 
HETATM    5  N1  UNL     1      26.040   5.252  48.705  1.00  0.00    -0.241 NA
HETATM    6  C5  UNL     1      27.137   4.607  49.199  1.00  0.00     0.236 A 
HETATM    7  N2  UNL     1      26.914   3.591  50.037  1.00  0.00    -0.223 NA
HETATM    8  C6  UNL     1      25.714   3.164  50.424  1.00  0.00     0.143 A 
HETATM    9  C13 UNL     1      24.598   3.798  49.939  1.00  0.00     0.054 A 
HETATM   10  C14 UNL     1      23.356   3.517  50.209  1.00  0.00     0.112 A 
HETATM   11  N4  UNL     1      22.175   4.145  49.733  1.00  0.00    -0.325 N 
ENDROOT
BRANCH  11  12
HETATM   12  C15 UNL     1      20.835   3.800  50.065  1.00  0.00     0.174 C 
HETATM   13  S1  UNL     1      19.827   3.508  48.779  1.00  0.00    -0.041 SA
BRANCH  12  14
HETATM   14  N5  UNL     1      20.236   3.670  51.373  1.00  0.00    -0.365 N 
HETATM   15  H12 UNL     1      20.156   4.567  51.881  1.00  0.00     0.161 HD
BRANCH  14  16
HETATM   16  C16 UNL     1      19.686   2.692  52.224  1.00  0.00     0.152 C 
BRANCH  16  17
HETATM   17  C17 UNL     1      20.260   1.323  52.271  1.00  0.00     0.294 C 
BRANCH  17  18
HETATM   18  N6  UNL     1      21.107   0.955  53.319  1.00  0.00     0.115 NA
HETATM   19  C18 UNL     1      20.907  -0.344  53.849  1.00  0.00     0.301 C 
HETATM   20  C19 UNL     1      22.358  -0.688  54.311  1.00  0.00     0.200 C 
HETATM   21  O1  UNL     1      23.046  -0.268  53.174  1.00  0.00    -0.361 OA
HETATM   22  C20 UNL     1      22.493   0.979  52.908  1.00  0.00     0.440 C 
ENDBRANCH  17  18
ENDBRANCH  16  17
ENDBRANCH  14  16
ENDBRANCH  12  14
ENDBRANCH  11  12
BRANCH   8  23
HETATM   23  N3  UNL     1      25.547   2.083  51.317  1.00  0.00    -0.340 N 
HETATM   24  H7  UNL     1      24.613   1.696  51.554  1.00  0.00     0.167 HD
BRANCH  23  25
HETATM   25  C7  UNL     1      26.491   1.316  52.049  1.00  0.00     0.035 A 
HETATM   26  C8  UNL     1      26.621  -0.057  52.060  1.00  0.00     0.032 A 
HETATM   27  C9  UNL     1      27.559  -0.746  52.783  1.00  0.00     0.046 A 
HETATM   28  C10 UNL     1      28.456  -0.059  53.570  1.00  0.00     0.138 A 
HETATM   29  F1  UNL     1      29.331  -0.849  54.234  1.00  0.00    -0.204 F 
HETATM   30  C11 UNL     1      28.375   1.307  53.599  1.00  0.00     0.074 A 
HETATM   31 CL1  UNL     1      29.557   2.087  54.627  1.00  0.00    -0.081 Cl
HETATM   32  C12 UNL     1      27.405   1.975  52.847  1.00  0.00     0.056 A 
ENDBRANCH  23  25
ENDBRANCH   8  23
TORSDOF 7
ENDMDL
MODEL 7
REMARK VINA RESULT:      -7.5      1.564      1.924
REMARK  7 active torsions:
REMARK  status: ('A' for Active; 'I' for Inactive)
REMARK    1  A    between atoms: C6_8  and  N3_9 
REMARK    2  A    between atoms: N3_9  and  C7_10 
REMARK    3  A    between atoms: N4_20  and  C15_21 
REMARK    4  A    between atoms: C15_21  and  N5_23 
REMARK    5  A    between atoms: N5_23  and  C16_24 
REMARK    6  A    between atoms: C16_24  and  C17_25 
REMARK    7  A    between atoms: C17_25  and  N6_26 
ROOT
HETATM    1  C1  UNL     1      19.101   2.868  50.670  1.00  0.00     0.037 C 
HETATM    2  C2  UNL     1      20.182   3.146  51.683  1.00  0.00     0.112 A 
HETATM    3  C3  UNL     1      20.211   2.047  52.668  1.00  0.00     0.031 A 
HETATM    4  C4  UNL     1      21.250   1.304  52.981  1.00  0.00     0.071 A 
HETATM    5  N1  UNL     1      21.032   0.360  53.911  1.00  0.00    -0.241 NA
HETATM    6  C5  UNL     1      22.067  -0.449  54.284  1.00  0.00     0.236 A 
HETATM    7  N2  UNL     1      23.243  -0.240  53.689  1.00  0.00    -0.223 NA
HETATM    8  C6  UNL     1      23.482   0.689  52.765  1.00  0.00     0.143 A 
HETATM    9  C13 UNL     1      22.456   1.513  52.374  1.00  0.00     0.054 A 
HETATM   10  C14 UNL     1      22.509   2.468  51.491  1.00  0.00     0.112 A 
HETATM   11  N4  UNL     1      21.477   3.341  51.057  1.00  0.00    -0.325 N 
ENDROOT
BRANCH  11  12
HETATM   12  C15 UNL     1      21.587   4.369  50.079  1.00  0.00     0.174 C 
HETATM   13  S1  UNL     1      22.220   3.908  48.616  1.00  0.00    -0.041 SA
BRANCH  12  14
HETATM   14  N5  UNL     1      21.218   5.761  50.192  1.00  0.00    -0.365 N 
HETATM   15  H12 UNL     1      20.372   6.009  49.651  1.00  0.00     0.161 HD
BRANCH  14  16
HETATM   16  C16 UNL     1      21.632   6.947  50.828  1.00  0.00     0.152 C 
BRANCH  16  17
HETATM   17  C17 UNL     1      22.395   7.978  50.081  1.00  0.00     0.294 C 
BRANCH  17  18
HETATM   18  N6  UNL     1      23.782   7.871  49.959  1.00  0.00     0.115 NA
HETATM   19  C18 UNL     1      24.420   7.009  50.885  1.00  0.00     0.301 C 
HETATM   20  C19 UNL     1      25.634   6.524  50.031  1.00  0.00     0.200 C 
HETATM   21  O1  UNL     1      24.958   6.243  48.845  1.00  0.00    -0.361 OA
HETATM   22  C20 UNL     1      24.159   7.364  48.659  1.00  0.00     0.440 C 
ENDBRANCH  17  18
ENDBRANCH  16  17
ENDBRANCH  14  16
ENDBRANCH  12  14
ENDBRANCH  11  12
BRANCH   8  23
HETATM   23  N3  UNL     1      24.752   0.857  52.170  1.00  0.00    -0.340 N 
HETATM   24  H7  UNL     1      24.882   1.346  51.264  1.00  0.00     0.167 HD
BRANCH  23  25
HETATM   25  C7  UNL     1      26.047   0.456  52.593  1.00  0.00     0.035 A 
HETATM   26  C8  UNL     1      26.579  -0.815  52.558  1.00  0.00     0.032 A 
HETATM   27  C9  UNL     1      27.842  -1.143  52.975  1.00  0.00     0.046 A 
HETATM   28  C10 UNL     1      28.674  -0.166  53.471  1.00  0.00     0.138 A 
HETATM   29  F1  UNL     1      29.894  -0.614  53.849  1.00  0.00    -0.204 F 
HETATM   30  C11 UNL     1      28.200   1.116  53.530  1.00  0.00     0.074 A 
HETATM   31 CL1  UNL     1      29.332   2.285  54.176  1.00  0.00    -0.081 Cl
HETATM   32  C12 UNL     1      26.906   1.413  53.096  1.00  0.00     0.056 A 
ENDBRANCH  23  25
ENDBRANCH   8  23
TORSDOF 7
ENDMDL
MODEL 8
REMARK VINA RESULT:      -7.4      5.312      8.486
REMARK  7 active torsions:
REMARK  status: ('A' for Active; 'I' for Inactive)
REMARK    1  A    between atoms: C6_8  and  N3_9 
REMARK    2  A    between atoms: N3_9  and  C7_10 
REMARK    3  A    between atoms: N4_20  and  C15_21 
REMARK    4  A    between atoms: C15_21  and  N5_23 
REMARK    5  A    between atoms: N5_23  and  C16_24 
REMARK    6  A    between atoms: C16_24  and  C17_25 
REMARK    7  A    between atoms: C17_25  and  N6_26 
ROOT
HETATM    1  C1  UNL     1      23.546   6.442  50.665  1.00  0.00     0.037 C 
HETATM    2  C2  UNL     1      24.179   5.852  49.431  1.00  0.00     0.112 A 
HETATM    3  C3  UNL     1      24.720   6.945  48.599  1.00  0.00     0.031 A 
HETATM    4  C4  UNL     1      25.960   7.067  48.176  1.00  0.00     0.071 A 
HETATM    5  N1  UNL     1      26.217   8.153  47.430  1.00  0.00    -0.241 NA
HETATM    6  C5  UNL     1      27.483   8.343  46.958  1.00  0.00     0.236 A 
HETATM    7  N2  UNL     1      28.393   7.420  47.277  1.00  0.00    -0.223 NA
HETATM    8  C6  UNL     1      28.161   6.337  48.015  1.00  0.00     0.143 A 
HETATM    9  C13 UNL     1      26.895   6.125  48.501  1.00  0.00     0.054 A 
HETATM   10  C14 UNL     1      26.492   5.128  49.234  1.00  0.00     0.112 A 
HETATM   11  N4  UNL     1      25.198   4.871  49.757  1.00  0.00    -0.325 N 
ENDROOT
BRANCH  11  12
HETATM   12  C15 UNL     1      24.809   3.763  50.562  1.00  0.00     0.174 C 
HETATM   13  S1  UNL     1      23.529   2.873  49.993  1.00  0.00    -0.041 SA
BRANCH  12  14
HETATM   14  N5  UNL     1      25.383   3.310  51.808  1.00  0.00    -0.365 N 
HETATM   15  H12 UNL     1      26.315   3.712  52.003  1.00  0.00     0.161 HD
BRANCH  14  16
HETATM   16  C16 UNL     1      25.082   2.479  52.904  1.00  0.00     0.152 C 
BRANCH  16  17
HETATM   17  C17 UNL     1      26.135   2.115  53.886  1.00  0.00     0.294 C 
BRANCH  17  18
HETATM   18  N6  UNL     1      27.082   1.139  53.568  1.00  0.00     0.115 NA
HETATM   19  C18 UNL     1      28.438   1.533  53.682  1.00  0.00     0.301 C 
HETATM   20  C19 UNL     1      29.100   0.168  54.052  1.00  0.00     0.200 C 
HETATM   21  O1  UNL     1      28.191  -0.249  55.023  1.00  0.00    -0.361 OA
HETATM   22  C20 UNL     1      26.957  -0.016  54.428  1.00  0.00     0.440 C 
ENDBRANCH  17  18
ENDBRANCH  16  17
ENDBRANCH  14  16
ENDBRANCH  12  14
ENDBRANCH  11  12
BRANCH   8  23
HETATM   23  N3  UNL     1      29.171   5.397  48.319  1.00  0.00    -0.340 N 
HETATM   24  H7  UNL     1      28.956   4.435  48.645  1.00  0.00     0.167 HD
BRANCH  23  25
HETATM   25  C7  UNL     1      30.587   5.492  48.270  1.00  0.00     0.035 A 
HETATM   26  C8  UNL     1      31.393   6.331  49.009  1.00  0.00     0.032 A 
HETATM   27  C9  UNL     1      32.759   6.375  48.925  1.00  0.00     0.046 A 
HETATM   28  C10 UNL     1      33.418   5.538  48.052  1.00  0.00     0.138 A 
HETATM   29  F1  UNL     1      34.764   5.675  48.060  1.00  0.00    -0.204 F 
HETATM   30  C11 UNL     1      32.669   4.682  47.291  1.00  0.00     0.074 A 
HETATM   31 CL1  UNL     1      33.597   3.660  46.215  1.00  0.00    -0.081 Cl
HETATM   32  C12 UNL     1      31.277   4.666  47.405  1.00  0.00     0.056 A 
ENDBRANCH  23  25
ENDBRANCH   8  23
TORSDOF 7
ENDMDL
MODEL 9
REMARK VINA RESULT:      -7.3      2.763      3.808
REMARK  7 active torsions:
REMARK  status: ('A' for Active; 'I' for Inactive)
REMARK    1  A    between atoms: C6_8  and  N3_9 
REMARK    2  A    between atoms: N3_9  and  C7_10 
REMARK    3  A    between atoms: N4_20  and  C15_21 
REMARK    4  A    between atoms: C15_21  and  N5_23 
REMARK    5  A    between atoms: N5_23  and  C16_24 
REMARK    6  A    between atoms: C16_24  and  C17_25 
REMARK    7  A    between atoms: C17_25  and  N6_26 
ROOT
HETATM    1  C1  UNL     1      22.095   2.975  48.620  1.00  0.00     0.037 C 
HETATM    2  C2  UNL     1      21.984   3.103  50.118  1.00  0.00     0.112 A 
HETATM    3  C3  UNL     1      21.684   1.778  50.693  1.00  0.00     0.031 A 
HETATM    4  C4  UNL     1      22.374   1.152  51.622  1.00  0.00     0.071 A 
HETATM    5  N1  UNL     1      21.904  -0.051  51.987  1.00  0.00    -0.241 NA
HETATM    6  C5  UNL     1      22.572  -0.756  52.946  1.00  0.00     0.236 A 
HETATM    7  N2  UNL     1      23.664  -0.190  53.463  1.00  0.00    -0.223 NA
HETATM    8  C6  UNL     1      24.149   1.001  53.117  1.00  0.00     0.143 A 
HETATM    9  C13 UNL     1      23.494   1.727  52.154  1.00  0.00     0.054 A 
HETATM   10  C14 UNL     1      23.823   2.901  51.696  1.00  0.00     0.112 A 
HETATM   11  N4  UNL     1      23.179   3.685  50.704  1.00  0.00    -0.325 N 
ENDROOT
BRANCH  11  12
HETATM   12  C15 UNL     1      23.585   4.965  50.233  1.00  0.00     0.174 C 
HETATM   13  S1  UNL     1      22.631   6.240  50.699  1.00  0.00    -0.041 SA
BRANCH  12  14
HETATM   14  N5  UNL     1      24.720   5.301  49.404  1.00  0.00    -0.365 N 
HETATM   15  H12 UNL     1      24.536   5.195  48.392  1.00  0.00     0.161 HD
BRANCH  14  16
HETATM   16  C16 UNL     1      26.047   5.757  49.512  1.00  0.00     0.152 C 
BRANCH  16  17
HETATM   17  C17 UNL     1      26.624   6.653  48.478  1.00  0.00     0.294 C 
BRANCH  17  18
HETATM   18  N6  UNL     1      27.157   7.891  48.844  1.00  0.00     0.115 NA
HETATM   19  C18 UNL     1      26.903   8.962  47.952  1.00  0.00     0.301 C 
HETATM   20  C19 UNL     1      26.882  10.164  48.950  1.00  0.00     0.200 C 
HETATM   21  O1  UNL     1      26.082   9.599  49.941  1.00  0.00    -0.361 OA
HETATM   22  C20 UNL     1      26.633   8.335  50.116  1.00  0.00     0.440 C 
ENDBRANCH  17  18
ENDBRANCH  16  17
ENDBRANCH  14  16
ENDBRANCH  12  14
ENDBRANCH  11  12
BRANCH   8  23
HETATM   23  N3  UNL     1      25.313   1.544  53.702  1.00  0.00    -0.340 N 
HETATM   24  H7  UNL     1      25.291   2.385  54.310  1.00  0.00     0.167 HD
BRANCH  23  25
HETATM   25  C7  UNL     1      26.674   1.142  53.634  1.00  0.00     0.035 A 
HETATM   26  C8  UNL     1      27.788   1.944  53.757  1.00  0.00     0.032 A 
HETATM   27  C9  UNL     1      29.082   1.498  53.690  1.00  0.00     0.046 A 
HETATM   28  C10 UNL     1      29.334   0.160  53.486  1.00  0.00     0.138 A 
HETATM   29  F1  UNL     1      30.649  -0.155  53.438  1.00  0.00    -0.204 F 
HETATM   30  C11 UNL     1      28.266  -0.685  53.355  1.00  0.00     0.074 A 
HETATM   31 CL1  UNL     1      28.690  -2.364  53.099  1.00  0.00    -0.081 Cl
HETATM   32  C12 UNL     1      26.960  -0.194  53.430  1.00  0.00     0.056 A 
ENDBRANCH  23  25
ENDBRANCH   8  23
TORSDOF 7
ENDMDL
