MODEL 1
REMARK VINA RESULT:      -6.7      0.000      0.000
REMARK  6 active torsions:
REMARK  status: ('A' for Active; 'I' for Inactive)
REMARK    1  A    between atoms: O1_2  and  C2_3 
REMARK    2  A    between atoms: C4_5  and  O2_6 
REMARK    3  A    between atoms: O2_6  and  C5_7 
REMARK    4  A    between atoms: C9_12  and  N1_13 
REMARK       I    between atoms: N1_13  and  C10_14 
REMARK       I    between atoms: C10_14  and  N2_16 
REMARK    5  A    between atoms: N2_16  and  C11_17 
REMARK    6  A    between atoms: C11_17  and  C13_19 
ROOT
HETATM    1  N1  UNL     1      24.909   1.998  50.883  1.00  0.00    -0.306 N 
HETATM    2  C10 UNL     1      25.539   1.672  52.128  1.00  0.00     0.321 C 
HETATM    3  O3  UNL     1      26.360   2.450  52.683  1.00  0.00    -0.247 OA
HETATM    4  N2  UNL     1      25.286   0.455  52.823  1.00  0.00    -0.333 N 
HETATM    5  H9  UNL     1      24.230   1.282  50.489  1.00  0.00     0.171 HD
HETATM    6  H10 UNL     1      24.626  -0.225  52.426  1.00  0.00     0.165 HD
ENDROOT
BRANCH   1   7
HETATM    7  C9  UNL     1      25.320   3.277  50.372  1.00  0.00     0.070 A 
HETATM    8  C2  UNL     1      24.612   4.437  50.600  1.00  0.00     0.097 A 
HETATM    9  C3  UNL     1      25.086   5.620  50.067  1.00  0.00     0.076 A 
HETATM   10  C4  UNL     1      26.249   5.642  49.320  1.00  0.00     0.077 A 
HETATM   11  C7  UNL     1      26.926   4.461  49.118  1.00  0.00     0.039 A 
HETATM   12  C8  UNL     1      26.494   3.235  49.630  1.00  0.00     0.035 A 
BRANCH   8  13
HETATM   13  O1  UNL     1      23.449   4.388  51.351  1.00  0.00    -0.354 OA
HETATM   14  C1  UNL     1      23.485   4.801  52.707  1.00  0.00     0.210 C 
ENDBRANCH   8  13
BRANCH  10  15
HETATM   15  O2  UNL     1      26.771   6.812  48.760  1.00  0.00    -0.322 OA
BRANCH  15  16
HETATM   16  C5  UNL     1      26.755   8.015  49.440  1.00  0.00     0.154 C 
HETATM   17  C6  UNL     1      27.616   8.519  48.568  1.00  0.00     0.109 C 
HETATM   18 CL1  UNL     1      28.085   7.384  47.319  1.00  0.00    -0.095 Cl
ENDBRANCH  15  16
ENDBRANCH  10  15
ENDBRANCH   1   7
BRANCH   4  19
HETATM   19  C11 UNL     1      25.927   0.134  54.083  1.00  0.00     0.141 C 
HETATM   20  C12 UNL     1      24.975  -0.838  54.787  1.00  0.00     0.039 C 
BRANCH  19  21
HETATM   21  C13 UNL     1      27.254  -0.500  53.815  1.00  0.00     0.097 A 
HETATM   22  N3  UNL     1      27.648  -1.466  53.276  1.00  0.00    -0.256 NA
HETATM   23  C14 UNL     1      28.932  -1.822  53.168  1.00  0.00     0.124 A 
HETATM   24  C15 UNL     1      29.920  -0.946  53.766  1.00  0.00     0.071 A 
HETATM   25  S1  UNL     1      28.760   0.389  54.461  1.00  0.00    -0.083 SA
ENDBRANCH  19  21
ENDBRANCH   4  19
TORSDOF 6
ENDMDL
MODEL 2
REMARK VINA RESULT:      -6.5      4.322      7.798
REMARK  6 active torsions:
REMARK  status: ('A' for Active; 'I' for Inactive)
REMARK    1  A    between atoms: O1_2  and  C2_3 
REMARK    2  A    between atoms: C4_5  and  O2_6 
REMARK    3  A    between atoms: O2_6  and  C5_7 
REMARK    4  A    between atoms: C9_12  and  N1_13 
REMARK       I    between atoms: N1_13  and  C10_14 
REMARK       I    between atoms: C10_14  and  N2_16 
REMARK    5  A    between atoms: N2_16  and  C11_17 
REMARK    6  A    between atoms: C11_17  and  C13_19 
ROOT
HETATM    1  N1  UNL     1      24.675   4.299  52.063  1.00  0.00    -0.306 N 
HETATM    2  C10 UNL     1      24.987   4.415  50.669  1.00  0.00     0.321 C 
HETATM    3  O3  UNL     1      24.660   3.527  49.837  1.00  0.00    -0.247 OA
HETATM    4  N2  UNL     1      25.683   5.532  50.127  1.00  0.00    -0.333 N 
HETATM    5  H9  UNL     1      24.990   5.097  52.691  1.00  0.00     0.171 HD
HETATM    6  H10 UNL     1      25.980   6.294  50.750  1.00  0.00     0.165 HD
ENDROOT
BRANCH   1   7
HETATM    7  C9  UNL     1      23.970   3.087  52.374  1.00  0.00     0.070 A 
HETATM    8  C2  UNL     1      24.603   1.940  52.799  1.00  0.00     0.097 A 
HETATM    9  C3  UNL     1      23.841   0.821  53.074  1.00  0.00     0.076 A 
HETATM   10  C4  UNL     1      22.466   0.851  52.925  1.00  0.00     0.077 A 
HETATM   11  C7  UNL     1      21.874   2.017  52.498  1.00  0.00     0.039 A 
HETATM   12  C8  UNL     1      22.593   3.178  52.205  1.00  0.00     0.035 A 
BRANCH   8  13
HETATM   13  O1  UNL     1      25.982   1.936  52.940  1.00  0.00    -0.354 OA
HETATM   14  C1  UNL     1      26.776   1.312  51.944  1.00  0.00     0.210 C 
ENDBRANCH   8  13
BRANCH  10  15
HETATM   15  O2  UNL     1      21.650  -0.253  53.190  1.00  0.00    -0.322 OA
BRANCH  15  16
HETATM   16  C5  UNL     1      22.068  -1.291  54.001  1.00  0.00     0.154 C 
HETATM   17  C6  UNL     1      20.805  -1.636  54.210  1.00  0.00     0.109 C 
HETATM   18 CL1  UNL     1      19.657  -0.610  53.374  1.00  0.00    -0.095 Cl
ENDBRANCH  15  16
ENDBRANCH  10  15
ENDBRANCH   1   7
BRANCH   4  19
HETATM   19  C11 UNL     1      25.994   5.641  48.715  1.00  0.00     0.141 C 
HETATM   20  C12 UNL     1      25.239   6.881  48.227  1.00  0.00     0.039 C 
BRANCH  19  21
HETATM   21  C13 UNL     1      27.471   5.798  48.544  1.00  0.00     0.097 A 
HETATM   22  N3  UNL     1      28.404   5.089  48.474  1.00  0.00    -0.256 NA
HETATM   23  C14 UNL     1      29.669   5.489  48.314  1.00  0.00     0.124 A 
HETATM   24  C15 UNL     1      29.910   6.916  48.219  1.00  0.00     0.071 A 
HETATM   25  S1  UNL     1      28.123   7.537  48.388  1.00  0.00    -0.083 SA
ENDBRANCH  19  21
ENDBRANCH   4  19
TORSDOF 6
ENDMDL
MODEL 3
REMARK VINA RESULT:      -6.4      3.910      7.619
REMARK  6 active torsions:
REMARK  status: ('A' for Active; 'I' for Inactive)
REMARK    1  A    between atoms: O1_2  and  C2_3 
REMARK    2  A    between atoms: C4_5  and  O2_6 
REMARK    3  A    between atoms: O2_6  and  C5_7 
REMARK    4  A    between atoms: C9_12  and  N1_13 
REMARK       I    between atoms: N1_13  and  C10_14 
REMARK       I    between atoms: C10_14  and  N2_16 
REMARK    5  A    between atoms: N2_16  and  C11_17 
REMARK    6  A    between atoms: C11_17  and  C13_19 
ROOT
HETATM    1  N1  UNL     1      23.507   2.353  52.993  1.00  0.00    -0.306 N 
HETATM    2  C10 UNL     1      23.589   3.005  51.720  1.00  0.00     0.321 C 
HETATM    3  O3  UNL     1      24.543   2.796  50.925  1.00  0.00    -0.247 OA
HETATM    4  N2  UNL     1      22.607   3.929  51.265  1.00  0.00    -0.333 N 
HETATM    5  H9  UNL     1      22.667   2.590  53.599  1.00  0.00     0.171 HD
HETATM    6  H10 UNL     1      21.801   4.146  51.864  1.00  0.00     0.165 HD
ENDROOT
BRANCH   1   7
HETATM    7  C9  UNL     1      24.612   1.465  53.233  1.00  0.00     0.070 A 
HETATM    8  C2  UNL     1      24.501   0.094  53.155  1.00  0.00     0.097 A 
HETATM    9  C3  UNL     1      25.619  -0.678  53.403  1.00  0.00     0.076 A 
HETATM   10  C4  UNL     1      26.828  -0.088  53.723  1.00  0.00     0.077 A 
HETATM   11  C7  UNL     1      26.894   1.285  53.789  1.00  0.00     0.039 A 
HETATM   12  C8  UNL     1      25.798   2.117  53.550  1.00  0.00     0.035 A 
BRANCH   8  13
HETATM   13  O1  UNL     1      23.279  -0.473  52.834  1.00  0.00    -0.354 OA
HETATM   14  C1  UNL     1      22.480  -1.024  53.867  1.00  0.00     0.210 C 
ENDBRANCH   8  13
BRANCH  10  15
HETATM   15  O2  UNL     1      27.988  -0.824  53.982  1.00  0.00    -0.322 OA
BRANCH  15  16
HETATM   16  C5  UNL     1      29.180  -0.211  54.319  1.00  0.00     0.154 C 
HETATM   17  C6  UNL     1      29.850  -1.204  53.752  1.00  0.00     0.109 C 
HETATM   18 CL1  UNL     1      28.815  -2.437  53.063  1.00  0.00    -0.095 Cl
ENDBRANCH  15  16
ENDBRANCH  10  15
ENDBRANCH   1   7
BRANCH   4  19
HETATM   19  C11 UNL     1      22.697   4.585  49.975  1.00  0.00     0.141 C 
HETATM   20  C12 UNL     1      21.250   4.751  49.500  1.00  0.00     0.039 C 
BRANCH  19  21
HETATM   21  C13 UNL     1      23.374   5.907  50.137  1.00  0.00     0.097 A 
HETATM   22  N3  UNL     1      23.116   6.946  50.620  1.00  0.00    -0.256 NA
HETATM   23  C14 UNL     1      23.922   8.013  50.634  1.00  0.00     0.124 A 
HETATM   24  C15 UNL     1      25.220   7.877  50.002  1.00  0.00     0.071 A 
HETATM   25  S1  UNL     1      25.088   6.072  49.424  1.00  0.00    -0.083 SA
ENDBRANCH  19  21
ENDBRANCH   4  19
TORSDOF 6
ENDMDL
MODEL 4
REMARK VINA RESULT:      -6.0      4.933      7.699
REMARK  6 active torsions:
REMARK  status: ('A' for Active; 'I' for Inactive)
REMARK    1  A    between atoms: O1_2  and  C2_3 
REMARK    2  A    between atoms: C4_5  and  O2_6 
REMARK    3  A    between atoms: O2_6  and  C5_7 
REMARK    4  A    between atoms: C9_12  and  N1_13 
REMARK       I    between atoms: N1_13  and  C10_14 
REMARK       I    between atoms: C10_14  and  N2_16 
REMARK    5  A    between atoms: N2_16  and  C11_17 
REMARK    6  A    between atoms: C11_17  and  C13_19 
ROOT
HETATM    1  N1  UNL     1      22.204   0.939  53.378  1.00  0.00    -0.306 N 
HETATM    2  C10 UNL     1      21.560   0.868  52.100  1.00  0.00     0.321 C 
HETATM    3  O3  UNL     1      22.213   0.733  51.031  1.00  0.00    -0.247 OA
HETATM    4  N2  UNL     1      20.146   0.944  51.945  1.00  0.00    -0.333 N 
HETATM    5  H9  UNL     1      21.573   1.053  54.226  1.00  0.00     0.171 HD
HETATM    6  H10 UNL     1      19.552   1.055  52.777  1.00  0.00     0.165 HD
ENDROOT
BRANCH   1   7
HETATM    7  C9  UNL     1      23.634   0.840  53.283  1.00  0.00     0.070 A 
HETATM    8  C2  UNL     1      24.449   1.934  53.087  1.00  0.00     0.097 A 
HETATM    9  C3  UNL     1      25.814   1.741  53.008  1.00  0.00     0.076 A 
HETATM   10  C4  UNL     1      26.355   0.473  53.124  1.00  0.00     0.077 A 
HETATM   11  C7  UNL     1      25.506  -0.591  53.320  1.00  0.00     0.039 A 
HETATM   12  C8  UNL     1      24.118  -0.457  53.407  1.00  0.00     0.035 A 
BRANCH   8  13
HETATM   13  O1  UNL     1      23.882   3.193  52.973  1.00  0.00    -0.354 OA
HETATM   14  C1  UNL     1      23.998   3.894  51.746  1.00  0.00     0.210 C 
ENDBRANCH   8  13
BRANCH  10  15
HETATM   15  O2  UNL     1      27.729   0.224  53.052  1.00  0.00    -0.322 OA
BRANCH  15  16
HETATM   16  C5  UNL     1      28.662   1.161  53.456  1.00  0.00     0.154 C 
HETATM   17  C6  UNL     1      29.548   0.194  53.650  1.00  0.00     0.109 C 
HETATM   18 CL1  UNL     1      28.927  -1.402  53.280  1.00  0.00    -0.095 Cl
ENDBRANCH  15  16
ENDBRANCH  10  15
ENDBRANCH   1   7
BRANCH   4  19
HETATM   19  C11 UNL     1      19.503   0.871  50.649  1.00  0.00     0.141 C 
HETATM   20  C12 UNL     1      18.191   0.115  50.888  1.00  0.00     0.039 C 
BRANCH  19  21
HETATM   21  C13 UNL     1      19.251   2.254  50.141  1.00  0.00     0.097 A 
HETATM   22  N3  UNL     1      19.474   2.858  49.159  1.00  0.00    -0.256 NA
HETATM   23  C14 UNL     1      19.133   4.132  48.941  1.00  0.00     0.124 A 
HETATM   24  C15 UNL     1      18.431   4.825  50.004  1.00  0.00     0.071 A 
HETATM   25  S1  UNL     1      18.352   3.422  51.281  1.00  0.00    -0.083 SA
ENDBRANCH  19  21
ENDBRANCH   4  19
TORSDOF 6
ENDMDL
MODEL 5
REMARK VINA RESULT:      -6.0      5.756      8.837
REMARK  6 active torsions:
REMARK  status: ('A' for Active; 'I' for Inactive)
REMARK    1  A    between atoms: O1_2  and  C2_3 
REMARK    2  A    between atoms: C4_5  and  O2_6 
REMARK    3  A    between atoms: O2_6  and  C5_7 
REMARK    4  A    between atoms: C9_12  and  N1_13 
REMARK       I    between atoms: N1_13  and  C10_14 
REMARK       I    between atoms: C10_14  and  N2_16 
REMARK    5  A    between atoms: N2_16  and  C11_17 
REMARK    6  A    between atoms: C11_17  and  C13_19 
ROOT
HETATM    1  N1  UNL     1      20.837   1.108  51.097  1.00  0.00    -0.306 N 
HETATM    2  C10 UNL     1      20.190   2.352  51.392  1.00  0.00     0.321 C 
HETATM    3  O3  UNL     1      20.725   3.224  52.127  1.00  0.00    -0.247 OA
HETATM    4  N2  UNL     1      18.905   2.691  50.880  1.00  0.00    -0.333 N 
HETATM    5  H9  UNL     1      20.310   0.433  50.468  1.00  0.00     0.171 HD
HETATM    6  H10 UNL     1      18.411   2.025  50.273  1.00  0.00     0.165 HD
ENDROOT
BRANCH   1   7
HETATM    7  C9  UNL     1      22.124   0.991  51.725  1.00  0.00     0.070 A 
HETATM    8  C2  UNL     1      22.324   0.299  52.899  1.00  0.00     0.097 A 
HETATM    9  C3  UNL     1      23.599   0.242  53.429  1.00  0.00     0.076 A 
HETATM   10  C4  UNL     1      24.655   0.867  52.793  1.00  0.00     0.077 A 
HETATM   11  C7  UNL     1      24.412   1.547  51.622  1.00  0.00     0.039 A 
HETATM   12  C8  UNL     1      23.145   1.640  51.040  1.00  0.00     0.035 A 
BRANCH   8  13
HETATM   13  O1  UNL     1      21.248  -0.318  53.517  1.00  0.00    -0.354 OA
HETATM   14  C1  UNL     1      21.473  -1.091  54.685  1.00  0.00     0.210 C 
ENDBRANCH   8  13
BRANCH  10  15
HETATM   15  O2  UNL     1      25.963   0.839  53.286  1.00  0.00    -0.322 OA
BRANCH  15  16
HETATM   16  C5  UNL     1      26.466  -0.262  53.954  1.00  0.00     0.154 C 
HETATM   17  C6  UNL     1      27.564   0.420  54.249  1.00  0.00     0.109 C 
HETATM   18 CL1  UNL     1      27.553   2.058  53.628  1.00  0.00    -0.095 Cl
ENDBRANCH  15  16
ENDBRANCH  10  15
ENDBRANCH   1   7
BRANCH   4  19
HETATM   19  C11 UNL     1      18.257   3.952  51.183  1.00  0.00     0.141 C 
HETATM   20  C12 UNL     1      18.096   4.661  49.834  1.00  0.00     0.039 C 
BRANCH  19  21
HETATM   21  C13 UNL     1      16.933   3.688  51.824  1.00  0.00     0.097 A 
HETATM   22  N3  UNL     1      16.195   4.267  52.530  1.00  0.00    -0.256 NA
HETATM   23  C14 UNL     1      15.027   3.796  52.980  1.00  0.00     0.124 A 
HETATM   24  C15 UNL     1      14.641   2.462  52.562  1.00  0.00     0.071 A 
HETATM   25  S1  UNL     1      16.145   2.034  51.484  1.00  0.00    -0.083 SA
ENDBRANCH  19  21
ENDBRANCH   4  19
TORSDOF 6
ENDMDL
MODEL 6
REMARK VINA RESULT:      -5.9      4.602      8.584
REMARK  6 active torsions:
REMARK  status: ('A' for Active; 'I' for Inactive)
REMARK    1  A    between atoms: O1_2  and  C2_3 
REMARK    2  A    between atoms: C4_5  and  O2_6 
REMARK    3  A    between atoms: O2_6  and  C5_7 
REMARK    4  A    between atoms: C9_12  and  N1_13 
REMARK       I    between atoms: N1_13  and  C10_14 
REMARK       I    between atoms: C10_14  and  N2_16 
REMARK    5  A    between atoms: N2_16  and  C11_17 
REMARK    6  A    between atoms: C11_17  and  C13_19 
ROOT
HETATM    1  N1  UNL     1      24.611   3.325  50.139  1.00  0.00    -0.306 N 
HETATM    2  C10 UNL     1      24.504   4.630  50.722  1.00  0.00     0.321 C 
HETATM    3  O3  UNL     1      24.139   4.798  51.916  1.00  0.00    -0.247 OA
HETATM    4  N2  UNL     1      24.800   5.821  50.001  1.00  0.00    -0.333 N 
HETATM    5  H9  UNL     1      24.926   3.279  49.125  1.00  0.00     0.171 HD
HETATM    6  H10 UNL     1      25.103   5.756  49.021  1.00  0.00     0.165 HD
ENDROOT
BRANCH   1   7
HETATM    7  C9  UNL     1      24.261   2.277  51.058  1.00  0.00     0.070 A 
HETATM    8  C2  UNL     1      25.189   1.630  51.844  1.00  0.00     0.097 A 
HETATM    9  C3  UNL     1      24.759   0.634  52.699  1.00  0.00     0.076 A 
HETATM   10  C4  UNL     1      23.420   0.292  52.765  1.00  0.00     0.077 A 
HETATM   11  C7  UNL     1      22.527   0.964  51.964  1.00  0.00     0.039 A 
HETATM   12  C8  UNL     1      22.904   1.978  51.080  1.00  0.00     0.035 A 
BRANCH   8  13
HETATM   13  O1  UNL     1      26.524   1.991  51.758  1.00  0.00    -0.354 OA
HETATM   14  C1  UNL     1      27.302   2.050  52.942  1.00  0.00     0.210 C 
ENDBRANCH   8  13
BRANCH  10  15
HETATM   15  O2  UNL     1      22.933  -0.708  53.613  1.00  0.00    -0.322 OA
BRANCH  15  16
HETATM   16  C5  UNL     1      21.621  -1.138  53.553  1.00  0.00     0.154 C 
HETATM   17  C6  UNL     1      21.723  -1.617  54.785  1.00  0.00     0.109 C 
HETATM   18 CL1  UNL     1      23.301  -1.366  55.501  1.00  0.00    -0.095 Cl
ENDBRANCH  15  16
ENDBRANCH  10  15
ENDBRANCH   1   7
BRANCH   4  19
HETATM   19  C11 UNL     1      24.689   7.137  50.599  1.00  0.00     0.141 C 
HETATM   20  C12 UNL     1      25.994   7.857  50.241  1.00  0.00     0.039 C 
BRANCH  19  21
HETATM   21  C13 UNL     1      23.502   7.843  50.028  1.00  0.00     0.097 A 
HETATM   22  N3  UNL     1      23.310   8.706  49.256  1.00  0.00    -0.256 NA
HETATM   23  C14 UNL     1      22.108   9.173  48.902  1.00  0.00     0.124 A 
HETATM   24  C15 UNL     1      20.947   8.566  49.523  1.00  0.00     0.071 A 
HETATM   25  S1  UNL     1      21.825   7.293  50.627  1.00  0.00    -0.083 SA
ENDBRANCH  19  21
ENDBRANCH   4  19
TORSDOF 6
ENDMDL
MODEL 7
REMARK VINA RESULT:      -5.8      7.307      8.568
REMARK  6 active torsions:
REMARK  status: ('A' for Active; 'I' for Inactive)
REMARK    1  A    between atoms: O1_2  and  C2_3 
REMARK    2  A    between atoms: C4_5  and  O2_6 
REMARK    3  A    between atoms: O2_6  and  C5_7 
REMARK    4  A    between atoms: C9_12  and  N1_13 
REMARK       I    between atoms: N1_13  and  C10_14 
REMARK       I    between atoms: C10_14  and  N2_16 
REMARK    5  A    between atoms: N2_16  and  C11_17 
REMARK    6  A    between atoms: C11_17  and  C13_19 
ROOT
HETATM    1  N1  UNL     1      30.937   8.279  49.773  1.00  0.00    -0.306 N 
HETATM    2  C10 UNL     1      31.859   7.766  48.802  1.00  0.00     0.321 C 
HETATM    3  O3  UNL     1      31.978   8.282  47.659  1.00  0.00    -0.247 OA
HETATM    4  N2  UNL     1      32.699   6.645  49.056  1.00  0.00    -0.333 N 
HETATM    5  H9  UNL     1      30.904   7.780  50.711  1.00  0.00     0.171 HD
HETATM    6  H10 UNL     1      32.652   6.175  49.970  1.00  0.00     0.165 HD
ENDROOT
BRANCH   1   7
HETATM    7  C9  UNL     1      30.198   9.412  49.290  1.00  0.00     0.070 A 
HETATM    8  C2  UNL     1      28.937   9.307  48.746  1.00  0.00     0.097 A 
HETATM    9  C3  UNL     1      28.304  10.454  48.307  1.00  0.00     0.076 A 
HETATM   10  C4  UNL     1      28.924  11.686  48.413  1.00  0.00     0.077 A 
HETATM   11  C7  UNL     1      30.183  11.746  48.964  1.00  0.00     0.039 A 
HETATM   12  C8  UNL     1      30.872  10.621  49.423  1.00  0.00     0.035 A 
BRANCH   8  13
HETATM   13  O1  UNL     1      28.338   8.061  48.650  1.00  0.00    -0.354 OA
HETATM   14  C1  UNL     1      28.367   7.374  47.410  1.00  0.00     0.210 C 
ENDBRANCH   8  13
BRANCH  10  15
HETATM   15  O2  UNL     1      28.327  12.876  47.985  1.00  0.00    -0.322 OA
BRANCH  15  16
HETATM   16  C5  UNL     1      26.988  13.140  48.206  1.00  0.00     0.154 C 
HETATM   17  C6  UNL     1      27.145  14.355  47.701  1.00  0.00     0.109 C 
HETATM   18 CL1  UNL     1      28.785  14.684  47.178  1.00  0.00    -0.095 Cl
ENDBRANCH  15  16
ENDBRANCH  10  15
ENDBRANCH   1   7
BRANCH   4  19
HETATM   19  C11 UNL     1      33.628   6.132  48.068  1.00  0.00     0.141 C 
HETATM   20  C12 UNL     1      34.960   5.970  48.809  1.00  0.00     0.039 C 
BRANCH  19  21
HETATM   21  C13 UNL     1      33.128   4.823  47.550  1.00  0.00     0.097 A 
HETATM   22  N3  UNL     1      32.136   4.415  47.073  1.00  0.00    -0.256 NA
HETATM   23  C14 UNL     1      31.929   3.155  46.677  1.00  0.00     0.124 A 
HETATM   24  C15 UNL     1      33.020   2.215  46.850  1.00  0.00     0.071 A 
HETATM   25  S1  UNL     1      34.304   3.379  47.627  1.00  0.00    -0.083 SA
ENDBRANCH  19  21
ENDBRANCH   4  19
TORSDOF 6
ENDMDL
MODEL 8
REMARK VINA RESULT:      -5.7      6.332      9.198
REMARK  6 active torsions:
REMARK  status: ('A' for Active; 'I' for Inactive)
REMARK    1  A    between atoms: O1_2  and  C2_3 
REMARK    2  A    between atoms: C4_5  and  O2_6 
REMARK    3  A    between atoms: O2_6  and  C5_7 
REMARK    4  A    between atoms: C9_12  and  N1_13 
REMARK       I    between atoms: N1_13  and  C10_14 
REMARK       I    between atoms: C10_14  and  N2_16 
REMARK    5  A    between atoms: N2_16  and  C11_17 
REMARK    6  A    between atoms: C11_17  and  C13_19 
ROOT
HETATM    1  N1  UNL     1      20.220   0.903  50.975  1.00  0.00    -0.306 N 
HETATM    2  C10 UNL     1      19.411   1.955  51.515  1.00  0.00     0.321 C 
HETATM    3  O3  UNL     1      19.837   2.730  52.413  1.00  0.00    -0.247 OA
HETATM    4  N2  UNL     1      18.077   2.200  51.082  1.00  0.00    -0.333 N 
HETATM    5  H9  UNL     1      19.777   0.299  50.221  1.00  0.00     0.171 HD
HETATM    6  H10 UNL     1      17.666   1.604  50.352  1.00  0.00     0.165 HD
ENDROOT
BRANCH   1   7
HETATM    7  C9  UNL     1      21.528   0.851  51.568  1.00  0.00     0.070 A 
HETATM    8  C2  UNL     1      22.606   1.546  51.065  1.00  0.00     0.097 A 
HETATM    9  C3  UNL     1      23.826   1.433  51.703  1.00  0.00     0.076 A 
HETATM   10  C4  UNL     1      23.965   0.637  52.825  1.00  0.00     0.077 A 
HETATM   11  C7  UNL     1      22.863  -0.039  53.294  1.00  0.00     0.039 A 
HETATM   12  C8  UNL     1      21.605   0.035  52.691  1.00  0.00     0.035 A 
BRANCH   8  13
HETATM   13  O1  UNL     1      22.441   2.336  49.939  1.00  0.00    -0.354 OA
HETATM   14  C1  UNL     1      22.711   3.726  50.024  1.00  0.00     0.210 C 
ENDBRANCH   8  13
BRANCH  10  15
HETATM   15  O2  UNL     1      25.176   0.490  53.507  1.00  0.00    -0.322 OA
BRANCH  15  16
HETATM   16  C5  UNL     1      25.356  -0.483  54.472  1.00  0.00     0.154 C 
HETATM   17  C6  UNL     1      26.457   0.128  54.883  1.00  0.00     0.109 C 
HETATM   18 CL1  UNL     1      26.825   1.582  53.977  1.00  0.00    -0.095 Cl
ENDBRANCH  15  16
ENDBRANCH  10  15
ENDBRANCH   1   7
BRANCH   4  19
HETATM   19  C11 UNL     1      17.265   3.267  51.634  1.00  0.00     0.141 C 
HETATM   20  C12 UNL     1      17.046   4.250  50.480  1.00  0.00     0.039 C 
BRANCH  19  21
HETATM   21  C13 UNL     1      15.971   2.702  52.124  1.00  0.00     0.097 A 
HETATM   22  N3  UNL     1      15.448   1.651  52.139  1.00  0.00    -0.256 NA
HETATM   23  C14 UNL     1      14.242   1.395  52.656  1.00  0.00     0.124 A 
HETATM   24  C15 UNL     1      13.520   2.506  53.246  1.00  0.00     0.071 A 
HETATM   25  S1  UNL     1      14.791   3.886  52.948  1.00  0.00    -0.083 SA
ENDBRANCH  19  21
ENDBRANCH   4  19
TORSDOF 6
ENDMDL
MODEL 9
REMARK VINA RESULT:      -5.7      3.149      3.947
REMARK  6 active torsions:
REMARK  status: ('A' for Active; 'I' for Inactive)
REMARK    1  A    between atoms: O1_2  and  C2_3 
REMARK    2  A    between atoms: C4_5  and  O2_6 
REMARK    3  A    between atoms: O2_6  and  C5_7 
REMARK    4  A    between atoms: C9_12  and  N1_13 
REMARK       I    between atoms: N1_13  and  C10_14 
REMARK       I    between atoms: C10_14  and  N2_16 
REMARK    5  A    between atoms: N2_16  and  C11_17 
REMARK    6  A    between atoms: C11_17  and  C13_19 
ROOT
HETATM    1  N1  UNL     1      24.491   3.681  51.648  1.00  0.00    -0.306 N 
HETATM    2  C10 UNL     1      25.739   2.985  51.532  1.00  0.00     0.321 C 
HETATM    3  O3  UNL     1      26.242   2.700  50.412  1.00  0.00    -0.247 OA
HETATM    4  N2  UNL     1      26.495   2.568  52.664  1.00  0.00    -0.333 N 
HETATM    5  H9  UNL     1      24.144   3.878  52.633  1.00  0.00     0.171 HD
HETATM    6  H10 UNL     1      26.143   2.768  53.608  1.00  0.00     0.165 HD
ENDROOT
BRANCH   1   7
HETATM    7  C9  UNL     1      23.913   3.997  50.371  1.00  0.00     0.070 A 
HETATM    8  C2  UNL     1      24.162   5.180  49.709  1.00  0.00     0.097 A 
HETATM    9  C3  UNL     1      23.560   5.396  48.485  1.00  0.00     0.076 A 
HETATM   10  C4  UNL     1      22.723   4.444  47.932  1.00  0.00     0.077 A 
HETATM   11  C7  UNL     1      22.503   3.277  48.626  1.00  0.00     0.039 A 
HETATM   12  C8  UNL     1      23.083   3.003  49.868  1.00  0.00     0.035 A 
BRANCH   8  13
HETATM   13  O1  UNL     1      25.003   6.118  50.285  1.00  0.00    -0.354 OA
HETATM   14  C1  UNL     1      26.126   6.580  49.553  1.00  0.00     0.210 C 
ENDBRANCH   8  13
BRANCH  10  15
HETATM   15  O2  UNL     1      22.090   4.613  46.697  1.00  0.00    -0.322 OA
BRANCH  15  16
HETATM   16  C5  UNL     1      21.982   3.580  45.786  1.00  0.00     0.154 C 
HETATM   17  C6  UNL     1      21.517   4.428  44.880  1.00  0.00     0.109 C 
HETATM   18 CL1  UNL     1      21.401   6.076  45.465  1.00  0.00    -0.095 Cl
ENDBRANCH  15  16
ENDBRANCH  10  15
ENDBRANCH   1   7
BRANCH   4  19
HETATM   19  C11 UNL     1      27.757   1.865  52.537  1.00  0.00     0.141 C 
HETATM   20  C12 UNL     1      28.606   2.336  53.722  1.00  0.00     0.039 C 
BRANCH  19  21
HETATM   21  C13 UNL     1      27.511   0.392  52.593  1.00  0.00     0.097 A 
HETATM   22  N3  UNL     1      26.677  -0.350  52.229  1.00  0.00    -0.256 NA
HETATM   23  C14 UNL     1      26.689  -1.675  52.407  1.00  0.00     0.124 A 
HETATM   24  C15 UNL     1      27.825  -2.243  53.108  1.00  0.00     0.071 A 
HETATM   25  S1  UNL     1      28.803  -0.649  53.441  1.00  0.00    -0.083 SA
ENDBRANCH  19  21
ENDBRANCH   4  19
TORSDOF 6
ENDMDL
