MODEL 1
REMARK VINA RESULT:      -8.3      0.000      0.000
REMARK  10 active torsions:
REMARK  status: ('A' for Active; 'I' for Inactive)
REMARK    1  A    between atoms: C2_2  and  C3_3 
REMARK    2  A    between atoms: C3_3  and  C4_4 
REMARK    3  A    between atoms: C4_4  and  C5_5 
REMARK    4  A    between atoms: C5_5  and  C6_6 
REMARK    5  A    between atoms: C6_6  and  N1_7 
REMARK    6  A    between atoms: C13_17  and  N4_18 
REMARK    7  A    between atoms: N4_18  and  C14_19 
REMARK    8  A    between atoms: C14_19  and  C15_20 
REMARK    9  A    between atoms: C14_19  and  C16_22 
REMARK   10  A    between atoms: C15_20  and  O1_21 
ROOT
HETATM    1  N1  UNL     1      24.863   0.138  53.401  1.00  0.00    -0.379 N 
HETATM    2  C7  UNL     1      25.004   1.528  53.012  1.00  0.00     0.128 C 
HETATM    3  C8  UNL     1      24.259   1.584  51.652  1.00  0.00     0.060 C 
HETATM    4  C9  UNL     1      22.826   1.761  51.986  1.00  0.00    -0.025 A 
HETATM    5  C10 UNL     1      22.530   0.711  52.875  1.00  0.00     0.010 A 
HETATM    6  S1  UNL     1      20.852   0.911  53.290  1.00  0.00    -0.072 SA
HETATM    7  C11 UNL     1      20.602   2.351  52.291  1.00  0.00     0.114 A 
HETATM    8  N2  UNL     1      19.470   3.082  52.123  1.00  0.00    -0.234 NA
HETATM    9  C12 UNL     1      19.463   4.152  51.318  1.00  0.00     0.236 A 
HETATM   10  N3  UNL     1      20.620   4.388  50.748  1.00  0.00    -0.224 NA
HETATM   11  C13 UNL     1      21.735   3.696  50.893  1.00  0.00     0.139 A 
HETATM   12  C22 UNL     1      21.806   2.585  51.708  1.00  0.00     0.053 A 
HETATM   13  C23 UNL     1      23.501  -0.349  53.329  1.00  0.00     0.169 C 
ENDROOT
BRANCH  11  14
HETATM   14  N4  UNL     1      22.849   4.195  50.112  1.00  0.00    -0.363 N 
HETATM   15  H15 UNL     1      23.323   3.910  49.246  1.00  0.00     0.162 HD
BRANCH  14  16
HETATM   16  C14 UNL     1      23.565   5.383  50.519  1.00  0.00     0.140 C 
BRANCH  16  17
HETATM   17  C15 UNL     1      23.820   5.446  51.998  1.00  0.00     0.194 C 
BRANCH  17  18
HETATM   18  O1  UNL     1      24.314   6.673  52.370  1.00  0.00    -0.399 OA
HETATM   19  H19 UNL     1      25.285   6.567  52.605  1.00  0.00     0.209 HD
ENDBRANCH  17  18
ENDBRANCH  16  17
BRANCH  16  20
HETATM   20  C16 UNL     1      24.906   5.305  49.842  1.00  0.00    -0.034 A 
HETATM   21  C17 UNL     1      25.448   6.384  49.163  1.00  0.00     0.009 A 
HETATM   22  C18 UNL     1      26.689   6.197  48.577  1.00  0.00     0.001 A 
HETATM   23  C19 UNL     1      27.364   5.001  48.658  1.00  0.00     0.000 A 
HETATM   24  C20 UNL     1      26.834   3.921  49.333  1.00  0.00     0.001 A 
HETATM   25  C21 UNL     1      25.587   4.103  49.923  1.00  0.00     0.009 A 
ENDBRANCH  16  20
ENDBRANCH  14  16
ENDBRANCH  11  14
BRANCH   1  26
HETATM   26  C6  UNL     1      25.788  -0.855  53.839  1.00  0.00     0.138 C 
BRANCH  26  27
HETATM   27  C5  UNL     1      27.018  -0.839  53.347  1.00  0.00    -0.133 C 
BRANCH  27  28
HETATM   28  C4  UNL     1      28.315  -1.045  53.160  1.00  0.00     0.073 C 
BRANCH  28  29
HETATM   29  C3  UNL     1      29.295  -0.249  53.924  1.00  0.00     0.017 C 
BRANCH  29  30
HETATM   30  C2  UNL     1      28.513   0.940  54.501  1.00  0.00    -0.003 C 
HETATM   31  C1  UNL     1      28.836   2.156  53.640  1.00  0.00     0.005 C 
ENDBRANCH  29  30
ENDBRANCH  28  29
ENDBRANCH  27  28
ENDBRANCH  26  27
ENDBRANCH   1  26
TORSDOF 10
ENDMDL
MODEL 2
REMARK VINA RESULT:      -8.2      2.364      6.111
REMARK  10 active torsions:
REMARK  status: ('A' for Active; 'I' for Inactive)
REMARK    1  A    between atoms: C2_2  and  C3_3 
REMARK    2  A    between atoms: C3_3  and  C4_4 
REMARK    3  A    between atoms: C4_4  and  C5_5 
REMARK    4  A    between atoms: C5_5  and  C6_6 
REMARK    5  A    between atoms: C6_6  and  N1_7 
REMARK    6  A    between atoms: C13_17  and  N4_18 
REMARK    7  A    between atoms: N4_18  and  C14_19 
REMARK    8  A    between atoms: C14_19  and  C15_20 
REMARK    9  A    between atoms: C14_19  and  C16_22 
REMARK   10  A    between atoms: C15_20  and  O1_21 
ROOT
HETATM    1  N1  UNL     1      24.267   4.430  50.882  1.00  0.00    -0.379 N 
HETATM    2  C7  UNL     1      24.563   3.015  50.753  1.00  0.00     0.128 C 
HETATM    3  C8  UNL     1      24.402   2.496  52.207  1.00  0.00     0.060 C 
HETATM    4  C9  UNL     1      22.953   2.237  52.384  1.00  0.00    -0.025 A 
HETATM    5  C10 UNL     1      22.325   3.444  52.025  1.00  0.00     0.010 A 
HETATM    6  S1  UNL     1      20.619   3.155  52.212  1.00  0.00    -0.072 SA
HETATM    7  C11 UNL     1      20.791   1.477  52.749  1.00  0.00     0.114 A 
HETATM    8  N2  UNL     1      19.820   0.592  53.092  1.00  0.00    -0.234 NA
HETATM    9  C12 UNL     1      20.137  -0.649  53.481  1.00  0.00     0.236 A 
HETATM   10  N3  UNL     1      21.427  -0.885  53.489  1.00  0.00    -0.224 NA
HETATM   11  C13 UNL     1      22.391  -0.045  53.162  1.00  0.00     0.139 A 
HETATM   12  C22 UNL     1      22.129   1.247  52.752  1.00  0.00     0.053 A 
HETATM   13  C23 UNL     1      23.033   4.702  51.589  1.00  0.00     0.169 C 
ENDROOT
BRANCH  11  14
HETATM   14  N4  UNL     1      23.726  -0.594  53.292  1.00  0.00    -0.363 N 
HETATM   15  H15 UNL     1      24.367  -1.115  52.681  1.00  0.00     0.162 HD
BRANCH  14  16
HETATM   16  C14 UNL     1      24.471  -0.446  54.521  1.00  0.00     0.140 C 
BRANCH  16  17
HETATM   17  C15 UNL     1      24.306  -1.607  55.461  1.00  0.00     0.194 C 
BRANCH  17  18
HETATM   18  O1  UNL     1      23.029  -1.668  55.962  1.00  0.00    -0.399 OA
HETATM   19  H19 UNL     1      22.505  -0.894  55.593  1.00  0.00     0.209 HD
ENDBRANCH  17  18
ENDBRANCH  16  17
BRANCH  16  20
HETATM   20  C16 UNL     1      25.920  -0.404  54.120  1.00  0.00    -0.034 A 
HETATM   21  C17 UNL     1      26.381  -1.029  52.972  1.00  0.00     0.009 A 
HETATM   22  C18 UNL     1      27.736  -0.924  52.703  1.00  0.00     0.001 A 
HETATM   23  C19 UNL     1      28.595  -0.236  53.528  1.00  0.00     0.000 A 
HETATM   24  C20 UNL     1      28.146   0.389  54.672  1.00  0.00     0.001 A 
HETATM   25  C21 UNL     1      26.786   0.288  54.948  1.00  0.00     0.009 A 
ENDBRANCH  16  20
ENDBRANCH  14  16
ENDBRANCH  11  14
BRANCH   1  26
HETATM   26  C6  UNL     1      24.939   5.613  50.456  1.00  0.00     0.138 C 
BRANCH  26  27
HETATM   27  C5  UNL     1      25.832   5.520  49.481  1.00  0.00    -0.133 C 
BRANCH  27  28
HETATM   28  C4  UNL     1      26.747   5.806  48.565  1.00  0.00     0.073 C 
BRANCH  28  29
HETATM   29  C3  UNL     1      28.016   5.052  48.545  1.00  0.00     0.017 C 
BRANCH  29  30
HETATM   30  C2  UNL     1      29.106   6.071  48.184  1.00  0.00    -0.003 C 
HETATM   31  C1  UNL     1      30.367   5.285  47.846  1.00  0.00     0.005 C 
ENDBRANCH  29  30
ENDBRANCH  28  29
ENDBRANCH  27  28
ENDBRANCH  26  27
ENDBRANCH   1  26
TORSDOF 10
ENDMDL
MODEL 3
REMARK VINA RESULT:      -7.9      3.024      7.549
REMARK  10 active torsions:
REMARK  status: ('A' for Active; 'I' for Inactive)
REMARK    1  A    between atoms: C2_2  and  C3_3 
REMARK    2  A    between atoms: C3_3  and  C4_4 
REMARK    3  A    between atoms: C4_4  and  C5_5 
REMARK    4  A    between atoms: C5_5  and  C6_6 
REMARK    5  A    between atoms: C6_6  and  N1_7 
REMARK    6  A    between atoms: C13_17  and  N4_18 
REMARK    7  A    between atoms: N4_18  and  C14_19 
REMARK    8  A    between atoms: C14_19  and  C15_20 
REMARK    9  A    between atoms: C14_19  and  C16_22 
REMARK   10  A    between atoms: C15_20  and  O1_21 
ROOT
HETATM    1  N1  UNL     1      23.690   5.261  51.287  1.00  0.00    -0.379 N 
HETATM    2  C7  UNL     1      23.349   4.575  52.519  1.00  0.00     0.128 C 
HETATM    3  C8  UNL     1      23.047   3.130  52.037  1.00  0.00     0.060 C 
HETATM    4  C9  UNL     1      24.362   2.451  51.954  1.00  0.00    -0.025 A 
HETATM    5  C10 UNL     1      25.147   3.285  51.136  1.00  0.00     0.010 A 
HETATM    6  S1  UNL     1      26.702   2.510  51.038  1.00  0.00    -0.072 SA
HETATM    7  C11 UNL     1      26.269   1.134  52.064  1.00  0.00     0.114 A 
HETATM    8  N2  UNL     1      27.037   0.078  52.436  1.00  0.00    -0.234 NA
HETATM    9  C12 UNL     1      26.538  -0.883  53.223  1.00  0.00     0.236 A 
HETATM   10  N3  UNL     1      25.288  -0.685  53.566  1.00  0.00    -0.224 NA
HETATM   11  C13 UNL     1      24.518   0.330  53.220  1.00  0.00     0.139 A 
HETATM   12  C22 UNL     1      24.975   1.351  52.412  1.00  0.00     0.053 A 
HETATM   13  C23 UNL     1      24.682   4.567  50.492  1.00  0.00     0.169 C 
ENDROOT
BRANCH  11  14
HETATM   14  N4  UNL     1      23.169   0.257  53.743  1.00  0.00    -0.363 N 
HETATM   15  H15 UNL     1      22.550   0.891  54.264  1.00  0.00     0.162 HD
BRANCH  14  16
HETATM   16  C14 UNL     1      22.367  -0.931  53.561  1.00  0.00     0.140 C 
BRANCH  16  17
HETATM   17  C15 UNL     1      21.889  -1.530  54.853  1.00  0.00     0.194 C 
BRANCH  17  18
HETATM   18  O1  UNL     1      22.935  -1.787  55.704  1.00  0.00    -0.399 OA
HETATM   19  H19 UNL     1      22.885  -2.750  55.989  1.00  0.00     0.209 HD
ENDBRANCH  17  18
ENDBRANCH  16  17
BRANCH  16  20
HETATM   20  C16 UNL     1      21.147  -0.489  52.801  1.00  0.00    -0.034 A 
HETATM   21  C17 UNL     1      21.240   0.155  51.577  1.00  0.00     0.009 A 
HETATM   22  C18 UNL     1      20.049   0.516  50.967  1.00  0.00     0.001 A 
HETATM   23  C19 UNL     1      18.825   0.255  51.539  1.00  0.00     0.000 A 
HETATM   24  C20 UNL     1      18.723  -0.386  52.756  1.00  0.00     0.001 A 
HETATM   25  C21 UNL     1      19.915  -0.751  53.373  1.00  0.00     0.009 A 
ENDBRANCH  16  20
ENDBRANCH  14  16
ENDBRANCH  11  14
BRANCH   1  26
HETATM   26  C6  UNL     1      23.251   6.480  50.691  1.00  0.00     0.138 C 
BRANCH  26  27
HETATM   27  C5  UNL     1      22.439   6.419  49.646  1.00  0.00    -0.133 C 
BRANCH  27  28
HETATM   28  C4  UNL     1      21.923   6.165  48.450  1.00  0.00     0.073 C 
BRANCH  28  29
HETATM   29  C3  UNL     1      22.275   4.909  47.758  1.00  0.00     0.017 C 
BRANCH  29  30
HETATM   30  C2  UNL     1      21.624   3.783  48.574  1.00  0.00    -0.003 C 
HETATM   31  C1  UNL     1      22.464   2.528  48.364  1.00  0.00     0.005 C 
ENDBRANCH  29  30
ENDBRANCH  28  29
ENDBRANCH  27  28
ENDBRANCH  26  27
ENDBRANCH   1  26
TORSDOF 10
ENDMDL
MODEL 4
REMARK VINA RESULT:      -7.9      3.030      6.876
REMARK  10 active torsions:
REMARK  status: ('A' for Active; 'I' for Inactive)
REMARK    1  A    between atoms: C2_2  and  C3_3 
REMARK    2  A    between atoms: C3_3  and  C4_4 
REMARK    3  A    between atoms: C4_4  and  C5_5 
REMARK    4  A    between atoms: C5_5  and  C6_6 
REMARK    5  A    between atoms: C6_6  and  N1_7 
REMARK    6  A    between atoms: C13_17  and  N4_18 
REMARK    7  A    between atoms: N4_18  and  C14_19 
REMARK    8  A    between atoms: C14_19  and  C15_20 
REMARK    9  A    between atoms: C14_19  and  C16_22 
REMARK   10  A    between atoms: C15_20  and  O1_21 
ROOT
HETATM    1  N1  UNL     1      25.526   4.147  50.238  1.00  0.00    -0.379 N 
HETATM    2  C7  UNL     1      24.459   4.053  51.217  1.00  0.00     0.128 C 
HETATM    3  C8  UNL     1      23.957   2.595  51.041  1.00  0.00     0.060 C 
HETATM    4  C9  UNL     1      24.864   1.756  51.861  1.00  0.00    -0.025 A 
HETATM    5  C10 UNL     1      26.158   2.083  51.416  1.00  0.00     0.010 A 
HETATM    6  S1  UNL     1      27.240   1.117  52.379  1.00  0.00    -0.072 SA
HETATM    7  C11 UNL     1      25.965   0.328  53.321  1.00  0.00     0.114 A 
HETATM    8  N2  UNL     1      26.088  -0.597  54.307  1.00  0.00    -0.234 NA
HETATM    9  C12 UNL     1      25.004  -1.092  54.916  1.00  0.00     0.236 A 
HETATM   10  N3  UNL     1      23.876  -0.599  54.464  1.00  0.00    -0.224 NA
HETATM   11  C13 UNL     1      23.727   0.299  53.508  1.00  0.00     0.139 A 
HETATM   12  C22 UNL     1      24.805   0.847  52.844  1.00  0.00     0.053 A 
HETATM   13  C23 UNL     1      26.483   3.064  50.318  1.00  0.00     0.169 C 
ENDROOT
BRANCH  11  14
HETATM   14  N4  UNL     1      22.347   0.631  53.216  1.00  0.00    -0.363 N 
HETATM   15  H15 UNL     1      21.790   1.494  53.191  1.00  0.00     0.162 HD
BRANCH  14  16
HETATM   16  C14 UNL     1      21.400  -0.397  52.847  1.00  0.00     0.140 C 
BRANCH  16  17
HETATM   17  C15 UNL     1      20.422  -0.725  53.938  1.00  0.00     0.194 C 
BRANCH  17  18
HETATM   18  O1  UNL     1      20.997  -1.507  54.909  1.00  0.00    -0.399 OA
HETATM   19  H19 UNL     1      21.824  -1.932  54.527  1.00  0.00     0.209 HD
ENDBRANCH  17  18
ENDBRANCH  16  17
BRANCH  16  20
HETATM   20  C16 UNL     1      20.609   0.169  51.699  1.00  0.00    -0.034 A 
HETATM   21  C17 UNL     1      21.222   0.649  50.553  1.00  0.00     0.009 A 
HETATM   22  C18 UNL     1      20.393   1.147  49.561  1.00  0.00     0.001 A 
HETATM   23  C19 UNL     1      19.024   1.169  49.694  1.00  0.00     0.000 A 
HETATM   24  C20 UNL     1      18.405   0.692  50.830  1.00  0.00     0.001 A 
HETATM   25  C21 UNL     1      19.232   0.191  51.830  1.00  0.00     0.009 A 
ENDBRANCH  16  20
ENDBRANCH  14  16
ENDBRANCH  11  14
BRANCH   1  26
HETATM   26  C6  UNL     1      25.830   5.086  49.209  1.00  0.00     0.138 C 
BRANCH  26  27
HETATM   27  C5  UNL     1      27.056   5.098  48.704  1.00  0.00    -0.133 C 
BRANCH  27  28
HETATM   28  C4  UNL     1      28.329   5.384  48.463  1.00  0.00     0.073 C 
BRANCH  28  29
HETATM   29  C3  UNL     1      28.677   6.669  47.827  1.00  0.00     0.017 C 
BRANCH  29  30
HETATM   30  C2  UNL     1      30.172   6.580  47.490  1.00  0.00    -0.003 C 
HETATM   31  C1  UNL     1      30.878   6.002  48.711  1.00  0.00     0.005 C 
ENDBRANCH  29  30
ENDBRANCH  28  29
ENDBRANCH  27  28
ENDBRANCH  26  27
ENDBRANCH   1  26
TORSDOF 10
ENDMDL
MODEL 5
REMARK VINA RESULT:      -7.9      2.941      7.453
REMARK  10 active torsions:
REMARK  status: ('A' for Active; 'I' for Inactive)
REMARK    1  A    between atoms: C2_2  and  C3_3 
REMARK    2  A    between atoms: C3_3  and  C4_4 
REMARK    3  A    between atoms: C4_4  and  C5_5 
REMARK    4  A    between atoms: C5_5  and  C6_6 
REMARK    5  A    between atoms: C6_6  and  N1_7 
REMARK    6  A    between atoms: C13_17  and  N4_18 
REMARK    7  A    between atoms: N4_18  and  C14_19 
REMARK    8  A    between atoms: C14_19  and  C15_20 
REMARK    9  A    between atoms: C14_19  and  C16_22 
REMARK   10  A    between atoms: C15_20  and  O1_21 
ROOT
HETATM    1  N1  UNL     1      23.718   5.382  51.491  1.00  0.00    -0.379 N 
HETATM    2  C7  UNL     1      23.400   4.640  52.696  1.00  0.00     0.128 C 
HETATM    3  C8  UNL     1      23.013   3.241  52.146  1.00  0.00     0.060 C 
HETATM    4  C9  UNL     1      24.291   2.512  51.964  1.00  0.00    -0.025 A 
HETATM    5  C10 UNL     1      25.077   3.359  51.160  1.00  0.00     0.010 A 
HETATM    6  S1  UNL     1      26.590   2.526  50.947  1.00  0.00    -0.072 SA
HETATM    7  C11 UNL     1      26.139   1.110  51.910  1.00  0.00     0.114 A 
HETATM    8  N2  UNL     1      26.874   0.002  52.186  1.00  0.00    -0.234 NA
HETATM    9  C12 UNL     1      26.367  -0.981  52.939  1.00  0.00     0.236 A 
HETATM   10  N3  UNL     1      25.143  -0.751  53.349  1.00  0.00    -0.224 NA
HETATM   11  C13 UNL     1      24.406   0.314  53.097  1.00  0.00     0.139 A 
HETATM   12  C22 UNL     1      24.873   1.362  52.330  1.00  0.00     0.053 A 
HETATM   13  C23 UNL     1      24.643   4.696  50.614  1.00  0.00     0.169 C 
ENDROOT
BRANCH  11  14
HETATM   14  N4  UNL     1      23.079   0.269  53.677  1.00  0.00    -0.363 N 
HETATM   15  H15 UNL     1      22.478   0.929  54.185  1.00  0.00     0.162 HD
BRANCH  14  16
HETATM   16  C14 UNL     1      22.276  -0.930  53.595  1.00  0.00     0.140 C 
BRANCH  16  17
HETATM   17  C15 UNL     1      21.884  -1.478  54.938  1.00  0.00     0.194 C 
BRANCH  17  18
HETATM   18  O1  UNL     1      22.984  -1.703  55.728  1.00  0.00    -0.399 OA
HETATM   19  H19 UNL     1      23.778  -1.257  55.302  1.00  0.00     0.209 HD
ENDBRANCH  17  18
ENDBRANCH  16  17
BRANCH  16  20
HETATM   20  C16 UNL     1      21.007  -0.526  52.895  1.00  0.00    -0.034 A 
HETATM   21  C17 UNL     1      19.758  -0.821  53.415  1.00  0.00     0.009 A 
HETATM   22  C18 UNL     1      18.659  -0.400  52.684  1.00  0.00     0.001 A 
HETATM   23  C19 UNL     1      18.788   0.280  51.495  1.00  0.00     0.000 A 
HETATM   24  C20 UNL     1      20.027   0.579  50.969  1.00  0.00     0.001 A 
HETATM   25  C21 UNL     1      21.134   0.159  51.700  1.00  0.00     0.009 A 
ENDBRANCH  16  20
ENDBRANCH  14  16
ENDBRANCH  11  14
BRANCH   1  26
HETATM   26  C6  UNL     1      23.310   6.652  50.987  1.00  0.00     0.138 C 
BRANCH  26  27
HETATM   27  C5  UNL     1      24.200   7.397  50.347  1.00  0.00    -0.133 C 
BRANCH  27  28
HETATM   28  C4  UNL     1      24.966   8.407  49.955  1.00  0.00     0.073 C 
BRANCH  28  29
HETATM   29  C3  UNL     1      26.403   8.178  49.711  1.00  0.00     0.017 C 
BRANCH  29  30
HETATM   30  C2  UNL     1      26.497   7.530  48.323  1.00  0.00    -0.003 C 
HETATM   31  C1  UNL     1      27.305   6.246  48.476  1.00  0.00     0.005 C 
ENDBRANCH  29  30
ENDBRANCH  28  29
ENDBRANCH  27  28
ENDBRANCH  26  27
ENDBRANCH   1  26
TORSDOF 10
ENDMDL
MODEL 6
REMARK VINA RESULT:      -7.9      2.691      6.872
REMARK  10 active torsions:
REMARK  status: ('A' for Active; 'I' for Inactive)
REMARK    1  A    between atoms: C2_2  and  C3_3 
REMARK    2  A    between atoms: C3_3  and  C4_4 
REMARK    3  A    between atoms: C4_4  and  C5_5 
REMARK    4  A    between atoms: C5_5  and  C6_6 
REMARK    5  A    between atoms: C6_6  and  N1_7 
REMARK    6  A    between atoms: C13_17  and  N4_18 
REMARK    7  A    between atoms: N4_18  and  C14_19 
REMARK    8  A    between atoms: C14_19  and  C15_20 
REMARK    9  A    between atoms: C14_19  and  C16_22 
REMARK   10  A    between atoms: C15_20  and  O1_21 
ROOT
HETATM    1  N1  UNL     1      20.796   2.471  51.562  1.00  0.00    -0.379 N 
HETATM    2  C7  UNL     1      22.022   2.380  52.331  1.00  0.00     0.128 C 
HETATM    3  C8  UNL     1      23.004   1.703  51.338  1.00  0.00     0.060 C 
HETATM    4  C9  UNL     1      23.543   2.798  50.497  1.00  0.00    -0.025 A 
HETATM    5  C10 UNL     1      22.408   3.452  49.984  1.00  0.00     0.010 A 
HETATM    6  S1  UNL     1      23.021   4.753  49.004  1.00  0.00    -0.072 SA
HETATM    7  C11 UNL     1      24.730   4.394  49.301  1.00  0.00     0.114 A 
HETATM    8  N2  UNL     1      25.827   5.037  48.826  1.00  0.00    -0.234 NA
HETATM    9  C12 UNL     1      27.056   4.623  49.156  1.00  0.00     0.236 A 
HETATM   10  N3  UNL     1      27.063   3.578  49.948  1.00  0.00    -0.224 NA
HETATM   11  C13 UNL     1      26.014   2.933  50.424  1.00  0.00     0.139 A 
HETATM   12  C22 UNL     1      24.723   3.313  50.122  1.00  0.00     0.053 A 
HETATM   13  C23 UNL     1      20.977   3.056  50.250  1.00  0.00     0.169 C 
ENDROOT
BRANCH  11  14
HETATM   14  N4  UNL     1      26.346   1.798  51.262  1.00  0.00    -0.363 N 
HETATM   15  H15 UNL     1      26.335   0.777  51.151  1.00  0.00     0.162 HD
BRANCH  14  16
HETATM   16  C14 UNL     1      26.832   1.990  52.610  1.00  0.00     0.140 C 
BRANCH  16  17
HETATM   17  C15 UNL     1      25.737   2.027  53.638  1.00  0.00     0.194 C 
BRANCH  17  18
HETATM   18  O1  UNL     1      25.153   3.267  53.704  1.00  0.00    -0.399 OA
HETATM   19  H19 UNL     1      25.804   3.945  53.348  1.00  0.00     0.209 HD
ENDBRANCH  17  18
ENDBRANCH  16  17
BRANCH  16  20
HETATM   20  C16 UNL     1      27.683   0.787  52.913  1.00  0.00    -0.034 A 
HETATM   21  C17 UNL     1      28.959   0.907  53.439  1.00  0.00     0.009 A 
HETATM   22  C18 UNL     1      29.652  -0.269  53.678  1.00  0.00     0.001 A 
HETATM   23  C19 UNL     1      29.110  -1.504  53.410  1.00  0.00     0.000 A 
HETATM   24  C20 UNL     1      27.840  -1.634  52.887  1.00  0.00     0.001 A 
HETATM   25  C21 UNL     1      27.140  -0.456  52.645  1.00  0.00     0.009 A 
ENDBRANCH  16  20
ENDBRANCH  14  16
ENDBRANCH  11  14
BRANCH   1  26
HETATM   26  C6  UNL     1      19.444   2.103  51.827  1.00  0.00     0.138 C 
BRANCH  26  27
HETATM   27  C5  UNL     1      19.044   0.881  51.503  1.00  0.00    -0.133 C 
BRANCH  27  28
HETATM   28  C4  UNL     1      18.305  -0.161  51.146  1.00  0.00     0.073 C 
BRANCH  28  29
HETATM   29  C3  UNL     1      17.361  -0.750  52.116  1.00  0.00     0.017 C 
BRANCH  29  30
HETATM   30  C2  UNL     1      18.212  -1.199  53.312  1.00  0.00    -0.003 C 
HETATM   31  C1  UNL     1      17.834  -2.643  53.621  1.00  0.00     0.005 C 
ENDBRANCH  29  30
ENDBRANCH  28  29
ENDBRANCH  27  28
ENDBRANCH  26  27
ENDBRANCH   1  26
TORSDOF 10
ENDMDL
MODEL 7
REMARK VINA RESULT:      -7.7      2.551      6.222
REMARK  10 active torsions:
REMARK  status: ('A' for Active; 'I' for Inactive)
REMARK    1  A    between atoms: C2_2  and  C3_3 
REMARK    2  A    between atoms: C3_3  and  C4_4 
REMARK    3  A    between atoms: C4_4  and  C5_5 
REMARK    4  A    between atoms: C5_5  and  C6_6 
REMARK    5  A    between atoms: C6_6  and  N1_7 
REMARK    6  A    between atoms: C13_17  and  N4_18 
REMARK    7  A    between atoms: N4_18  and  C14_19 
REMARK    8  A    between atoms: C14_19  and  C15_20 
REMARK    9  A    between atoms: C14_19  and  C16_22 
REMARK   10  A    between atoms: C15_20  and  O1_21 
ROOT
HETATM    1  N1  UNL     1      20.881  -0.737  53.424  1.00  0.00    -0.379 N 
HETATM    2  C7  UNL     1      21.724  -0.679  52.245  1.00  0.00     0.128 C 
HETATM    3  C8  UNL     1      22.596   0.578  52.505  1.00  0.00     0.060 C 
HETATM    4  C9  UNL     1      23.719   0.119  53.357  1.00  0.00    -0.025 A 
HETATM    5  C10 UNL     1      23.105  -0.515  54.453  1.00  0.00     0.010 A 
HETATM    6  S1  UNL     1      24.410  -1.075  55.458  1.00  0.00    -0.072 SA
HETATM    7  C11 UNL     1      25.701  -0.462  54.414  1.00  0.00     0.114 A 
HETATM    8  N2  UNL     1      27.045  -0.544  54.589  1.00  0.00    -0.234 NA
HETATM    9  C12 UNL     1      27.883  -0.017  53.687  1.00  0.00     0.236 A 
HETATM   10  N3  UNL     1      27.274   0.556  52.677  1.00  0.00    -0.224 NA
HETATM   11  C13 UNL     1      25.973   0.651  52.482  1.00  0.00     0.139 A 
HETATM   12  C22 UNL     1      25.059   0.127  53.373  1.00  0.00     0.053 A 
HETATM   13  C23 UNL     1      21.617  -0.643  54.667  1.00  0.00     0.169 C 
ENDROOT
BRANCH  11  14
HETATM   14  N4  UNL     1      25.604   1.364  51.275  1.00  0.00    -0.363 N 
HETATM   15  H15 UNL     1      25.158   1.114  50.384  1.00  0.00     0.162 HD
BRANCH  14  16
HETATM   16  C14 UNL     1      25.854   2.781  51.146  1.00  0.00     0.140 C 
BRANCH  16  17
HETATM   17  C15 UNL     1      26.509   3.155  49.847  1.00  0.00     0.194 C 
BRANCH  17  18
HETATM   18  O1  UNL     1      27.329   4.246  49.995  1.00  0.00    -0.399 OA
HETATM   19  H19 UNL     1      26.883   5.039  49.568  1.00  0.00     0.209 HD
ENDBRANCH  17  18
ENDBRANCH  16  17
BRANCH  16  20
HETATM   20  C16 UNL     1      24.501   3.439  51.164  1.00  0.00    -0.034 A 
HETATM   21  C17 UNL     1      23.723   3.544  50.023  1.00  0.00     0.009 A 
HETATM   22  C18 UNL     1      22.494   4.171  50.158  1.00  0.00     0.001 A 
HETATM   23  C19 UNL     1      22.055   4.669  51.363  1.00  0.00     0.000 A 
HETATM   24  C20 UNL     1      22.823   4.568  52.504  1.00  0.00     0.001 A 
HETATM   25  C21 UNL     1      24.057   3.940  52.374  1.00  0.00     0.009 A 
ENDBRANCH  16  20
ENDBRANCH  14  16
ENDBRANCH  11  14
BRANCH   1  26
HETATM   26  C6  UNL     1      19.475  -0.869  53.618  1.00  0.00     0.138 C 
BRANCH  26  27
HETATM   27  C5  UNL     1      18.662  -0.495  52.640  1.00  0.00    -0.133 C 
BRANCH  27  28
HETATM   28  C4  UNL     1      18.103   0.165  51.634  1.00  0.00     0.073 C 
BRANCH  28  29
HETATM   29  C3  UNL     1      18.946   0.998  50.754  1.00  0.00     0.017 C 
BRANCH  29  30
HETATM   30  C2  UNL     1      19.364   2.211  51.597  1.00  0.00    -0.003 C 
HETATM   31  C1  UNL     1      18.234   3.231  51.515  1.00  0.00     0.005 C 
ENDBRANCH  29  30
ENDBRANCH  28  29
ENDBRANCH  27  28
ENDBRANCH  26  27
ENDBRANCH   1  26
TORSDOF 10
ENDMDL
MODEL 8
REMARK VINA RESULT:      -7.6      4.399      7.009
REMARK  10 active torsions:
REMARK  status: ('A' for Active; 'I' for Inactive)
REMARK    1  A    between atoms: C2_2  and  C3_3 
REMARK    2  A    between atoms: C3_3  and  C4_4 
REMARK    3  A    between atoms: C4_4  and  C5_5 
REMARK    4  A    between atoms: C5_5  and  C6_6 
REMARK    5  A    between atoms: C6_6  and  N1_7 
REMARK    6  A    between atoms: C13_17  and  N4_18 
REMARK    7  A    between atoms: N4_18  and  C14_19 
REMARK    8  A    between atoms: C14_19  and  C15_20 
REMARK    9  A    between atoms: C14_19  and  C16_22 
REMARK   10  A    between atoms: C15_20  and  O1_21 
ROOT
HETATM    1  N1  UNL     1      25.023   3.362  50.191  1.00  0.00    -0.379 N 
HETATM    2  C7  UNL     1      26.404   3.656  50.522  1.00  0.00     0.128 C 
HETATM    3  C8  UNL     1      27.054   3.870  49.128  1.00  0.00     0.060 C 
HETATM    4  C9  UNL     1      26.779   5.282  48.769  1.00  0.00    -0.025 A 
HETATM    5  C10 UNL     1      25.384   5.420  48.892  1.00  0.00     0.010 A 
HETATM    6  S1  UNL     1      25.042   7.077  48.488  1.00  0.00    -0.072 SA
HETATM    7  C11 UNL     1      26.726   7.525  48.176  1.00  0.00     0.114 A 
HETATM    8  N2  UNL     1      27.228   8.728  47.796  1.00  0.00    -0.234 NA
HETATM    9  C12 UNL     1      28.543   8.886  47.602  1.00  0.00     0.236 A 
HETATM   10  N3  UNL     1      29.241   7.795  47.811  1.00  0.00    -0.224 NA
HETATM   11  C13 UNL     1      28.780   6.615  48.180  1.00  0.00     0.139 A 
HETATM   12  C22 UNL     1      27.436   6.389  48.397  1.00  0.00     0.053 A 
HETATM   13  C23 UNL     1      24.428   4.320  49.283  1.00  0.00     0.169 C 
ENDROOT
BRANCH  11  14
HETATM   14  N4  UNL     1      29.800   5.595  48.312  1.00  0.00    -0.363 N 
HETATM   15  H15 UNL     1      29.806   4.573  48.426  1.00  0.00     0.162 HD
BRANCH  14  16
HETATM   16  C14 UNL     1      31.203   5.943  48.289  1.00  0.00     0.140 C 
BRANCH  16  17
HETATM   17  C15 UNL     1      31.776   6.196  49.654  1.00  0.00     0.194 C 
BRANCH  17  18
HETATM   18  O1  UNL     1      31.240   5.346  50.589  1.00  0.00    -0.399 OA
HETATM   19  H19 UNL     1      31.993   4.900  51.083  1.00  0.00     0.209 HD
ENDBRANCH  17  18
ENDBRANCH  16  17
BRANCH  16  20
HETATM   20  C16 UNL     1      31.914   4.742  47.727  1.00  0.00    -0.034 A 
HETATM   21  C17 UNL     1      31.249   3.776  46.989  1.00  0.00     0.009 A 
HETATM   22  C18 UNL     1      32.005   2.713  46.522  1.00  0.00     0.001 A 
HETATM   23  C19 UNL     1      33.354   2.610  46.771  1.00  0.00     0.000 A 
HETATM   24  C20 UNL     1      34.025   3.566  47.504  1.00  0.00     0.001 A 
HETATM   25  C21 UNL     1      33.270   4.635  47.976  1.00  0.00     0.009 A 
ENDBRANCH  16  20
ENDBRANCH  14  16
ENDBRANCH  11  14
BRANCH   1  26
HETATM   26  C6  UNL     1      24.123   2.325  50.575  1.00  0.00     0.138 C 
BRANCH  26  27
HETATM   27  C5  UNL     1      24.390   1.626  51.669  1.00  0.00    -0.133 C 
BRANCH  27  28
HETATM   28  C4  UNL     1      24.752   1.274  52.896  1.00  0.00     0.073 C 
BRANCH  28  29
HETATM   29  C3  UNL     1      26.175   1.016  53.188  1.00  0.00     0.017 C 
BRANCH  29  30
HETATM   30  C2  UNL     1      26.237  -0.410  53.755  1.00  0.00    -0.003 C 
HETATM   31  C1  UNL     1      26.594  -1.341  52.601  1.00  0.00     0.005 C 
ENDBRANCH  29  30
ENDBRANCH  28  29
ENDBRANCH  27  28
ENDBRANCH  26  27
ENDBRANCH   1  26
TORSDOF 10
ENDMDL
MODEL 9
REMARK VINA RESULT:      -7.6      3.014      6.611
REMARK  10 active torsions:
REMARK  status: ('A' for Active; 'I' for Inactive)
REMARK    1  A    between atoms: C2_2  and  C3_3 
REMARK    2  A    between atoms: C3_3  and  C4_4 
REMARK    3  A    between atoms: C4_4  and  C5_5 
REMARK    4  A    between atoms: C5_5  and  C6_6 
REMARK    5  A    between atoms: C6_6  and  N1_7 
REMARK    6  A    between atoms: C13_17  and  N4_18 
REMARK    7  A    between atoms: N4_18  and  C14_19 
REMARK    8  A    between atoms: C14_19  and  C15_20 
REMARK    9  A    between atoms: C14_19  and  C16_22 
REMARK   10  A    between atoms: C15_20  and  O1_21 
ROOT
HETATM    1  N1  UNL     1      25.833   3.022  50.935  1.00  0.00    -0.379 N 
HETATM    2  C7  UNL     1      24.665   3.268  51.759  1.00  0.00     0.128 C 
HETATM    3  C8  UNL     1      23.828   1.975  51.566  1.00  0.00     0.060 C 
HETATM    4  C9  UNL     1      24.377   0.994  52.533  1.00  0.00    -0.025 A 
HETATM    5  C10 UNL     1      25.757   0.952  52.260  1.00  0.00     0.010 A 
HETATM    6  S1  UNL     1      26.422  -0.186  53.397  1.00  0.00    -0.072 SA
HETATM    7  C11 UNL     1      24.879  -0.561  54.181  1.00  0.00     0.114 A 
HETATM    8  N2  UNL     1      24.634  -1.416  55.206  1.00  0.00    -0.234 NA
HETATM    9  C12 UNL     1      23.391  -1.578  55.676  1.00  0.00     0.236 A 
HETATM   10  N3  UNL     1      22.495  -0.850  55.054  1.00  0.00    -0.224 NA
HETATM   11  C13 UNL     1      22.704  -0.012  54.056  1.00  0.00     0.139 A 
HETATM   12  C22 UNL     1      23.962   0.199  53.529  1.00  0.00     0.053 A 
HETATM   13  C23 UNL     1      26.460   1.741  51.184  1.00  0.00     0.169 C 
ENDROOT
BRANCH  11  14
HETATM   14  N4  UNL     1      21.505   0.636  53.564  1.00  0.00    -0.363 N 
HETATM   15  H15 UNL     1      21.011   1.514  53.766  1.00  0.00     0.162 HD
BRANCH  14  16
HETATM   16  C14 UNL     1      20.704   0.024  52.528  1.00  0.00     0.140 C 
BRANCH  16  17
HETATM   17  C15 UNL     1      19.379  -0.483  53.022  1.00  0.00     0.194 C 
BRANCH  17  18
HETATM   18  O1  UNL     1      19.537  -1.395  54.036  1.00  0.00    -0.399 OA
HETATM   19  H19 UNL     1      20.358  -1.943  53.846  1.00  0.00     0.209 HD
ENDBRANCH  17  18
ENDBRANCH  16  17
BRANCH  16  20
HETATM   20  C16 UNL     1      20.418   1.115  51.533  1.00  0.00    -0.034 A 
HETATM   21  C17 UNL     1      20.440   0.885  50.167  1.00  0.00     0.009 A 
HETATM   22  C18 UNL     1      20.160   1.965  49.345  1.00  0.00     0.001 A 
HETATM   23  C19 UNL     1      19.873   3.213  49.849  1.00  0.00     0.000 A 
HETATM   24  C20 UNL     1      19.848   3.451  51.207  1.00  0.00     0.001 A 
HETATM   25  C21 UNL     1      20.128   2.371  52.037  1.00  0.00     0.009 A 
ENDBRANCH  16  20
ENDBRANCH  14  16
ENDBRANCH  11  14
BRANCH   1  26
HETATM   26  C6  UNL     1      26.497   3.780  49.926  1.00  0.00     0.138 C 
BRANCH  26  27
HETATM   27  C5  UNL     1      25.795   4.663  49.231  1.00  0.00    -0.133 C 
BRANCH  27  28
HETATM   28  C4  UNL     1      25.233   5.786  48.802  1.00  0.00     0.073 C 
BRANCH  28  29
HETATM   29  C3  UNL     1      23.761   5.901  48.783  1.00  0.00     0.017 C 
BRANCH  29  30
HETATM   30  C2  UNL     1      23.230   4.474  48.581  1.00  0.00    -0.003 C 
HETATM   31  C1  UNL     1      22.336   4.494  47.346  1.00  0.00     0.005 C 
ENDBRANCH  29  30
ENDBRANCH  28  29
ENDBRANCH  27  28
ENDBRANCH  26  27
ENDBRANCH   1  26
TORSDOF 10
ENDMDL
