MODEL 1
REMARK VINA RESULT:      -7.4      0.000      0.000
REMARK  5 active torsions:
REMARK  status: ('A' for Active; 'I' for Inactive)
REMARK    1  A    between atoms: C3_3  and  C4_4 
REMARK       I    between atoms: C4_4  and  N1_6 
REMARK    2  A    between atoms: N1_6  and  C5_7 
REMARK    3  A    between atoms: C10_14  and  C11_15 
REMARK    4  A    between atoms: C11_15  and  C12_16 
REMARK    5  A    between atoms: C13_17  and  S1_19 
ROOT
HETATM    1  C1  UNL     1      18.004  -1.234  53.055  1.00  0.00     0.112 C 
HETATM    2  C2  UNL     1      19.403  -0.835  53.214  1.00  0.00    -0.101 C 
HETATM    3  C3  UNL     1      20.557  -0.490  53.332  1.00  0.00    -0.006 C 
ENDROOT
BRANCH   3   4
HETATM    4  C4  UNL     1      21.939  -0.091  53.459  1.00  0.00     0.300 C 
HETATM    5  O1  UNL     1      22.186   1.100  53.768  1.00  0.00    -0.258 OA
HETATM    6  N1  UNL     1      23.027  -1.003  53.247  1.00  0.00    -0.316 N 
HETATM    7  H4  UNL     1      22.707  -1.975  52.994  1.00  0.00     0.170 HD
BRANCH   6   8
HETATM    8  C5  UNL     1      24.263  -0.340  53.437  1.00  0.00     0.036 A 
HETATM    9  C6  UNL     1      24.863  -0.605  54.655  1.00  0.00     0.032 A 
HETATM   10  C7  UNL     1      26.077  -0.016  54.957  1.00  0.00     0.035 A 
HETATM   11  C8  UNL     1      26.656   0.823  54.027  1.00  0.00     0.070 A 
HETATM   12  N2  UNL     1      27.840   1.405  54.300  1.00  0.00    -0.241 NA
HETATM   13  C15 UNL     1      26.012   1.050  52.829  1.00  0.00     0.020 A 
HETATM   14  C9  UNL     1      28.437   2.238  53.399  1.00  0.00     0.234 A 
HETATM   15  N3  UNL     1      27.817   2.459  52.243  1.00  0.00    -0.245 NA
HETATM   16  C10 UNL     1      26.622   1.891  51.928  1.00  0.00     0.052 A 
HETATM   17  C16 UNL     1      24.803   0.490  52.479  1.00  0.00     0.045 A 
BRANCH  16  18
HETATM   18  C11 UNL     1      26.073   2.253  50.597  1.00  0.00     0.089 C 
BRANCH  18  19
HETATM   19  C12 UNL     1      26.732   3.483  50.100  1.00  0.00     0.005 C 
HETATM   20  C13 UNL     1      25.944   4.430  49.614  1.00  0.00     0.043 C 
HETATM   21 BR1  UNL     1      24.051   4.211  49.563  1.00  0.00    -0.044 Br
BRANCH  20  22
HETATM   22  S1  UNL     1      26.575   5.978  48.967  1.00  0.00    -0.127 SA
HETATM   23  C14 UNL     1      28.252   5.785  48.331  1.00  0.00     0.096 C 
ENDBRANCH  20  22
ENDBRANCH  18  19
ENDBRANCH  16  18
ENDBRANCH   6   8
ENDBRANCH   3   4
TORSDOF 5
ENDMDL
MODEL 2
REMARK VINA RESULT:      -6.8      2.788      5.439
REMARK  5 active torsions:
REMARK  status: ('A' for Active; 'I' for Inactive)
REMARK    1  A    between atoms: C3_3  and  C4_4 
REMARK       I    between atoms: C4_4  and  N1_6 
REMARK    2  A    between atoms: N1_6  and  C5_7 
REMARK    3  A    between atoms: C10_14  and  C11_15 
REMARK    4  A    between atoms: C11_15  and  C12_16 
REMARK    5  A    between atoms: C13_17  and  S1_19 
ROOT
HETATM    1  C1  UNL     1      30.161  -1.004  53.883  1.00  0.00     0.112 C 
HETATM    2  C2  UNL     1      28.797  -0.510  53.688  1.00  0.00    -0.101 C 
HETATM    3  C3  UNL     1      27.662  -0.118  53.539  1.00  0.00    -0.006 C 
ENDROOT
BRANCH   3   4
HETATM    4  C4  UNL     1      26.306   0.340  53.345  1.00  0.00     0.300 C 
HETATM    5  O1  UNL     1      26.057   1.554  53.541  1.00  0.00    -0.258 OA
HETATM    6  N1  UNL     1      25.247  -0.539  52.940  1.00  0.00    -0.316 N 
HETATM    7  H4  UNL     1      25.566  -1.534  52.801  1.00  0.00     0.170 HD
BRANCH   6   8
HETATM    8  C5  UNL     1      24.032   0.180  52.831  1.00  0.00     0.036 A 
HETATM    9  C6  UNL     1      23.081  -0.174  53.771  1.00  0.00     0.032 A 
HETATM   10  C7  UNL     1      21.852   0.460  53.767  1.00  0.00     0.035 A 
HETATM   11  C8  UNL     1      21.612   1.432  52.818  1.00  0.00     0.070 A 
HETATM   12  N2  UNL     1      20.422   2.064  52.798  1.00  0.00    -0.241 NA
HETATM   13  C15 UNL     1      22.597   1.743  51.906  1.00  0.00     0.020 A 
HETATM   14  C9  UNL     1      20.155   3.031  51.873  1.00  0.00     0.234 A 
HETATM   15  N3  UNL     1      21.105   3.332  50.991  1.00  0.00    -0.245 NA
HETATM   16  C10 UNL     1      22.318   2.720  50.976  1.00  0.00     0.052 A 
HETATM   17  C16 UNL     1      23.836   1.144  51.865  1.00  0.00     0.045 A 
BRANCH  16  18
HETATM   18  C11 UNL     1      23.254   3.177  49.919  1.00  0.00     0.089 C 
BRANCH  18  19
HETATM   19  C12 UNL     1      23.523   4.625  50.079  1.00  0.00     0.005 C 
HETATM   20  C13 UNL     1      24.792   5.004  50.055  1.00  0.00     0.043 C 
HETATM   21 BR1  UNL     1      26.198   3.739  49.824  1.00  0.00    -0.044 Br
BRANCH  20  22
HETATM   22  S1  UNL     1      25.295   6.715  50.239  1.00  0.00    -0.127 SA
HETATM   23  C14 UNL     1      23.922   7.743  50.800  1.00  0.00     0.096 C 
ENDBRANCH  20  22
ENDBRANCH  18  19
ENDBRANCH  16  18
ENDBRANCH   6   8
ENDBRANCH   3   4
TORSDOF 5
ENDMDL
MODEL 3
REMARK VINA RESULT:      -6.6      3.820      6.161
REMARK  5 active torsions:
REMARK  status: ('A' for Active; 'I' for Inactive)
REMARK    1  A    between atoms: C3_3  and  C4_4 
REMARK       I    between atoms: C4_4  and  N1_6 
REMARK    2  A    between atoms: N1_6  and  C5_7 
REMARK    3  A    between atoms: C10_14  and  C11_15 
REMARK    4  A    between atoms: C11_15  and  C12_16 
REMARK    5  A    between atoms: C13_17  and  S1_19 
ROOT
HETATM    1  C1  UNL     1      22.177   8.769  49.511  1.00  0.00     0.112 C 
HETATM    2  C2  UNL     1      22.224   7.468  50.180  1.00  0.00    -0.101 C 
HETATM    3  C3  UNL     1      22.282   6.397  50.740  1.00  0.00    -0.006 C 
ENDROOT
BRANCH   3   4
HETATM    4  C4  UNL     1      22.358   5.112  51.393  1.00  0.00     0.300 C 
HETATM    5  O1  UNL     1      22.622   5.084  52.620  1.00  0.00    -0.258 OA
HETATM    6  N1  UNL     1      22.144   3.877  50.692  1.00  0.00    -0.316 N 
HETATM    7  H4  UNL     1      21.928   4.015  49.670  1.00  0.00     0.170 HD
BRANCH   6   8
HETATM    8  C5  UNL     1      22.282   2.783  51.579  1.00  0.00     0.036 A 
HETATM    9  C6  UNL     1      21.083   2.302  52.073  1.00  0.00     0.032 A 
HETATM   10  C7  UNL     1      21.087   1.232  52.948  1.00  0.00     0.035 A 
HETATM   11  C8  UNL     1      22.297   0.673  53.304  1.00  0.00     0.070 A 
HETATM   12  N2  UNL     1      22.325  -0.373  54.154  1.00  0.00    -0.241 NA
HETATM   13  C15 UNL     1      23.462   1.194  52.780  1.00  0.00     0.020 A 
HETATM   14  C9  UNL     1      23.506  -0.947  54.522  1.00  0.00     0.234 A 
HETATM   15  N3  UNL     1      24.631  -0.446  54.019  1.00  0.00    -0.245 NA
HETATM   16  C10 UNL     1      24.648   0.607  53.158  1.00  0.00     0.052 A 
HETATM   17  C16 UNL     1      23.513   2.257  51.906  1.00  0.00     0.045 A 
BRANCH  16  18
HETATM   18  C11 UNL     1      25.993   1.039  52.700  1.00  0.00     0.089 C 
BRANCH  18  19
HETATM   19  C12 UNL     1      26.969  -0.056  52.911  1.00  0.00     0.005 C 
HETATM   20  C13 UNL     1      28.177   0.293  53.329  1.00  0.00     0.043 C 
HETATM   21 BR1  UNL     1      28.626   2.118  53.642  1.00  0.00    -0.044 Br
BRANCH  20  22
HETATM   22  S1  UNL     1      29.479  -0.902  53.630  1.00  0.00    -0.127 SA
HETATM   23  C14 UNL     1      28.957  -2.567  53.173  1.00  0.00     0.096 C 
ENDBRANCH  20  22
ENDBRANCH  18  19
ENDBRANCH  16  18
ENDBRANCH   6   8
ENDBRANCH   3   4
TORSDOF 5
ENDMDL
MODEL 4
REMARK VINA RESULT:      -6.6      3.797      5.873
REMARK  5 active torsions:
REMARK  status: ('A' for Active; 'I' for Inactive)
REMARK    1  A    between atoms: C3_3  and  C4_4 
REMARK       I    between atoms: C4_4  and  N1_6 
REMARK    2  A    between atoms: N1_6  and  C5_7 
REMARK    3  A    between atoms: C10_14  and  C11_15 
REMARK    4  A    between atoms: C11_15  and  C12_16 
REMARK    5  A    between atoms: C13_17  and  S1_19 
ROOT
HETATM    1  C1  UNL     1      20.645   4.068  45.788  1.00  0.00     0.112 C 
HETATM    2  C2  UNL     1      20.850   3.401  47.074  1.00  0.00    -0.101 C 
HETATM    3  C3  UNL     1      21.016   2.830  48.129  1.00  0.00    -0.006 C 
ENDROOT
BRANCH   3   4
HETATM    4  C4  UNL     1      21.195   2.152  49.391  1.00  0.00     0.300 C 
HETATM    5  O1  UNL     1      21.335   0.905  49.379  1.00  0.00    -0.258 OA
HETATM    6  N1  UNL     1      21.220   2.851  50.644  1.00  0.00    -0.316 N 
HETATM    7  H4  UNL     1      21.095   3.892  50.539  1.00  0.00     0.170 HD
BRANCH   6   8
HETATM    8  C5  UNL     1      21.408   1.937  51.708  1.00  0.00     0.036 A 
HETATM    9  C6  UNL     1      20.258   1.658  52.423  1.00  0.00     0.032 A 
HETATM   10  C7  UNL     1      20.315   0.776  53.487  1.00  0.00     0.035 A 
HETATM   11  C8  UNL     1      21.527   0.199  53.804  1.00  0.00     0.070 A 
HETATM   12  N2  UNL     1      21.604  -0.665  54.836  1.00  0.00    -0.241 NA
HETATM   13  C15 UNL     1      22.641   0.514  53.057  1.00  0.00     0.020 A 
HETATM   14  C9  UNL     1      22.788  -1.253  55.172  1.00  0.00     0.234 A 
HETATM   15  N3  UNL     1      23.866  -0.949  54.452  1.00  0.00    -0.245 NA
HETATM   16  C10 UNL     1      23.831  -0.084  53.404  1.00  0.00     0.052 A 
HETATM   17  C16 UNL     1      22.640   1.384  51.988  1.00  0.00     0.045 A 
BRANCH  16  18
HETATM   18  C11 UNL     1      25.127   0.142  52.716  1.00  0.00     0.089 C 
BRANCH  18  19
HETATM   19  C12 UNL     1      26.241  -0.285  53.595  1.00  0.00     0.005 C 
HETATM   20  C13 UNL     1      27.317   0.489  53.615  1.00  0.00     0.043 C 
HETATM   21 BR1  UNL     1      27.415   2.073  52.561  1.00  0.00    -0.044 Br
BRANCH  20  22
HETATM   22  S1  UNL     1      28.756   0.120  54.618  1.00  0.00    -0.127 SA
HETATM   23  C14 UNL     1      29.899  -0.970  53.744  1.00  0.00     0.096 C 
ENDBRANCH  20  22
ENDBRANCH  18  19
ENDBRANCH  16  18
ENDBRANCH   6   8
ENDBRANCH   3   4
TORSDOF 5
ENDMDL
MODEL 5
REMARK VINA RESULT:      -6.6      2.961      6.858
REMARK  5 active torsions:
REMARK  status: ('A' for Active; 'I' for Inactive)
REMARK    1  A    between atoms: C3_3  and  C4_4 
REMARK       I    between atoms: C4_4  and  N1_6 
REMARK    2  A    between atoms: N1_6  and  C5_7 
REMARK    3  A    between atoms: C10_14  and  C11_15 
REMARK    4  A    between atoms: C11_15  and  C12_16 
REMARK    5  A    between atoms: C13_17  and  S1_19 
ROOT
HETATM    1  C1  UNL     1      28.493   6.310  47.772  1.00  0.00     0.112 C 
HETATM    2  C2  UNL     1      27.748   5.339  48.576  1.00  0.00    -0.101 C 
HETATM    3  C3  UNL     1      27.146   4.521  49.234  1.00  0.00    -0.006 C 
ENDROOT
BRANCH   3   4
HETATM    4  C4  UNL     1      26.415   3.543  50.005  1.00  0.00     0.300 C 
HETATM    5  O1  UNL     1      25.472   2.932  49.446  1.00  0.00    -0.258 OA
HETATM    6  N1  UNL     1      26.730   3.249  51.374  1.00  0.00    -0.316 N 
HETATM    7  H4  UNL     1      27.538   3.817  51.743  1.00  0.00     0.170 HD
BRANCH   6   8
HETATM    8  C5  UNL     1      25.853   2.256  51.874  1.00  0.00     0.036 A 
HETATM    9  C6  UNL     1      26.475   1.062  52.187  1.00  0.00     0.032 A 
HETATM   10  C7  UNL     1      25.723   0.014  52.687  1.00  0.00     0.035 A 
HETATM   11  C8  UNL     1      24.366   0.196  52.857  1.00  0.00     0.070 A 
HETATM   12  N2  UNL     1      23.615  -0.811  53.345  1.00  0.00    -0.241 NA
HETATM   13  C15 UNL     1      23.801   1.409  52.528  1.00  0.00     0.020 A 
HETATM   14  C9  UNL     1      22.271  -0.660  53.527  1.00  0.00     0.234 A 
HETATM   15  N3  UNL     1      21.723   0.510  53.208  1.00  0.00    -0.245 NA
HETATM   16  C10 UNL     1      22.444   1.551  52.715  1.00  0.00     0.052 A 
HETATM   17  C16 UNL     1      24.503   2.483  52.027  1.00  0.00     0.045 A 
BRANCH  16  18
HETATM   18  C11 UNL     1      21.669   2.780  52.409  1.00  0.00     0.089 C 
BRANCH  18  19
HETATM   19  C12 UNL     1      20.330   2.412  51.894  1.00  0.00     0.005 C 
HETATM   20  C13 UNL     1      20.140   2.524  50.588  1.00  0.00     0.043 C 
HETATM   21 BR1  UNL     1      21.531   3.129  49.435  1.00  0.00    -0.044 Br
BRANCH  20  22
HETATM   22  S1  UNL     1      18.580   2.126  49.799  1.00  0.00    -0.127 SA
HETATM   23  C14 UNL     1      17.309   1.743  51.021  1.00  0.00     0.096 C 
ENDBRANCH  20  22
ENDBRANCH  18  19
ENDBRANCH  16  18
ENDBRANCH   6   8
ENDBRANCH   3   4
TORSDOF 5
ENDMDL
MODEL 6
REMARK VINA RESULT:      -6.4      3.020      6.169
REMARK  5 active torsions:
REMARK  status: ('A' for Active; 'I' for Inactive)
REMARK    1  A    between atoms: C3_3  and  C4_4 
REMARK       I    between atoms: C4_4  and  N1_6 
REMARK    2  A    between atoms: N1_6  and  C5_7 
REMARK    3  A    between atoms: C10_14  and  C11_15 
REMARK    4  A    between atoms: C11_15  and  C12_16 
REMARK    5  A    between atoms: C13_17  and  S1_19 
ROOT
HETATM    1  C1  UNL     1      29.463   0.790  54.105  1.00  0.00     0.112 C 
HETATM    2  C2  UNL     1      28.013   0.674  53.937  1.00  0.00    -0.101 C 
HETATM    3  C3  UNL     1      26.814   0.565  53.815  1.00  0.00    -0.006 C 
ENDROOT
BRANCH   3   4
HETATM    4  C4  UNL     1      25.386   0.420  53.658  1.00  0.00     0.300 C 
HETATM    5  O1  UNL     1      24.708   1.451  53.430  1.00  0.00    -0.258 OA
HETATM    6  N1  UNL     1      24.725  -0.850  53.751  1.00  0.00    -0.316 N 
HETATM    7  H4  UNL     1      25.388  -1.647  53.942  1.00  0.00     0.170 HD
BRANCH   6   8
HETATM    8  C5  UNL     1      23.332  -0.691  53.557  1.00  0.00     0.036 A 
HETATM    9  C6  UNL     1      22.563  -1.091  54.634  1.00  0.00     0.032 A 
HETATM   10  C7  UNL     1      21.186  -0.982  54.565  1.00  0.00     0.035 A 
HETATM   11  C8  UNL     1      20.620  -0.474  53.415  1.00  0.00     0.070 A 
HETATM   12  N2  UNL     1      19.280  -0.357  53.327  1.00  0.00    -0.241 NA
HETATM   13  C15 UNL     1      21.436  -0.091  52.372  1.00  0.00     0.020 A 
HETATM   14  C9  UNL     1      18.691   0.143  52.203  1.00  0.00     0.234 A 
HETATM   15  N3  UNL     1      19.477   0.512  51.194  1.00  0.00    -0.245 NA
HETATM   16  C10 UNL     1      20.832   0.412  51.242  1.00  0.00     0.052 A 
HETATM   17  C16 UNL     1      22.811  -0.178  52.388  1.00  0.00     0.045 A 
BRANCH  16  18
HETATM   18  C11 UNL     1      21.551   0.866  50.025  1.00  0.00     0.089 C 
BRANCH  18  19
HETATM   19  C12 UNL     1      21.061   2.206  49.624  1.00  0.00     0.005 C 
HETATM   20  C13 UNL     1      21.958   3.180  49.576  1.00  0.00     0.043 C 
HETATM   21 BR1  UNL     1      23.788   2.862  50.002  1.00  0.00    -0.044 Br
BRANCH  20  22
HETATM   22  S1  UNL     1      21.537   4.861  49.115  1.00  0.00    -0.127 SA
HETATM   23  C14 UNL     1      19.773   5.020  48.768  1.00  0.00     0.096 C 
ENDBRANCH  20  22
ENDBRANCH  18  19
ENDBRANCH  16  18
ENDBRANCH   6   8
ENDBRANCH   3   4
TORSDOF 5
ENDMDL
MODEL 7
REMARK VINA RESULT:      -6.0      3.642      6.025
REMARK  5 active torsions:
REMARK  status: ('A' for Active; 'I' for Inactive)
REMARK    1  A    between atoms: C3_3  and  C4_4 
REMARK       I    between atoms: C4_4  and  N1_6 
REMARK    2  A    between atoms: N1_6  and  C5_7 
REMARK    3  A    between atoms: C10_14  and  C11_15 
REMARK    4  A    between atoms: C11_15  and  C12_16 
REMARK    5  A    between atoms: C13_17  and  S1_19 
ROOT
HETATM    1  C1  UNL     1      15.712   4.215  47.712  1.00  0.00     0.112 C 
HETATM    2  C2  UNL     1      16.507   3.463  48.685  1.00  0.00    -0.101 C 
HETATM    3  C3  UNL     1      17.152   2.824  49.485  1.00  0.00    -0.006 C 
ENDROOT
BRANCH   3   4
HETATM    4  C4  UNL     1      17.910   2.067  50.453  1.00  0.00     0.300 C 
HETATM    5  O1  UNL     1      18.145   2.596  51.567  1.00  0.00    -0.258 OA
HETATM    6  N1  UNL     1      18.399   0.745  50.186  1.00  0.00    -0.316 N 
HETATM    7  H4  UNL     1      18.144   0.397  49.223  1.00  0.00     0.170 HD
BRANCH   6   8
HETATM    8  C5  UNL     1      19.105   0.249  51.308  1.00  0.00     0.036 A 
HETATM    9  C6  UNL     1      18.323  -0.464  52.197  1.00  0.00     0.032 A 
HETATM   10  C7  UNL     1      18.900  -1.000  53.334  1.00  0.00     0.035 A 
HETATM   11  C8  UNL     1      20.250  -0.806  53.545  1.00  0.00     0.070 A 
HETATM   12  N2  UNL     1      20.834  -1.322  54.644  1.00  0.00    -0.241 NA
HETATM   13  C15 UNL     1      20.980  -0.086  52.623  1.00  0.00     0.020 A 
HETATM   14  C9  UNL     1      22.166  -1.147  54.879  1.00  0.00     0.234 A 
HETATM   15  N3  UNL     1      22.873  -0.452  53.991  1.00  0.00    -0.245 NA
HETATM   16  C10 UNL     1      22.324   0.084  52.869  1.00  0.00     0.052 A 
HETATM   17  C16 UNL     1      20.455   0.469  51.477  1.00  0.00     0.045 A 
BRANCH  16  18
HETATM   18  C11 UNL     1      23.260   0.833  51.993  1.00  0.00     0.089 C 
BRANCH  18  19
HETATM   19  C12 UNL     1      24.638   0.729  52.527  1.00  0.00     0.005 C 
HETATM   20  C13 UNL     1      25.175   1.838  53.013  1.00  0.00     0.043 C 
HETATM   21 BR1  UNL     1      24.213   3.483  53.020  1.00  0.00    -0.044 Br
BRANCH  20  22
HETATM   22  S1  UNL     1      26.833   1.893  53.693  1.00  0.00    -0.127 SA
HETATM   23  C14 UNL     1      27.245   0.351  54.534  1.00  0.00     0.096 C 
ENDBRANCH  20  22
ENDBRANCH  18  19
ENDBRANCH  16  18
ENDBRANCH   6   8
ENDBRANCH   3   4
TORSDOF 5
ENDMDL
MODEL 8
REMARK VINA RESULT:      -6.0      5.792      9.841
REMARK  5 active torsions:
REMARK  status: ('A' for Active; 'I' for Inactive)
REMARK    1  A    between atoms: C3_3  and  C4_4 
REMARK       I    between atoms: C4_4  and  N1_6 
REMARK    2  A    between atoms: N1_6  and  C5_7 
REMARK    3  A    between atoms: C10_14  and  C11_15 
REMARK    4  A    between atoms: C11_15  and  C12_16 
REMARK    5  A    between atoms: C13_17  and  S1_19 
ROOT
HETATM    1  C1  UNL     1      34.332   2.945  46.773  1.00  0.00     0.112 C 
HETATM    2  C2  UNL     1      33.289   3.848  47.263  1.00  0.00    -0.101 C 
HETATM    3  C3  UNL     1      32.418   4.595  47.648  1.00  0.00    -0.006 C 
ENDROOT
BRANCH   3   4
HETATM    4  C4  UNL     1      31.391   5.500  48.105  1.00  0.00     0.300 C 
HETATM    5  O1  UNL     1      31.040   5.440  49.308  1.00  0.00    -0.258 OA
HETATM    6  N1  UNL     1      30.766   6.457  47.237  1.00  0.00    -0.316 N 
HETATM    7  H4  UNL     1      31.136   6.423  46.250  1.00  0.00     0.170 HD
BRANCH   6   8
HETATM    8  C5  UNL     1      29.800   7.206  47.951  1.00  0.00     0.036 A 
HETATM    9  C6  UNL     1      30.267   8.414  48.434  1.00  0.00     0.032 A 
HETATM   10  C7  UNL     1      29.416   9.238  49.148  1.00  0.00     0.035 A 
HETATM   11  C8  UNL     1      28.116   8.824  49.356  1.00  0.00     0.070 A 
HETATM   12  N2  UNL     1      27.268   9.611  50.047  1.00  0.00    -0.241 NA
HETATM   13  C15 UNL     1      27.705   7.608  48.851  1.00  0.00     0.020 A 
HETATM   14  C9  UNL     1      25.978   9.229  50.268  1.00  0.00     0.234 A 
HETATM   15  N3  UNL     1      25.579   8.056  49.782  1.00  0.00    -0.245 NA
HETATM   16  C10 UNL     1      26.401   7.232  49.080  1.00  0.00     0.052 A 
HETATM   17  C16 UNL     1      28.512   6.752  48.135  1.00  0.00     0.045 A 
BRANCH  16  18
HETATM   18  C11 UNL     1      25.791   5.960  48.617  1.00  0.00     0.089 C 
BRANCH  18  19
HETATM   19  C12 UNL     1      25.385   5.146  49.786  1.00  0.00     0.005 C 
HETATM   20  C13 UNL     1      24.165   4.628  49.759  1.00  0.00     0.043 C 
HETATM   21 BR1  UNL     1      22.998   4.923  48.282  1.00  0.00    -0.044 Br
BRANCH  20  22
HETATM   22  S1  UNL     1      23.511   3.622  51.091  1.00  0.00    -0.127 SA
HETATM   23  C14 UNL     1      23.443   4.549  52.637  1.00  0.00     0.096 C 
ENDBRANCH  20  22
ENDBRANCH  18  19
ENDBRANCH  16  18
ENDBRANCH   6   8
ENDBRANCH   3   4
TORSDOF 5
ENDMDL
MODEL 9
REMARK VINA RESULT:      -5.9      2.196      2.603
REMARK  5 active torsions:
REMARK  status: ('A' for Active; 'I' for Inactive)
REMARK    1  A    between atoms: C3_3  and  C4_4 
REMARK       I    between atoms: C4_4  and  N1_6 
REMARK    2  A    between atoms: N1_6  and  C5_7 
REMARK    3  A    between atoms: C10_14  and  C11_15 
REMARK    4  A    between atoms: C11_15  and  C12_16 
REMARK    5  A    between atoms: C13_17  and  S1_19 
ROOT
HETATM    1  C1  UNL     1      15.898   1.170  51.467  1.00  0.00     0.112 C 
HETATM    2  C2  UNL     1      17.344   1.147  51.692  1.00  0.00    -0.101 C 
HETATM    3  C3  UNL     1      18.538   1.146  51.889  1.00  0.00    -0.006 C 
ENDROOT
BRANCH   3   4
HETATM    4  C4  UNL     1      19.965   1.155  52.110  1.00  0.00     0.300 C 
HETATM    5  O1  UNL     1      20.436   1.998  52.912  1.00  0.00    -0.258 OA
HETATM    6  N1  UNL     1      20.852   0.241  51.448  1.00  0.00    -0.316 N 
HETATM    7  H4  UNL     1      20.353  -0.423  50.799  1.00  0.00     0.170 HD
BRANCH   6   8
HETATM    8  C5  UNL     1      22.188   0.479  51.852  1.00  0.00     0.036 A 
HETATM    9  C6  UNL     1      22.591  -0.273  52.941  1.00  0.00     0.032 A 
HETATM   10  C7  UNL     1      23.877  -0.130  53.428  1.00  0.00     0.035 A 
HETATM   11  C8  UNL     1      24.724   0.765  52.808  1.00  0.00     0.070 A 
HETATM   12  N2  UNL     1      25.982   0.919  53.265  1.00  0.00    -0.241 NA
HETATM   13  C15 UNL     1      24.268   1.488  51.726  1.00  0.00     0.020 A 
HETATM   14  C9  UNL     1      26.843   1.794  52.671  1.00  0.00     0.234 A 
HETATM   15  N3  UNL     1      26.405   2.494  51.627  1.00  0.00    -0.245 NA
HETATM   16  C10 UNL     1      25.144   2.369  51.134  1.00  0.00     0.052 A 
HETATM   17  C16 UNL     1      22.998   1.384  51.202  1.00  0.00     0.045 A 
BRANCH  16  18
HETATM   18  C11 UNL     1      24.824   3.231  49.969  1.00  0.00     0.089 C 
BRANCH  18  19
HETATM   19  C12 UNL     1      24.472   4.593  50.434  1.00  0.00     0.005 C 
HETATM   20  C13 UNL     1      25.249   5.584  50.023  1.00  0.00     0.043 C 
HETATM   21 BR1  UNL     1      26.745   5.262  48.887  1.00  0.00    -0.044 Br
BRANCH  20  22
HETATM   22  S1  UNL     1      24.971   7.291  50.494  1.00  0.00    -0.127 SA
HETATM   23  C14 UNL     1      25.132   8.394  49.075  1.00  0.00     0.096 C 
ENDBRANCH  20  22
ENDBRANCH  18  19
ENDBRANCH  16  18
ENDBRANCH   6   8
ENDBRANCH   3   4
TORSDOF 5
ENDMDL
