MODEL 1
REMARK VINA RESULT:      -8.3      0.000      0.000
REMARK  2 active torsions:
REMARK  status: ('A' for Active; 'I' for Inactive)
REMARK    1  A    between atoms: O1_2  and  C2_3 
REMARK    2  A    between atoms: C6_9  and  N3_10 
ROOT
HETATM    1  C2  UNL     1      21.798   2.326  51.914  1.00  0.00     0.106 A 
HETATM    2  C3  UNL     1      21.231   1.459  52.825  1.00  0.00     0.072 A 
HETATM    3  C4  UNL     1      22.006   0.537  53.521  1.00  0.00     0.077 A 
HETATM    4  N1  UNL     1      21.541  -0.328  54.430  1.00  0.00    -0.241 NA
HETATM    5  C5  UNL     1      22.449  -1.154  55.028  1.00  0.00     0.236 A 
HETATM    6  N2  UNL     1      23.791  -1.180  54.782  1.00  0.00    -0.223 NA
HETATM    7  C6  UNL     1      24.228  -0.283  53.849  1.00  0.00     0.146 A 
HETATM    8  C12 UNL     1      23.345   0.569  53.226  1.00  0.00     0.075 A 
HETATM    9  C13 UNL     1      23.955   1.406  52.335  1.00  0.00     0.121 A 
HETATM   10  C14 UNL     1      23.164   2.317  51.652  1.00  0.00     0.136 A 
HETATM   11  O2  UNL     1      23.709   3.201  50.729  1.00  0.00    -0.344 OA
HETATM   12  C15 UNL     1      25.011   2.947  50.198  1.00  0.00     0.202 C 
HETATM   13  C16 UNL     1      25.876   2.515  51.370  1.00  0.00     0.202 C 
HETATM   14  O3  UNL     1      25.293   1.425  52.059  1.00  0.00    -0.345 OA
ENDROOT
BRANCH   7  15
HETATM   15  N3  UNL     1      25.639  -0.495  53.668  1.00  0.00    -0.337 N 
HETATM   16  C7  UNL     1      26.352   0.242  54.684  1.00  0.00     0.094 A 
HETATM   17  C8  UNL     1      27.679   0.262  54.750  1.00  0.00     0.041 A 
HETATM   18  C9  UNL     1      28.488  -0.473  53.785  1.00  0.00     0.033 A 
HETATM   19 CL1  UNL     1      30.229  -0.544  53.730  1.00  0.00    -0.085 Cl
HETATM   20  C10 UNL     1      27.778  -1.133  52.884  1.00  0.00     0.017 A 
HETATM   21  C11 UNL     1      26.317  -1.282  52.654  1.00  0.00     0.159 A 
ENDBRANCH   7  15
BRANCH   1  22
HETATM   22  O1  UNL     1      21.031   3.249  51.216  1.00  0.00    -0.353 OA
HETATM   23  C1  UNL     1      19.786   3.719  51.682  1.00  0.00     0.210 C 
ENDBRANCH   1  22
TORSDOF 2
ENDMDL
MODEL 2
REMARK VINA RESULT:      -7.6      2.648      3.988
REMARK  2 active torsions:
REMARK  status: ('A' for Active; 'I' for Inactive)
REMARK    1  A    between atoms: O1_2  and  C2_3 
REMARK    2  A    between atoms: C6_9  and  N3_10 
ROOT
HETATM    1  C2  UNL     1      20.283   0.320  51.723  1.00  0.00     0.106 A 
HETATM    2  C3  UNL     1      20.577   1.175  50.681  1.00  0.00     0.072 A 
HETATM    3  C4  UNL     1      21.849   1.721  50.534  1.00  0.00     0.077 A 
HETATM    4  N1  UNL     1      22.222   2.546  49.549  1.00  0.00    -0.241 NA
HETATM    5  C5  UNL     1      23.518   2.975  49.551  1.00  0.00     0.236 A 
HETATM    6  N2  UNL     1      24.470   2.642  50.471  1.00  0.00    -0.223 NA
HETATM    7  C6  UNL     1      24.052   1.800  51.461  1.00  0.00     0.146 A 
HETATM    8  C12 UNL     1      22.754   1.342  51.492  1.00  0.00     0.075 A 
HETATM    9  C13 UNL     1      22.515   0.499  52.541  1.00  0.00     0.121 A 
HETATM   10  C14 UNL     1      21.241  -0.034  52.668  1.00  0.00     0.136 A 
HETATM   11  O2  UNL     1      20.918  -0.897  53.707  1.00  0.00    -0.344 OA
HETATM   12  C15 UNL     1      21.766  -0.962  54.856  1.00  0.00     0.202 C 
HETATM   13  C16 UNL     1      23.194  -0.974  54.335  1.00  0.00     0.202 C 
HETATM   14  O3  UNL     1      23.434   0.129  53.481  1.00  0.00    -0.345 OA
ENDROOT
BRANCH   7  15
HETATM   15  N3  UNL     1      25.152   1.613  52.368  1.00  0.00    -0.337 N 
HETATM   16  C7  UNL     1      25.974   0.531  51.883  1.00  0.00     0.094 A 
HETATM   17  C8  UNL     1      27.052   0.107  52.535  1.00  0.00     0.041 A 
HETATM   18  C9  UNL     1      27.461   0.729  53.789  1.00  0.00     0.033 A 
HETATM   19 CL1  UNL     1      28.837   0.291  54.763  1.00  0.00    -0.085 Cl
HETATM   20  C10 UNL     1      26.672   1.718  54.178  1.00  0.00     0.017 A 
HETATM   21  C11 UNL     1      25.450   2.331  53.594  1.00  0.00     0.159 A 
ENDBRANCH   7  15
BRANCH   1  22
HETATM   22  O1  UNL     1      19.017  -0.229  51.876  1.00  0.00    -0.353 OA
HETATM   23  C1  UNL     1      17.975  -0.019  50.951  1.00  0.00     0.210 C 
ENDBRANCH   1  22
TORSDOF 2
ENDMDL
MODEL 3
REMARK VINA RESULT:      -7.5      3.658      6.774
REMARK  2 active torsions:
REMARK  status: ('A' for Active; 'I' for Inactive)
REMARK    1  A    between atoms: O1_2  and  C2_3 
REMARK    2  A    between atoms: C6_9  and  N3_10 
ROOT
HETATM    1  C2  UNL     1      26.389   0.391  53.373  1.00  0.00     0.106 A 
HETATM    2  C3  UNL     1      27.030   1.223  52.478  1.00  0.00     0.072 A 
HETATM    3  C4  UNL     1      26.311   1.996  51.571  1.00  0.00     0.077 A 
HETATM    4  N1  UNL     1      26.851   2.837  50.681  1.00  0.00    -0.241 NA
HETATM    5  C5  UNL     1      25.992   3.528  49.875  1.00  0.00     0.236 A 
HETATM    6  N2  UNL     1      24.630   3.438  49.892  1.00  0.00    -0.223 NA
HETATM    7  C6  UNL     1      24.117   2.570  50.813  1.00  0.00     0.146 A 
HETATM    8  C12 UNL     1      24.949   1.857  51.646  1.00  0.00     0.075 A 
HETATM    9  C13 UNL     1      24.267   1.049  52.512  1.00  0.00     0.121 A 
HETATM   10  C14 UNL     1      25.003   0.288  53.408  1.00  0.00     0.136 A 
HETATM   11  O2  UNL     1      24.383  -0.558  54.319  1.00  0.00    -0.344 OA
HETATM   12  C15 UNL     1      23.021  -0.938  54.110  1.00  0.00     0.202 C 
HETATM   13  C16 UNL     1      22.283   0.323  53.690  1.00  0.00     0.202 C 
HETATM   14  O3  UNL     1      22.907   0.929  52.574  1.00  0.00    -0.345 OA
ENDROOT
BRANCH   7  15
HETATM   15  N3  UNL     1      22.689   2.551  50.646  1.00  0.00    -0.337 N 
HETATM   16  C7  UNL     1      22.355   1.597  49.616  1.00  0.00     0.094 A 
HETATM   17  C8  UNL     1      21.104   1.384  49.220  1.00  0.00     0.041 A 
HETATM   18  C9  UNL     1      19.995   2.115  49.820  1.00  0.00     0.033 A 
HETATM   19 CL1  UNL     1      18.308   1.957  49.412  1.00  0.00    -0.085 Cl
HETATM   20  C10 UNL     1      20.363   2.969  50.761  1.00  0.00     0.017 A 
HETATM   21  C11 UNL     1      21.683   3.337  51.338  1.00  0.00     0.159 A 
ENDBRANCH   7  15
BRANCH   1  22
HETATM   22  O1  UNL     1      27.099  -0.382  54.281  1.00  0.00    -0.353 OA
HETATM   23  C1  UNL     1      28.375  -0.023  54.760  1.00  0.00     0.210 C 
ENDBRANCH   1  22
TORSDOF 2
ENDMDL
MODEL 4
REMARK VINA RESULT:      -7.4      3.370      5.940
REMARK  2 active torsions:
REMARK  status: ('A' for Active; 'I' for Inactive)
REMARK    1  A    between atoms: O1_2  and  C2_3 
REMARK    2  A    between atoms: C6_9  and  N3_10 
ROOT
HETATM    1  C2  UNL     1      26.882   1.655  52.462  1.00  0.00     0.106 A 
HETATM    2  C3  UNL     1      26.257   0.739  53.281  1.00  0.00     0.072 A 
HETATM    3  C4  UNL     1      24.893   0.484  53.169  1.00  0.00     0.077 A 
HETATM    4  N1  UNL     1      24.212  -0.396  53.911  1.00  0.00    -0.241 NA
HETATM    5  C5  UNL     1      22.877  -0.528  53.655  1.00  0.00     0.236 A 
HETATM    6  N2  UNL     1      22.171   0.159  52.709  1.00  0.00    -0.223 NA
HETATM    7  C6  UNL     1      22.901   1.048  51.972  1.00  0.00     0.146 A 
HETATM    8  C12 UNL     1      24.249   1.208  52.198  1.00  0.00     0.075 A 
HETATM    9  C13 UNL     1      24.821   2.125  51.362  1.00  0.00     0.121 A 
HETATM   10  C14 UNL     1      26.181   2.363  51.491  1.00  0.00     0.136 A 
HETATM   11  O2  UNL     1      26.836   3.281  50.679  1.00  0.00    -0.344 OA
HETATM   12  C15 UNL     1      26.073   4.252  49.960  1.00  0.00     0.202 C 
HETATM   13  C16 UNL     1      24.875   3.515  49.383  1.00  0.00     0.202 C 
HETATM   14  O3  UNL     1      24.162   2.832  50.396  1.00  0.00    -0.345 OA
ENDROOT
BRANCH   7  15
HETATM   15  N3  UNL     1      21.995   1.724  51.083  1.00  0.00    -0.337 N 
HETATM   16  C7  UNL     1      21.762   0.884  49.933  1.00  0.00     0.094 A 
HETATM   17  C8  UNL     1      20.986   1.260  48.921  1.00  0.00     0.041 A 
HETATM   18  C9  UNL     1      20.324   2.559  48.929  1.00  0.00     0.033 A 
HETATM   19 CL1  UNL     1      19.286   3.201  47.685  1.00  0.00    -0.085 Cl
HETATM   20  C10 UNL     1      20.571   3.280  50.011  1.00  0.00     0.017 A 
HETATM   21  C11 UNL     1      21.388   3.034  51.229  1.00  0.00     0.159 A 
ENDBRANCH   7  15
BRANCH   1  22
HETATM   22  O1  UNL     1      28.242   1.915  52.568  1.00  0.00    -0.353 OA
HETATM   23  C1  UNL     1      28.837   2.411  53.745  1.00  0.00     0.210 C 
ENDBRANCH   1  22
TORSDOF 2
ENDMDL
MODEL 5
REMARK VINA RESULT:      -7.0      3.196      5.934
REMARK  2 active torsions:
REMARK  status: ('A' for Active; 'I' for Inactive)
REMARK    1  A    between atoms: O1_2  and  C2_3 
REMARK    2  A    between atoms: C6_9  and  N3_10 
ROOT
HETATM    1  C2  UNL     1      25.483   0.294  53.250  1.00  0.00     0.106 A 
HETATM    2  C3  UNL     1      24.693  -0.528  54.027  1.00  0.00     0.072 A 
HETATM    3  C4  UNL     1      23.309  -0.543  53.884  1.00  0.00     0.077 A 
HETATM    4  N1  UNL     1      22.472  -1.317  54.585  1.00  0.00    -0.241 NA
HETATM    5  C5  UNL     1      21.141  -1.212  54.302  1.00  0.00     0.236 A 
HETATM    6  N2  UNL     1      20.582  -0.387  53.368  1.00  0.00    -0.223 NA
HETATM    7  C6  UNL     1      21.468   0.387  52.674  1.00  0.00     0.146 A 
HETATM    8  C12 UNL     1      22.819   0.309  52.928  1.00  0.00     0.075 A 
HETATM    9  C13 UNL     1      23.556   1.141  52.133  1.00  0.00     0.121 A 
HETATM   10  C14 UNL     1      24.933   1.140  52.293  1.00  0.00     0.136 A 
HETATM   11  O2  UNL     1      25.752   1.958  51.523  1.00  0.00    -0.344 OA
HETATM   12  C15 UNL     1      25.180   3.066  50.825  1.00  0.00     0.202 C 
HETATM   13  C16 UNL     1      23.888   2.562  50.204  1.00  0.00     0.202 C 
HETATM   14  O3  UNL     1      23.047   1.979  51.181  1.00  0.00    -0.345 OA
ENDROOT
BRANCH   7  15
HETATM   15  N3  UNL     1      20.709   1.234  51.793  1.00  0.00    -0.337 N 
HETATM   16  C7  UNL     1      20.326   2.425  52.512  1.00  0.00     0.094 A 
HETATM   17  C8  UNL     1      19.587   3.383  51.961  1.00  0.00     0.041 A 
HETATM   18  C9  UNL     1      19.125   3.272  50.583  1.00  0.00     0.033 A 
HETATM   19 CL1  UNL     1      18.149   4.430  49.720  1.00  0.00    -0.085 Cl
HETATM   20  C10 UNL     1      19.513   2.162  49.976  1.00  0.00     0.017 A 
HETATM   21  C11 UNL     1      20.332   1.000  50.411  1.00  0.00     0.159 A 
ENDBRANCH   7  15
BRANCH   1  22
HETATM   22  O1  UNL     1      26.864   0.316  53.388  1.00  0.00    -0.353 OA
HETATM   23  C1  UNL     1      27.509   0.279  54.641  1.00  0.00     0.210 C 
ENDBRANCH   1  22
TORSDOF 2
ENDMDL
MODEL 6
REMARK VINA RESULT:      -6.9      3.204      5.773
REMARK  2 active torsions:
REMARK  status: ('A' for Active; 'I' for Inactive)
REMARK    1  A    between atoms: O1_2  and  C2_3 
REMARK    2  A    between atoms: C6_9  and  N3_10 
ROOT
HETATM    1  C2  UNL     1      25.382  -0.186  53.175  1.00  0.00     0.106 A 
HETATM    2  C3  UNL     1      24.191  -0.593  53.739  1.00  0.00     0.072 A 
HETATM    3  C4  UNL     1      23.001   0.078  53.474  1.00  0.00     0.077 A 
HETATM    4  N1  UNL     1      21.803  -0.257  53.967  1.00  0.00    -0.241 NA
HETATM    5  C5  UNL     1      20.737   0.507  53.589  1.00  0.00     0.236 A 
HETATM    6  N2  UNL     1      20.781   1.587  52.754  1.00  0.00    -0.223 NA
HETATM    7  C6  UNL     1      22.020   1.898  52.273  1.00  0.00     0.146 A 
HETATM    8  C12 UNL     1      23.120   1.150  52.627  1.00  0.00     0.075 A 
HETATM    9  C13 UNL     1      24.273   1.594  52.043  1.00  0.00     0.121 A 
HETATM   10  C14 UNL     1      25.447   0.910  52.321  1.00  0.00     0.136 A 
HETATM   11  O2  UNL     1      26.660   1.299  51.766  1.00  0.00    -0.344 OA
HETATM   12  C15 UNL     1      26.789   2.608  51.207  1.00  0.00     0.202 C 
HETATM   13  C16 UNL     1      25.523   2.857  50.402  1.00  0.00     0.202 C 
HETATM   14  O3  UNL     1      24.369   2.662  51.196  1.00  0.00    -0.345 OA
ENDROOT
BRANCH   7  15
HETATM   15  N3  UNL     1      21.892   3.088  51.475  1.00  0.00    -0.337 N 
HETATM   16  C7  UNL     1      22.043   4.239  52.332  1.00  0.00     0.094 A 
HETATM   17  C8  UNL     1      21.941   5.484  51.879  1.00  0.00     0.041 A 
HETATM   18  C9  UNL     1      21.671   5.747  50.470  1.00  0.00     0.033 A 
HETATM   19 CL1  UNL     1      21.503   7.312  49.722  1.00  0.00    -0.085 Cl
HETATM   20  C10 UNL     1      21.548   4.654  49.735  1.00  0.00     0.017 A 
HETATM   21  C11 UNL     1      21.634   3.203  50.051  1.00  0.00     0.159 A 
ENDBRANCH   7  15
BRANCH   1  22
HETATM   22  O1  UNL     1      26.573  -0.851  53.435  1.00  0.00    -0.353 OA
HETATM   23  C1  UNL     1      26.992  -1.983  52.707  1.00  0.00     0.210 C 
ENDBRANCH   1  22
TORSDOF 2
ENDMDL
MODEL 7
REMARK VINA RESULT:      -6.7      3.859      6.916
REMARK  2 active torsions:
REMARK  status: ('A' for Active; 'I' for Inactive)
REMARK    1  A    between atoms: O1_2  and  C2_3 
REMARK    2  A    between atoms: C6_9  and  N3_10 
ROOT
HETATM    1  C2  UNL     1      25.225   0.355  53.077  1.00  0.00     0.106 A 
HETATM    2  C3  UNL     1      25.680   1.262  52.142  1.00  0.00     0.072 A 
HETATM    3  C4  UNL     1      24.796   1.963  51.328  1.00  0.00     0.077 A 
HETATM    4  N1  UNL     1      25.150   2.867  50.408  1.00  0.00    -0.241 NA
HETATM    5  C5  UNL     1      24.146   3.471  49.707  1.00  0.00     0.236 A 
HETATM    6  N2  UNL     1      22.810   3.235  49.857  1.00  0.00    -0.223 NA
HETATM    7  C6  UNL     1      22.488   2.306  50.805  1.00  0.00     0.146 A 
HETATM    8  C12 UNL     1      23.471   1.677  51.535  1.00  0.00     0.075 A 
HETATM    9  C13 UNL     1      22.969   0.791  52.447  1.00  0.00     0.121 A 
HETATM   10  C14 UNL     1      23.868   0.104  53.247  1.00  0.00     0.136 A 
HETATM   11  O2  UNL     1      23.437  -0.815  54.197  1.00  0.00    -0.344 OA
HETATM   12  C15 UNL     1      22.109  -1.337  54.116  1.00  0.00     0.202 C 
HETATM   13  C16 UNL     1      21.202  -0.158  53.799  1.00  0.00     0.202 C 
HETATM   14  O3  UNL     1      21.643   0.525  52.641  1.00  0.00    -0.345 OA
ENDROOT
BRANCH   7  15
HETATM   15  N3  UNL     1      21.060   2.136  50.781  1.00  0.00    -0.337 N 
HETATM   16  C7  UNL     1      20.456   3.165  51.592  1.00  0.00     0.094 A 
HETATM   17  C8  UNL     1      19.143   3.243  51.784  1.00  0.00     0.041 A 
HETATM   18  C9  UNL     1      18.239   2.278  51.171  1.00  0.00     0.033 A 
HETATM   19 CL1  UNL     1      16.504   2.238  51.327  1.00  0.00    -0.085 Cl
HETATM   20  C10 UNL     1      18.851   1.363  50.435  1.00  0.00     0.017 A 
HETATM   21  C11 UNL     1      20.279   1.119  50.100  1.00  0.00     0.159 A 
ENDBRANCH   7  15
BRANCH   1  22
HETATM   22  O1  UNL     1      26.101  -0.348  53.893  1.00  0.00    -0.353 OA
HETATM   23  C1  UNL     1      26.773   0.242  54.983  1.00  0.00     0.210 C 
ENDBRANCH   1  22
TORSDOF 2
ENDMDL
MODEL 8
REMARK VINA RESULT:      -6.7      2.683      4.208
REMARK  2 active torsions:
REMARK  status: ('A' for Active; 'I' for Inactive)
REMARK    1  A    between atoms: O1_2  and  C2_3 
REMARK    2  A    between atoms: C6_9  and  N3_10 
ROOT
HETATM    1  C2  UNL     1      19.732   2.670  51.922  1.00  0.00     0.106 A 
HETATM    2  C3  UNL     1      20.119   3.934  51.525  1.00  0.00     0.072 A 
HETATM    3  C4  UNL     1      21.456   4.317  51.542  1.00  0.00     0.077 A 
HETATM    4  N1  UNL     1      21.918   5.514  51.163  1.00  0.00    -0.241 NA
HETATM    5  C5  UNL     1      23.267   5.714  51.231  1.00  0.00     0.236 A 
HETATM    6  N2  UNL     1      24.191   4.802  51.655  1.00  0.00    -0.223 NA
HETATM    7  C6  UNL     1      23.682   3.593  52.034  1.00  0.00     0.146 A 
HETATM    8  C12 UNL     1      22.328   3.352  51.977  1.00  0.00     0.075 A 
HETATM    9  C13 UNL     1      21.998   2.088  52.379  1.00  0.00     0.121 A 
HETATM   10  C14 UNL     1      20.659   1.727  52.354  1.00  0.00     0.136 A 
HETATM   11  O2  UNL     1      20.242   0.462  52.748  1.00  0.00    -0.344 OA
HETATM   12  C15 UNL     1      21.120  -0.356  53.525  1.00  0.00     0.202 C 
HETATM   13  C16 UNL     1      22.499  -0.220  52.899  1.00  0.00     0.202 C 
HETATM   14  O3  UNL     1      22.883   1.138  52.803  1.00  0.00    -0.345 OA
ENDROOT
BRANCH   7  15
HETATM   15  N3  UNL     1      24.775   2.790  52.511  1.00  0.00    -0.337 N 
HETATM   16  C7  UNL     1      25.447   2.201  51.377  1.00  0.00     0.094 A 
HETATM   17  C8  UNL     1      26.483   1.379  51.511  1.00  0.00     0.041 A 
HETATM   18  C9  UNL     1      26.998   1.032  52.830  1.00  0.00     0.033 A 
HETATM   19 CL1  UNL     1      28.336  -0.029  53.174  1.00  0.00    -0.085 Cl
HETATM   20  C10 UNL     1      26.346   1.607  53.827  1.00  0.00     0.017 A 
HETATM   21  C11 UNL     1      25.191   2.543  53.880  1.00  0.00     0.159 A 
ENDBRANCH   7  15
BRANCH   1  22
HETATM   22  O1  UNL     1      18.400   2.281  51.908  1.00  0.00    -0.353 OA
HETATM   23  C1  UNL     1      17.354   3.146  51.528  1.00  0.00     0.210 C 
ENDBRANCH   1  22
TORSDOF 2
ENDMDL
MODEL 9
REMARK VINA RESULT:      -6.5      4.131      6.826
REMARK  2 active torsions:
REMARK  status: ('A' for Active; 'I' for Inactive)
REMARK    1  A    between atoms: O1_2  and  C2_3 
REMARK    2  A    between atoms: C6_9  and  N3_10 
ROOT
HETATM    1  C2  UNL     1      26.619   4.565  49.331  1.00  0.00     0.106 A 
HETATM    2  C3  UNL     1      25.761   5.392  48.636  1.00  0.00     0.072 A 
HETATM    3  C4  UNL     1      24.383   5.310  48.808  1.00  0.00     0.077 A 
HETATM    4  N1  UNL     1      23.483   6.080  48.186  1.00  0.00    -0.241 NA
HETATM    5  C5  UNL     1      22.168   5.871  48.487  1.00  0.00     0.236 A 
HETATM    6  N2  UNL     1      21.685   4.943  49.364  1.00  0.00    -0.223 NA
HETATM    7  C6  UNL     1      22.633   4.175  49.978  1.00  0.00     0.146 A 
HETATM    8  C12 UNL     1      23.969   4.358  49.705  1.00  0.00     0.075 A 
HETATM    9  C13 UNL     1      24.776   3.516  50.417  1.00  0.00     0.121 A 
HETATM   10  C14 UNL     1      26.146   3.615  50.230  1.00  0.00     0.136 A 
HETATM   11  O2  UNL     1      27.032   2.794  50.917  1.00  0.00    -0.344 OA
HETATM   12  C15 UNL     1      26.547   1.602  51.538  1.00  0.00     0.202 C 
HETATM   13  C16 UNL     1      25.242   1.975  52.223  1.00  0.00     0.202 C 
HETATM   14  O3  UNL     1      24.343   2.577  51.311  1.00  0.00    -0.345 OA
ENDROOT
BRANCH   7  15
HETATM   15  N3  UNL     1      21.950   3.218  50.805  1.00  0.00    -0.337 N 
HETATM   16  C7  UNL     1      21.647   2.051  50.011  1.00  0.00     0.094 A 
HETATM   17  C8  UNL     1      20.987   1.007  50.501  1.00  0.00     0.041 A 
HETATM   18  C9  UNL     1      20.535   0.991  51.887  1.00  0.00     0.033 A 
HETATM   19 CL1  UNL     1      19.658  -0.292  52.677  1.00  0.00    -0.085 Cl
HETATM   20  C10 UNL     1      20.847   2.084  52.565  1.00  0.00     0.017 A 
HETATM   21  C11 UNL     1      21.572   3.331  52.203  1.00  0.00     0.159 A 
ENDBRANCH   7  15
BRANCH   1  22
HETATM   22  O1  UNL     1      27.995   4.641  49.164  1.00  0.00    -0.353 OA
HETATM   23  C1  UNL     1      28.611   5.571  48.302  1.00  0.00     0.210 C 
ENDBRANCH   1  22
TORSDOF 2
ENDMDL
