MODEL 1
REMARK VINA RESULT:      -7.5      0.000      0.000
REMARK  4 active torsions:
REMARK  status: ('A' for Active; 'I' for Inactive)
REMARK    1  A    between atoms: S1_2  and  N1_4 
REMARK    2  A    between atoms: S1_2  and  C7_14 
REMARK    3  A    between atoms: N1_4  and  C1_5 
REMARK    4  A    between atoms: C1_5  and  C2_6 
ROOT
HETATM    1  N1  UNL     1      25.071   3.414  51.790  1.00  0.00    -0.209 NA
HETATM    2  H1  UNL     1      25.938   3.875  52.075  1.00  0.00     0.140 HD
ENDROOT
BRANCH   1   3
HETATM    3  S1  UNL     1      24.493   4.046  50.262  1.00  0.00     0.241 S 
HETATM    4  O1  UNL     1      24.043   2.950  49.370  1.00  0.00    -0.206 OA
HETATM    5  O2  UNL     1      23.337   4.963  50.631  1.00  0.00    -0.206 OA
BRANCH   3   6
HETATM    6  C7  UNL     1      25.737   4.933  49.452  1.00  0.00     0.074 A 
HETATM    7  C8  UNL     1      25.602   6.257  49.023  1.00  0.00     0.026 A 
HETATM    8  C9  UNL     1      26.658   6.883  48.381  1.00  0.00     0.025 A 
HETATM    9  C10 UNL     1      27.846   6.217  48.158  1.00  0.00     0.034 A 
HETATM   10 CL2  UNL     1      29.192   7.015  47.341  1.00  0.00    -0.084 Cl
HETATM   11  C11 UNL     1      28.037   4.910  48.559  1.00  0.00     0.025 A 
HETATM   12  C12 UNL     1      26.959   4.300  49.203  1.00  0.00     0.026 A 
ENDBRANCH   3   6
ENDBRANCH   1   3
BRANCH   1  13
HETATM   13  C1  UNL     1      25.106   1.983  51.728  1.00  0.00     0.169 C 
BRANCH  13  14
HETATM   14  C2  UNL     1      26.420   1.454  52.189  1.00  0.00     0.068 C 
HETATM   15  C3  UNL     1      26.492   0.132  52.391  1.00  0.00     0.037 C 
HETATM   16  C4  UNL     1      27.624  -0.647  52.832  1.00  0.00     0.047 C 
HETATM   17  C5  UNL     1      28.709  -0.141  53.413  1.00  0.00     0.128 C 
HETATM   18 CL1  UNL     1      29.900  -1.348  53.828  1.00  0.00    -0.062 Cl
HETATM   19  N2  UNL     1      29.024   1.206  53.734  1.00  0.00    -0.225 NA
HETATM   20  C6  UNL     1      28.486   2.303  53.291  1.00  0.00     0.260 C 
HETATM   21  O3  UNL     1      27.434   2.385  52.361  1.00  0.00    -0.307 OA
ENDBRANCH  13  14
ENDBRANCH   1  13
TORSDOF 4
ENDMDL
MODEL 2
REMARK VINA RESULT:      -7.2      1.274      1.931
REMARK  4 active torsions:
REMARK  status: ('A' for Active; 'I' for Inactive)
REMARK    1  A    between atoms: S1_2  and  N1_4 
REMARK    2  A    between atoms: S1_2  and  C7_14 
REMARK    3  A    between atoms: N1_4  and  C1_5 
REMARK    4  A    between atoms: C1_5  and  C2_6 
ROOT
HETATM    1  N1  UNL     1      24.786   3.718  52.372  1.00  0.00    -0.209 NA
HETATM    2  H1  UNL     1      25.782   3.911  52.505  1.00  0.00     0.140 HD
ENDROOT
BRANCH   1   3
HETATM    3  S1  UNL     1      24.299   4.019  50.717  1.00  0.00     0.241 S 
HETATM    4  O1  UNL     1      23.887   2.762  50.048  1.00  0.00    -0.206 OA
HETATM    5  O2  UNL     1      23.134   4.991  50.824  1.00  0.00    -0.206 OA
BRANCH   3   6
HETATM    6  C7  UNL     1      25.595   4.721  49.812  1.00  0.00     0.074 A 
HETATM    7  C8  UNL     1      26.736   4.020  49.407  1.00  0.00     0.026 A 
HETATM    8  C9  UNL     1      27.722   4.672  48.684  1.00  0.00     0.025 A 
HETATM    9  C10 UNL     1      27.595   6.006  48.356  1.00  0.00     0.034 A 
HETATM   10 CL2  UNL     1      28.851   6.836  47.434  1.00  0.00    -0.084 Cl
HETATM   11  C11 UNL     1      26.492   6.747  48.729  1.00  0.00     0.025 A 
HETATM   12  C12 UNL     1      25.512   6.070  49.456  1.00  0.00     0.026 A 
ENDBRANCH   3   6
ENDBRANCH   1   3
BRANCH   1  13
HETATM   13  C1  UNL     1      24.335   2.418  52.770  1.00  0.00     0.169 C 
BRANCH  13  14
HETATM   14  C2  UNL     1      25.478   1.542  53.149  1.00  0.00     0.068 C 
HETATM   15  C3  UNL     1      26.697   1.961  52.784  1.00  0.00     0.037 C 
HETATM   16  C4  UNL     1      27.971   1.324  53.015  1.00  0.00     0.047 C 
HETATM   17  C5  UNL     1      28.126   0.049  53.362  1.00  0.00     0.128 C 
HETATM   18 CL1  UNL     1      29.796  -0.416  53.565  1.00  0.00    -0.062 Cl
HETATM   19  N2  UNL     1      27.150  -0.958  53.584  1.00  0.00    -0.225 NA
HETATM   20  C6  UNL     1      25.872  -0.833  53.792  1.00  0.00     0.260 C 
HETATM   21  O3  UNL     1      25.164   0.382  53.842  1.00  0.00    -0.307 OA
ENDBRANCH  13  14
ENDBRANCH   1  13
TORSDOF 4
ENDMDL
MODEL 3
REMARK VINA RESULT:      -7.1      4.259      7.604
REMARK  4 active torsions:
REMARK  status: ('A' for Active; 'I' for Inactive)
REMARK    1  A    between atoms: S1_2  and  N1_4 
REMARK    2  A    between atoms: S1_2  and  C7_14 
REMARK    3  A    between atoms: N1_4  and  C1_5 
REMARK    4  A    between atoms: C1_5  and  C2_6 
ROOT
HETATM    1  N1  UNL     1      25.901   1.273  53.893  1.00  0.00    -0.209 NA
HETATM    2  H1  UNL     1      25.124   1.906  54.092  1.00  0.00     0.140 HD
ENDROOT
BRANCH   1   3
HETATM    3  S1  UNL     1      25.410  -0.401  54.052  1.00  0.00     0.241 S 
HETATM    4  O1  UNL     1      26.027  -1.238  52.995  1.00  0.00    -0.206 OA
HETATM    5  O2  UNL     1      25.890  -0.818  55.433  1.00  0.00    -0.206 OA
BRANCH   3   6
HETATM    6  C7  UNL     1      23.691  -0.552  53.934  1.00  0.00     0.074 A 
HETATM    7  C8  UNL     1      22.886  -1.121  54.926  1.00  0.00     0.026 A 
HETATM    8  C9  UNL     1      21.515  -1.198  54.738  1.00  0.00     0.025 A 
HETATM    9  C10 UNL     1      20.930  -0.719  53.583  1.00  0.00     0.034 A 
HETATM   10 CL2  UNL     1      19.184  -0.815  53.344  1.00  0.00    -0.084 Cl
HETATM   11  C11 UNL     1      21.675  -0.147  52.571  1.00  0.00     0.025 A 
HETATM   12  C12 UNL     1      23.053  -0.081  52.783  1.00  0.00     0.026 A 
ENDBRANCH   3   6
ENDBRANCH   1   3
BRANCH   1  13
HETATM   13  C1  UNL     1      26.559   1.456  52.633  1.00  0.00     0.169 C 
BRANCH  13  14
HETATM   14  C2  UNL     1      25.860   2.476  51.802  1.00  0.00     0.068 C 
HETATM   15  C3  UNL     1      26.517   2.916  50.721  1.00  0.00     0.037 C 
HETATM   16  C4  UNL     1      26.088   3.890  49.746  1.00  0.00     0.047 C 
HETATM   17  C5  UNL     1      25.090   4.750  49.926  1.00  0.00     0.128 C 
HETATM   18 CL1  UNL     1      24.821   5.798  48.556  1.00  0.00    -0.062 Cl
HETATM   19  N2  UNL     1      24.236   4.930  51.046  1.00  0.00    -0.225 NA
HETATM   20  C6  UNL     1      24.013   4.130  52.047  1.00  0.00     0.260 C 
HETATM   21  O3  UNL     1      24.600   2.865  52.233  1.00  0.00    -0.307 OA
ENDBRANCH  13  14
ENDBRANCH   1  13
TORSDOF 4
ENDMDL
MODEL 4
REMARK VINA RESULT:      -7.0      1.596      1.806
REMARK  4 active torsions:
REMARK  status: ('A' for Active; 'I' for Inactive)
REMARK    1  A    between atoms: S1_2  and  N1_4 
REMARK    2  A    between atoms: S1_2  and  C7_14 
REMARK    3  A    between atoms: N1_4  and  C1_5 
REMARK    4  A    between atoms: C1_5  and  C2_6 
ROOT
HETATM    1  N1  UNL     1      23.653   2.121  52.810  1.00  0.00    -0.209 NA
HETATM    2  H1  UNL     1      24.371   2.739  53.197  1.00  0.00     0.140 HD
ENDROOT
BRANCH   1   3
HETATM    3  S1  UNL     1      23.133   2.668  51.230  1.00  0.00     0.241 S 
HETATM    4  O1  UNL     1      22.772   1.521  50.362  1.00  0.00    -0.206 OA
HETATM    5  O2  UNL     1      21.926   3.552  51.501  1.00  0.00    -0.206 OA
BRANCH   3   6
HETATM    6  C7  UNL     1      24.384   3.572  50.448  1.00  0.00     0.074 A 
HETATM    7  C8  UNL     1      24.279   4.926  50.113  1.00  0.00     0.026 A 
HETATM    8  C9  UNL     1      25.338   5.562  49.487  1.00  0.00     0.025 A 
HETATM    9  C10 UNL     1      26.499   4.879  49.187  1.00  0.00     0.034 A 
HETATM   10 CL2  UNL     1      27.848   5.691  48.389  1.00  0.00    -0.084 Cl
HETATM   11  C11 UNL     1      26.658   3.543  49.493  1.00  0.00     0.025 A 
HETATM   12  C12 UNL     1      25.578   2.922  50.124  1.00  0.00     0.026 A 
ENDBRANCH   3   6
ENDBRANCH   1   3
BRANCH   1  13
HETATM   13  C1  UNL     1      23.986   0.729  52.743  1.00  0.00     0.169 C 
BRANCH  13  14
HETATM   14  C2  UNL     1      25.452   0.516  52.900  1.00  0.00     0.068 C 
HETATM   15  C3  UNL     1      25.879  -0.752  52.841  1.00  0.00     0.037 C 
HETATM   16  C4  UNL     1      27.229  -1.250  52.959  1.00  0.00     0.047 C 
HETATM   17  C5  UNL     1      28.249  -0.557  53.458  1.00  0.00     0.128 C 
HETATM   18 CL1  UNL     1      29.753  -1.443  53.462  1.00  0.00    -0.062 Cl
HETATM   19  N2  UNL     1      28.283   0.766  53.972  1.00  0.00    -0.225 NA
HETATM   20  C6  UNL     1      27.422   1.728  53.824  1.00  0.00     0.260 C 
HETATM   21  O3  UNL     1      26.224   1.652  53.090  1.00  0.00    -0.307 OA
ENDBRANCH  13  14
ENDBRANCH   1  13
TORSDOF 4
ENDMDL
MODEL 5
REMARK VINA RESULT:      -7.0      6.349      8.210
REMARK  4 active torsions:
REMARK  status: ('A' for Active; 'I' for Inactive)
REMARK    1  A    between atoms: S1_2  and  N1_4 
REMARK    2  A    between atoms: S1_2  and  C7_14 
REMARK    3  A    between atoms: N1_4  and  C1_5 
REMARK    4  A    between atoms: C1_5  and  C2_6 
ROOT
HETATM    1  N1  UNL     1      22.224  -0.522  52.874  1.00  0.00    -0.209 NA
HETATM    2  H1  UNL     1      22.891  -1.297  52.843  1.00  0.00     0.140 HD
ENDROOT
BRANCH   1   3
HETATM    3  S1  UNL     1      20.977  -0.807  54.069  1.00  0.00     0.241 S 
HETATM    4  O1  UNL     1      21.242  -2.054  54.827  1.00  0.00    -0.206 OA
HETATM    5  O2  UNL     1      21.024   0.409  54.980  1.00  0.00    -0.206 OA
BRANCH   3   6
HETATM    6  C7  UNL     1      19.425  -0.945  53.319  1.00  0.00     0.074 A 
HETATM    7  C8  UNL     1      18.973  -0.105  52.295  1.00  0.00     0.026 A 
HETATM    8  C9  UNL     1      17.710  -0.295  51.758  1.00  0.00     0.025 A 
HETATM    9  C10 UNL     1      16.888  -1.304  52.219  1.00  0.00     0.034 A 
HETATM   10 CL2  UNL     1      15.279  -1.546  51.534  1.00  0.00    -0.084 Cl
HETATM   11  C11 UNL     1      17.280  -2.161  53.226  1.00  0.00     0.025 A 
HETATM   12  C12 UNL     1      18.557  -1.951  53.753  1.00  0.00     0.026 A 
ENDBRANCH   3   6
ENDBRANCH   1   3
BRANCH   1  13
HETATM   13  C1  UNL     1      22.781   0.783  53.072  1.00  0.00     0.169 C 
BRANCH  13  14
HETATM   14  C2  UNL     1      24.264   0.725  53.195  1.00  0.00     0.068 C 
HETATM   15  C3  UNL     1      24.808  -0.496  53.266  1.00  0.00     0.037 C 
HETATM   16  C4  UNL     1      26.202  -0.851  53.388  1.00  0.00     0.047 C 
HETATM   17  C5  UNL     1      27.165  -0.013  53.763  1.00  0.00     0.128 C 
HETATM   18 CL1  UNL     1      28.746  -0.751  53.812  1.00  0.00    -0.062 Cl
HETATM   19  N2  UNL     1      27.088   1.359  54.120  1.00  0.00    -0.225 NA
HETATM   20  C6  UNL     1      26.134   2.214  53.896  1.00  0.00     0.260 C 
HETATM   21  O3  UNL     1      24.929   1.942  53.223  1.00  0.00    -0.307 OA
ENDBRANCH  13  14
ENDBRANCH   1  13
TORSDOF 4
ENDMDL
MODEL 6
REMARK VINA RESULT:      -6.8      4.635      7.097
REMARK  4 active torsions:
REMARK  status: ('A' for Active; 'I' for Inactive)
REMARK    1  A    between atoms: S1_2  and  N1_4 
REMARK    2  A    between atoms: S1_2  and  C7_14 
REMARK    3  A    between atoms: N1_4  and  C1_5 
REMARK    4  A    between atoms: C1_5  and  C2_6 
ROOT
HETATM    1  N1  UNL     1      23.622   1.077  52.126  1.00  0.00    -0.209 NA
HETATM    2  H1  UNL     1      22.930   1.390  51.441  1.00  0.00     0.140 HD
ENDROOT
BRANCH   1   3
HETATM    3  S1  UNL     1      24.973   2.188  52.213  1.00  0.00     0.241 S 
HETATM    4  O1  UNL     1      25.208   2.842  50.904  1.00  0.00    -0.206 OA
HETATM    5  O2  UNL     1      24.575   3.204  53.272  1.00  0.00    -0.206 OA
BRANCH   3   6
HETATM    6  C7  UNL     1      26.420   1.362  52.678  1.00  0.00     0.074 A 
HETATM    7  C8  UNL     1      27.543   1.995  53.222  1.00  0.00     0.026 A 
HETATM    8  C9  UNL     1      28.657   1.245  53.562  1.00  0.00     0.025 A 
HETATM    9  C10 UNL     1      28.676  -0.122  53.373  1.00  0.00     0.034 A 
HETATM   10 CL2  UNL     1      30.095  -1.077  53.808  1.00  0.00    -0.084 Cl
HETATM   11  C11 UNL     1      27.598  -0.800  52.841  1.00  0.00     0.025 A 
HETATM   12  C12 UNL     1      26.487  -0.024  52.505  1.00  0.00     0.026 A 
ENDBRANCH   3   6
ENDBRANCH   1   3
BRANCH   1  13
HETATM   13  C1  UNL     1      23.132   0.823  53.448  1.00  0.00     0.169 C 
BRANCH  13  14
HETATM   14  C2  UNL     1      21.716   0.361  53.420  1.00  0.00     0.068 C 
HETATM   15  C3  UNL     1      21.478  -0.860  53.915  1.00  0.00     0.037 C 
HETATM   16  C4  UNL     1      20.217  -1.557  54.016  1.00  0.00     0.047 C 
HETATM   17  C5  UNL     1      19.116  -1.227  53.346  1.00  0.00     0.128 C 
HETATM   18 CL1  UNL     1      17.758  -2.269  53.689  1.00  0.00    -0.062 Cl
HETATM   19  N2  UNL     1      18.898  -0.174  52.419  1.00  0.00    -0.225 NA
HETATM   20  C6  UNL     1      19.606   0.895  52.207  1.00  0.00     0.260 C 
HETATM   21  O3  UNL     1      20.789   1.243  52.884  1.00  0.00    -0.307 OA
ENDBRANCH  13  14
ENDBRANCH   1  13
TORSDOF 4
ENDMDL
MODEL 7
REMARK VINA RESULT:      -6.7      4.047      5.386
REMARK  4 active torsions:
REMARK  status: ('A' for Active; 'I' for Inactive)
REMARK    1  A    between atoms: S1_2  and  N1_4 
REMARK    2  A    between atoms: S1_2  and  C7_14 
REMARK    3  A    between atoms: N1_4  and  C1_5 
REMARK    4  A    between atoms: C1_5  and  C2_6 
ROOT
HETATM    1  N1  UNL     1      25.387   3.230  51.838  1.00  0.00    -0.209 NA
HETATM    2  H1  UNL     1      25.894   2.664  51.153  1.00  0.00     0.140 HD
ENDROOT
BRANCH   1   3
HETATM    3  S1  UNL     1      23.886   3.837  51.171  1.00  0.00     0.241 S 
HETATM    4  O1  UNL     1      23.487   5.105  51.827  1.00  0.00    -0.206 OA
HETATM    5  O2  UNL     1      24.175   4.050  49.693  1.00  0.00    -0.206 OA
BRANCH   3   6
HETATM    6  C7  UNL     1      22.610   2.688  51.381  1.00  0.00     0.074 A 
HETATM    7  C8  UNL     1      22.545   1.460  50.714  1.00  0.00     0.026 A 
HETATM    8  C9  UNL     1      21.479   0.607  50.950  1.00  0.00     0.025 A 
HETATM    9  C10 UNL     1      20.478   0.950  51.836  1.00  0.00     0.034 A 
HETATM   10 CL2  UNL     1      19.121  -0.138  52.136  1.00  0.00    -0.084 Cl
HETATM   11  C11 UNL     1      20.490   2.148  52.521  1.00  0.00     0.025 A 
HETATM   12  C12 UNL     1      21.573   2.992  52.268  1.00  0.00     0.026 A 
ENDBRANCH   3   6
ENDBRANCH   1   3
BRANCH   1  13
HETATM   13  C1  UNL     1      25.127   2.609  53.103  1.00  0.00     0.169 C 
BRANCH  13  14
HETATM   14  C2  UNL     1      26.091   1.506  53.372  1.00  0.00     0.068 C 
HETATM   15  C3  UNL     1      27.391   1.817  53.287  1.00  0.00     0.037 C 
HETATM   16  C4  UNL     1      28.533   0.960  53.494  1.00  0.00     0.047 C 
HETATM   17  C5  UNL     1      28.489  -0.370  53.503  1.00  0.00     0.128 C 
HETATM   18 CL1  UNL     1      30.043  -1.114  53.780  1.00  0.00    -0.062 Cl
HETATM   19  N2  UNL     1      27.383  -1.243  53.324  1.00  0.00    -0.225 NA
HETATM   20  C6  UNL     1      26.111  -0.985  53.398  1.00  0.00     0.260 C 
HETATM   21  O3  UNL     1      25.544   0.270  53.684  1.00  0.00    -0.307 OA
ENDBRANCH  13  14
ENDBRANCH   1  13
TORSDOF 4
ENDMDL
MODEL 8
REMARK VINA RESULT:      -6.7      2.428      6.364
REMARK  4 active torsions:
REMARK  status: ('A' for Active; 'I' for Inactive)
REMARK    1  A    between atoms: S1_2  and  N1_4 
REMARK    2  A    between atoms: S1_2  and  C7_14 
REMARK    3  A    between atoms: N1_4  and  C1_5 
REMARK    4  A    between atoms: C1_5  and  C2_6 
ROOT
HETATM    1  N1  UNL     1      23.741   2.562  52.997  1.00  0.00    -0.209 NA
HETATM    2  H1  UNL     1      23.330   2.935  53.857  1.00  0.00     0.140 HD
ENDROOT
BRANCH   1   3
HETATM    3  S1  UNL     1      23.813   0.813  53.038  1.00  0.00     0.241 S 
HETATM    4  O1  UNL     1      23.022   0.274  54.171  1.00  0.00    -0.206 OA
HETATM    5  O2  UNL     1      23.235   0.368  51.704  1.00  0.00    -0.206 OA
BRANCH   3   6
HETATM    6  C7  UNL     1      25.446   0.267  53.205  1.00  0.00     0.074 A 
HETATM    7  C8  UNL     1      25.957  -0.876  52.580  1.00  0.00     0.026 A 
HETATM    8  C9  UNL     1      27.281  -1.232  52.777  1.00  0.00     0.025 A 
HETATM    9  C10 UNL     1      28.107  -0.474  53.582  1.00  0.00     0.034 A 
HETATM   10 CL2  UNL     1      29.795  -0.927  53.832  1.00  0.00    -0.084 Cl
HETATM   11  C11 UNL     1      27.658   0.663  54.224  1.00  0.00     0.025 A 
HETATM   12  C12 UNL     1      26.320   1.002  54.011  1.00  0.00     0.026 A 
ENDBRANCH   3   6
ENDBRANCH   1   3
BRANCH   1  13
HETATM   13  C1  UNL     1      23.133   2.983  51.770  1.00  0.00     0.169 C 
BRANCH  13  14
HETATM   14  C2  UNL     1      24.107   3.699  50.902  1.00  0.00     0.068 C 
HETATM   15  C3  UNL     1      25.228   3.035  50.590  1.00  0.00     0.037 C 
HETATM   16  C4  UNL     1      26.334   3.476  49.775  1.00  0.00     0.047 C 
HETATM   17  C5  UNL     1      26.572   4.743  49.444  1.00  0.00     0.128 C 
HETATM   18 CL1  UNL     1      27.990   4.946  48.448  1.00  0.00    -0.062 Cl
HETATM   19  N2  UNL     1      25.852   5.920  49.781  1.00  0.00    -0.225 NA
HETATM   20  C6  UNL     1      24.641   6.041  50.238  1.00  0.00     0.260 C 
HETATM   21  O3  UNL     1      23.755   4.981  50.504  1.00  0.00    -0.307 OA
ENDBRANCH  13  14
ENDBRANCH   1  13
TORSDOF 4
ENDMDL
MODEL 9
REMARK VINA RESULT:      -6.7      2.187      6.172
REMARK  4 active torsions:
REMARK  status: ('A' for Active; 'I' for Inactive)
REMARK    1  A    between atoms: S1_2  and  N1_4 
REMARK    2  A    between atoms: S1_2  and  C7_14 
REMARK    3  A    between atoms: N1_4  and  C1_5 
REMARK    4  A    between atoms: C1_5  and  C2_6 
ROOT
HETATM    1  N1  UNL     1      23.844   2.893  50.418  1.00  0.00    -0.209 NA
HETATM    2  H1  UNL     1      24.610   2.425  49.928  1.00  0.00     0.140 HD
ENDROOT
BRANCH   1   3
HETATM    3  S1  UNL     1      23.949   2.636  52.147  1.00  0.00     0.241 S 
HETATM    4  O1  UNL     1      23.950   3.927  52.876  1.00  0.00    -0.206 OA
HETATM    5  O2  UNL     1      22.720   1.811  52.494  1.00  0.00    -0.206 OA
BRANCH   3   6
HETATM    6  C7  UNL     1      25.393   1.777  52.555  1.00  0.00     0.074 A 
HETATM    7  C8  UNL     1      26.334   2.226  53.487  1.00  0.00     0.026 A 
HETATM    8  C9  UNL     1      27.463   1.465  53.746  1.00  0.00     0.025 A 
HETATM    9  C10 UNL     1      27.673   0.266  53.096  1.00  0.00     0.034 A 
HETATM   10 CL2  UNL     1      29.110  -0.704  53.426  1.00  0.00    -0.084 Cl
HETATM   11  C11 UNL     1      26.779  -0.227  52.167  1.00  0.00     0.025 A 
HETATM   12  C12 UNL     1      25.650   0.557  51.922  1.00  0.00     0.026 A 
ENDBRANCH   3   6
ENDBRANCH   1   3
BRANCH   1  13
HETATM   13  C1  UNL     1      23.687   4.293  50.155  1.00  0.00     0.169 C 
BRANCH  13  14
HETATM   14  C2  UNL     1      24.877   4.847  49.453  1.00  0.00     0.068 C 
HETATM   15  C3  UNL     1      26.008   4.136  49.545  1.00  0.00     0.037 C 
HETATM   16  C4  UNL     1      27.301   4.428  48.971  1.00  0.00     0.047 C 
HETATM   17  C5  UNL     1      27.670   5.619  48.508  1.00  0.00     0.128 C 
HETATM   18 CL1  UNL     1      29.298   5.644  47.879  1.00  0.00    -0.062 Cl
HETATM   19  N2  UNL     1      26.945   6.839  48.456  1.00  0.00    -0.225 NA
HETATM   20  C6  UNL     1      25.665   7.040  48.569  1.00  0.00     0.260 C 
HETATM   21  O3  UNL     1      24.693   6.044  48.775  1.00  0.00    -0.307 OA
ENDBRANCH  13  14
ENDBRANCH   1  13
TORSDOF 4
ENDMDL
