MODEL 1
REMARK VINA RESULT:      -8.8      0.000      0.000
REMARK  2 active torsions:
REMARK  status: ('A' for Active; 'I' for Inactive)
REMARK    1  A    between atoms: C2_2  and  C3_3 
REMARK    2  A    between atoms: C4_4  and  O1_5 
ROOT
HETATM    1  C3  UNL     1      23.023   0.260  52.710  1.00  0.00     0.061 C 
HETATM    2  C4  UNL     1      22.422   0.709  51.627  1.00  0.00     0.091 C 
HETATM    3  C5  UNL     1      22.876   1.861  50.869  1.00  0.00     0.036 C 
HETATM    4  C6  UNL     1      23.742   2.846  50.708  1.00  0.00    -0.009 C 
HETATM    5  C7  UNL     1      24.337   4.037  50.050  1.00  0.00     0.003 C 
HETATM    6  C8  UNL     1      23.458   4.531  48.916  1.00  0.00     0.045 C 
HETATM    7  C9  UNL     1      24.017   5.813  48.416  1.00  0.00    -0.029 C 
HETATM    8  C10 UNL     1      24.047   6.968  49.073  1.00  0.00    -0.026 C 
HETATM    9  C11 UNL     1      23.428   6.849  50.450  1.00  0.00     0.059 C 
HETATM   10  P1  UNL     1      24.427   5.472  51.262  1.00  0.00    -0.112 P 
HETATM   11  C12 UNL     1      25.714   3.779  49.556  1.00  0.00     0.038 C 
HETATM   12  C13 UNL     1      26.380   2.607  50.226  1.00  0.00     0.121 C 
HETATM   13  N1  UNL     1      26.547   2.799  51.641  1.00  0.00    -0.389 N 
HETATM   14  C14 UNL     1      27.085   1.969  52.661  1.00  0.00     0.035 A 
HETATM   15  C15 UNL     1      28.270   2.487  53.172  1.00  0.00     0.030 A 
HETATM   16  C16 UNL     1      29.038   1.895  54.185  1.00  0.00     0.002 A 
HETATM   17  C17 UNL     1      28.549   0.711  54.688  1.00  0.00     0.001 A 
HETATM   18  C18 UNL     1      27.375   0.197  54.183  1.00  0.00     0.011 A 
HETATM   19  C19 UNL     1      26.612   0.765  53.192  1.00  0.00    -0.014 A 
HETATM   20  C20 UNL     1      25.362   0.122  52.722  1.00  0.00     0.160 C 
HETATM   21  N2  UNL     1      24.200   0.860  53.239  1.00  0.00    -0.383 N 
HETATM   22  H13 UNL     1      25.805   5.924  51.438  1.00  0.00     0.059 HD
HETATM   23  H18 UNL     1      26.255   3.690  52.120  1.00  0.00     0.159 HD
HETATM   24  H25 UNL     1      23.651   1.565  53.760  1.00  0.00     0.160 HD
ENDROOT
BRANCH   2  25
HETATM   25  O1  UNL     1      21.287   0.160  51.061  1.00  0.00    -0.358 OA
HETATM   26  H4  UNL     1      20.376   0.610  51.161  1.00  0.00     0.217 HD
ENDBRANCH   2  25
BRANCH   1  27
HETATM   27  C2  UNL     1      22.461  -0.906  53.379  1.00  0.00     0.022 C 
HETATM   28  C1  UNL     1      22.159  -0.873  54.666  1.00  0.00     0.013 C 
ENDBRANCH   1  27
TORSDOF 2
ENDMDL
MODEL 2
REMARK VINA RESULT:      -8.6      2.393      4.845
REMARK  2 active torsions:
REMARK  status: ('A' for Active; 'I' for Inactive)
REMARK    1  A    between atoms: C2_2  and  C3_3 
REMARK    2  A    between atoms: C4_4  and  O1_5 
ROOT
HETATM    1  C3  UNL     1      26.140   1.241  52.074  1.00  0.00     0.061 C 
HETATM    2  C4  UNL     1      26.269   2.369  51.404  1.00  0.00     0.091 C 
HETATM    3  C5  UNL     1      25.188   3.000  50.668  1.00  0.00     0.036 C 
HETATM    4  C6  UNL     1      23.927   2.995  50.274  1.00  0.00    -0.009 C 
HETATM    5  C7  UNL     1      22.721   3.507  49.574  1.00  0.00     0.003 C 
HETATM    6  C8  UNL     1      23.055   4.719  48.724  1.00  0.00     0.045 C 
HETATM    7  C9  UNL     1      21.855   5.074  47.925  1.00  0.00    -0.029 C 
HETATM    8  C10 UNL     1      21.328   4.360  46.936  1.00  0.00    -0.026 C 
HETATM    9  C11 UNL     1      22.104   3.083  46.688  1.00  0.00     0.059 C 
HETATM   10  P1  UNL     1      22.076   2.220  48.364  1.00  0.00    -0.112 P 
HETATM   11  C12 UNL     1      21.619   3.831  50.516  1.00  0.00     0.038 C 
HETATM   12  C13 UNL     1      21.748   3.142  51.849  1.00  0.00     0.121 C 
HETATM   13  N1  UNL     1      21.704   1.709  51.738  1.00  0.00    -0.389 N 
HETATM   14  C14 UNL     1      21.815   0.673  52.703  1.00  0.00     0.035 A 
HETATM   15  C15 UNL     1      20.616  -0.015  52.859  1.00  0.00     0.030 A 
HETATM   16  C16 UNL     1      20.409  -1.086  53.738  1.00  0.00     0.002 A 
HETATM   17  C17 UNL     1      21.500  -1.459  54.490  1.00  0.00     0.001 A 
HETATM   18  C18 UNL     1      22.689  -0.779  54.337  1.00  0.00     0.011 A 
HETATM   19  C19 UNL     1      22.907   0.271  53.480  1.00  0.00    -0.014 A 
HETATM   20  C20 UNL     1      24.231   0.933  53.397  1.00  0.00     0.160 C 
HETATM   21  N2  UNL     1      24.908   0.534  52.154  1.00  0.00    -0.383 N 
HETATM   22  H13 UNL     1      20.702   1.843  48.683  1.00  0.00     0.059 HD
HETATM   23  H18 UNL     1      21.561   1.226  50.813  1.00  0.00     0.159 HD
HETATM   24  H25 UNL     1      25.083   0.052  51.256  1.00  0.00     0.160 HD
ENDROOT
BRANCH   2  25
HETATM   25  O1  UNL     1      27.434   3.105  51.302  1.00  0.00    -0.358 OA
HETATM   26  H4  UNL     1      28.123   3.109  52.055  1.00  0.00     0.217 HD
ENDBRANCH   2  25
BRANCH   1  27
HETATM   27  C2  UNL     1      27.307   0.713  52.769  1.00  0.00     0.022 C 
HETATM   28  C1  UNL     1      27.537  -0.589  52.821  1.00  0.00     0.013 C 
ENDBRANCH   1  27
TORSDOF 2
ENDMDL
MODEL 3
REMARK VINA RESULT:      -8.5      2.313      5.970
REMARK  2 active torsions:
REMARK  status: ('A' for Active; 'I' for Inactive)
REMARK    1  A    between atoms: C2_2  and  C3_3 
REMARK    2  A    between atoms: C4_4  and  O1_5 
ROOT
HETATM    1  C3  UNL     1      20.842   0.289  52.631  1.00  0.00     0.061 C 
HETATM    2  C4  UNL     1      21.462  -0.154  53.707  1.00  0.00     0.091 C 
HETATM    3  C5  UNL     1      22.883   0.015  53.949  1.00  0.00     0.036 C 
HETATM    4  C6  UNL     1      24.058   0.469  53.548  1.00  0.00    -0.009 C 
HETATM    5  C7  UNL     1      25.519   0.724  53.641  1.00  0.00     0.003 C 
HETATM    6  C8  UNL     1      26.120   0.029  54.848  1.00  0.00     0.045 C 
HETATM    7  C9  UNL     1      27.596   0.180  54.787  1.00  0.00    -0.029 C 
HETATM    8  C10 UNL     1      28.408  -0.377  53.895  1.00  0.00    -0.026 C 
HETATM    9  C11 UNL     1      27.649  -1.223  52.894  1.00  0.00     0.059 C 
HETATM   10  P1  UNL     1      26.403  -0.017  52.156  1.00  0.00    -0.112 P 
HETATM   11  C12 UNL     1      25.835   2.175  53.674  1.00  0.00     0.038 C 
HETATM   12  C13 UNL     1      24.731   3.042  53.130  1.00  0.00     0.121 C 
HETATM   13  N1  UNL     1      24.452   2.777  51.744  1.00  0.00    -0.389 N 
HETATM   14  C14 UNL     1      23.497   3.318  50.842  1.00  0.00     0.035 A 
HETATM   15  C15 UNL     1      24.104   4.067  49.840  1.00  0.00     0.030 A 
HETATM   16  C16 UNL     1      23.428   4.728  48.806  1.00  0.00     0.002 A 
HETATM   17  C17 UNL     1      22.057   4.603  48.815  1.00  0.00     0.001 A 
HETATM   18  C18 UNL     1      21.454   3.861  49.807  1.00  0.00     0.011 A 
HETATM   19  C19 UNL     1      22.103   3.207  50.826  1.00  0.00    -0.014 A 
HETATM   20  C20 UNL     1      21.352   2.436  51.844  1.00  0.00     0.160 C 
HETATM   21  N2  UNL     1      21.515   0.996  51.596  1.00  0.00    -0.383 N 
HETATM   22  H13 UNL     1      27.121   1.011  51.406  1.00  0.00     0.059 HD
HETATM   23  H18 UNL     1      25.003   2.071  51.190  1.00  0.00     0.159 HD
HETATM   24  H25 UNL     1      21.815   0.117  51.139  1.00  0.00     0.160 HD
ENDROOT
BRANCH   2  25
HETATM   25  O1  UNL     1      20.859  -0.833  54.749  1.00  0.00    -0.358 OA
HETATM   26  H4  UNL     1      21.047  -0.584  55.721  1.00  0.00     0.217 HD
ENDBRANCH   2  25
BRANCH   1  27
HETATM   27  C2  UNL     1      19.410   0.051  52.512  1.00  0.00     0.022 C 
HETATM   28  C1  UNL     1      18.812   0.076  51.332  1.00  0.00     0.013 C 
ENDBRANCH   1  27
TORSDOF 2
ENDMDL
MODEL 4
REMARK VINA RESULT:      -8.1      2.250      5.545
REMARK  2 active torsions:
REMARK  status: ('A' for Active; 'I' for Inactive)
REMARK    1  A    between atoms: C2_2  and  C3_3 
REMARK    2  A    between atoms: C4_4  and  O1_5 
ROOT
HETATM    1  C3  UNL     1      26.608   2.023  52.174  1.00  0.00     0.061 C 
HETATM    2  C4  UNL     1      25.827   0.969  52.312  1.00  0.00     0.091 C 
HETATM    3  C5  UNL     1      24.441   0.929  51.883  1.00  0.00     0.036 C 
HETATM    4  C6  UNL     1      23.404   1.533  51.331  1.00  0.00    -0.009 C 
HETATM    5  C7  UNL     1      22.008   1.657  50.838  1.00  0.00     0.003 C 
HETATM    6  C8  UNL     1      21.190   0.432  51.201  1.00  0.00     0.045 C 
HETATM    7  C9  UNL     1      19.774   0.690  50.834  1.00  0.00    -0.029 C 
HETATM    8  C10 UNL     1      18.960   1.569  51.410  1.00  0.00    -0.026 C 
HETATM    9  C11 UNL     1      19.645   2.321  52.531  1.00  0.00     0.059 C 
HETATM   10  P1  UNL     1      21.144   3.095  51.688  1.00  0.00    -0.112 P 
HETATM   11  C12 UNL     1      21.948   1.899  49.374  1.00  0.00     0.038 C 
HETATM   12  C13 UNL     1      23.230   2.444  48.803  1.00  0.00     0.121 C 
HETATM   13  N1  UNL     1      23.581   3.725  49.355  1.00  0.00    -0.389 N 
HETATM   14  C14 UNL     1      24.692   4.584  49.142  1.00  0.00     0.035 A 
HETATM   15  C15 UNL     1      24.317   5.760  48.501  1.00  0.00     0.030 A 
HETATM   16  C16 UNL     1      25.187   6.801  48.152  1.00  0.00     0.002 A 
HETATM   17  C17 UNL     1      26.509   6.610  48.486  1.00  0.00     0.001 A 
HETATM   18  C18 UNL     1      26.882   5.446  49.121  1.00  0.00     0.011 A 
HETATM   19  C19 UNL     1      26.041   4.417  49.470  1.00  0.00    -0.014 A 
HETATM   20  C20 UNL     1      26.553   3.205  50.152  1.00  0.00     0.160 C 
HETATM   21  N2  UNL     1      26.163   3.232  51.570  1.00  0.00    -0.383 N 
HETATM   22  H13 UNL     1      20.686   4.081  50.714  1.00  0.00     0.059 HD
HETATM   23  H18 UNL     1      22.967   4.217  50.055  1.00  0.00     0.159 HD
HETATM   24  H25 UNL     1      25.757   3.571  52.459  1.00  0.00     0.160 HD
ENDROOT
BRANCH   2  25
HETATM   25  O1  UNL     1      26.207  -0.233  52.878  1.00  0.00    -0.358 OA
HETATM   26  H4  UNL     1      26.734  -0.263  53.751  1.00  0.00     0.217 HD
ENDBRANCH   2  25
BRANCH   1  27
HETATM   27  C2  UNL     1      27.981   1.932  52.651  1.00  0.00     0.022 C 
HETATM   28  C1  UNL     1      28.335   2.456  53.813  1.00  0.00     0.013 C 
ENDBRANCH   1  27
TORSDOF 2
ENDMDL
MODEL 5
REMARK VINA RESULT:      -7.8      6.879      9.796
REMARK  2 active torsions:
REMARK  status: ('A' for Active; 'I' for Inactive)
REMARK    1  A    between atoms: C2_2  and  C3_3 
REMARK    2  A    between atoms: C4_4  and  O1_5 
ROOT
HETATM    1  C3  UNL     1      27.346   6.920  48.209  1.00  0.00     0.061 C 
HETATM    2  C4  UNL     1      27.871   5.719  48.353  1.00  0.00     0.091 C 
HETATM    3  C5  UNL     1      29.286   5.432  48.208  1.00  0.00     0.036 C 
HETATM    4  C6  UNL     1      30.512   5.857  47.957  1.00  0.00    -0.009 C 
HETATM    5  C7  UNL     1      31.981   5.734  47.773  1.00  0.00     0.003 C 
HETATM    6  C8  UNL     1      32.418   4.281  47.815  1.00  0.00     0.045 C 
HETATM    7  C9  UNL     1      33.857   4.216  47.458  1.00  0.00    -0.029 C 
HETATM    8  C10 UNL     1      34.385   4.478  46.267  1.00  0.00    -0.026 C 
HETATM    9  C11 UNL     1      33.328   4.872  45.257  1.00  0.00     0.059 C 
HETATM   10  P1  UNL     1      32.477   6.347  46.066  1.00  0.00    -0.112 P 
HETATM   11  C12 UNL     1      32.740   6.527  48.774  1.00  0.00     0.038 C 
HETATM   12  C13 UNL     1      31.931   7.626  49.408  1.00  0.00     0.121 C 
HETATM   13  N1  UNL     1      31.483   8.604  48.453  1.00  0.00    -0.389 N 
HETATM   14  C14 UNL     1      30.685   9.772  48.585  1.00  0.00     0.035 A 
HETATM   15  C15 UNL     1      31.424  10.928  48.354  1.00  0.00     0.030 A 
HETATM   16  C16 UNL     1      30.918  12.233  48.414  1.00  0.00     0.002 A 
HETATM   17  C17 UNL     1      29.582  12.341  48.728  1.00  0.00     0.001 A 
HETATM   18  C18 UNL     1      28.849  11.197  48.957  1.00  0.00     0.011 A 
HETATM   19  C19 UNL     1      29.330   9.912  48.902  1.00  0.00    -0.014 A 
HETATM   20  C20 UNL     1      28.449   8.750  49.170  1.00  0.00     0.160 C 
HETATM   21  N2  UNL     1      28.132   8.068  47.907  1.00  0.00    -0.383 N 
HETATM   22  H13 UNL     1      33.426   7.452  46.161  1.00  0.00     0.059 HD
HETATM   23  H18 UNL     1      31.741   8.547  47.434  1.00  0.00     0.159 HD
HETATM   24  H25 UNL     1      28.104   7.866  46.892  1.00  0.00     0.160 HD
ENDROOT
BRANCH   2  25
HETATM   25  O1  UNL     1      27.161   4.573  48.659  1.00  0.00    -0.358 OA
HETATM   26  H4  UNL     1      26.226   4.414  48.282  1.00  0.00     0.217 HD
ENDBRANCH   2  25
BRANCH   1  27
HETATM   27  C2  UNL     1      25.907   7.071  48.380  1.00  0.00     0.022 C 
HETATM   28  C1  UNL     1      25.182   7.732  47.493  1.00  0.00     0.013 C 
ENDBRANCH   1  27
TORSDOF 2
ENDMDL
MODEL 6
REMARK VINA RESULT:      -7.7      2.330      6.440
REMARK  2 active torsions:
REMARK  status: ('A' for Active; 'I' for Inactive)
REMARK    1  A    between atoms: C2_2  and  C3_3 
REMARK    2  A    between atoms: C4_4  and  O1_5 
ROOT
HETATM    1  C3  UNL     1      22.058   3.251  47.885  1.00  0.00     0.061 C 
HETATM    2  C4  UNL     1      21.867   2.175  48.623  1.00  0.00     0.091 C 
HETATM    3  C5  UNL     1      22.603   1.889  49.841  1.00  0.00     0.036 C 
HETATM    4  C6  UNL     1      23.528   2.236  50.718  1.00  0.00    -0.009 C 
HETATM    5  C7  UNL     1      24.366   2.094  51.936  1.00  0.00     0.003 C 
HETATM    6  C8  UNL     1      24.148   0.744  52.595  1.00  0.00     0.045 C 
HETATM    7  C9  UNL     1      25.131   0.599  53.698  1.00  0.00    -0.029 C 
HETATM    8  C10 UNL     1      26.447   0.471  53.567  1.00  0.00    -0.026 C 
HETATM    9  C11 UNL     1      26.873   0.490  52.114  1.00  0.00     0.059 C 
HETATM   10  P1  UNL     1      26.190   2.127  51.478  1.00  0.00    -0.112 P 
HETATM   11  C12 UNL     1      24.128   3.186  52.914  1.00  0.00     0.038 C 
HETATM   12  C13 UNL     1      23.507   4.414  52.301  1.00  0.00     0.121 C 
HETATM   13  N1  UNL     1      24.345   5.017  51.300  1.00  0.00    -0.389 N 
HETATM   14  C14 UNL     1      24.164   6.145  50.457  1.00  0.00     0.035 A 
HETATM   15  C15 UNL     1      25.034   7.179  50.788  1.00  0.00     0.030 A 
HETATM   16  C16 UNL     1      25.094   8.420  50.141  1.00  0.00     0.002 A 
HETATM   17  C17 UNL     1      24.208   8.594  49.101  1.00  0.00     0.001 A 
HETATM   18  C18 UNL     1      23.346   7.571  48.772  1.00  0.00     0.011 A 
HETATM   19  C19 UNL     1      23.276   6.350  49.396  1.00  0.00    -0.014 A 
HETATM   20  C20 UNL     1      22.305   5.319  48.958  1.00  0.00     0.160 C 
HETATM   21  N2  UNL     1      23.007   4.255  48.226  1.00  0.00    -0.383 N 
HETATM   22  H13 UNL     1      26.879   3.225  52.151  1.00  0.00     0.059 HD
HETATM   23  H18 UNL     1      25.300   4.636  51.069  1.00  0.00     0.159 HD
HETATM   24  H25 UNL     1      23.778   3.733  47.775  1.00  0.00     0.160 HD
ENDROOT
BRANCH   2  25
HETATM   25  O1  UNL     1      20.952   1.176  48.349  1.00  0.00    -0.358 OA
HETATM   26  H4  UNL     1      20.790   0.414  49.008  1.00  0.00     0.217 HD
ENDBRANCH   2  25
BRANCH   1  27
HETATM   27  C2  UNL     1      21.252   3.417  46.683  1.00  0.00     0.022 C 
HETATM   28  C1  UNL     1      21.802   3.801  45.542  1.00  0.00     0.013 C 
ENDBRANCH   1  27
TORSDOF 2
ENDMDL
MODEL 7
REMARK VINA RESULT:      -7.6      3.102      4.758
REMARK  2 active torsions:
REMARK  status: ('A' for Active; 'I' for Inactive)
REMARK    1  A    between atoms: C2_2  and  C3_3 
REMARK    2  A    between atoms: C4_4  and  O1_5 
ROOT
HETATM    1  C3  UNL     1      22.319  -0.546  54.385  1.00  0.00     0.061 C 
HETATM    2  C4  UNL     1      21.104  -0.942  54.061  1.00  0.00     0.091 C 
HETATM    3  C5  UNL     1      20.295  -0.311  53.035  1.00  0.00     0.036 C 
HETATM    4  C6  UNL     1      20.156   0.626  52.113  1.00  0.00    -0.009 C 
HETATM    5  C7  UNL     1      19.462   1.382  51.039  1.00  0.00     0.003 C 
HETATM    6  C8  UNL     1      18.027   0.916  50.883  1.00  0.00     0.045 C 
HETATM    7  C9  UNL     1      17.345   1.820  49.922  1.00  0.00    -0.029 C 
HETATM    8  C10 UNL     1      17.048   3.100  50.120  1.00  0.00    -0.026 C 
HETATM    9  C11 UNL     1      17.494   3.576  51.486  1.00  0.00     0.059 C 
HETATM   10  P1  UNL     1      19.341   3.201  51.500  1.00  0.00    -0.112 P 
HETATM   11  C12 UNL     1      20.175   1.294  49.739  1.00  0.00     0.038 C 
HETATM   12  C13 UNL     1      21.624   0.911  49.875  1.00  0.00     0.121 C 
HETATM   13  N1  UNL     1      22.383   1.875  50.625  1.00  0.00    -0.389 N 
HETATM   14  C14 UNL     1      23.747   1.917  51.021  1.00  0.00     0.035 A 
HETATM   15  C15 UNL     1      24.439   2.935  50.373  1.00  0.00     0.030 A 
HETATM   16  C16 UNL     1      25.798   3.226  50.552  1.00  0.00     0.002 A 
HETATM   17  C17 UNL     1      26.468   2.421  51.446  1.00  0.00     0.001 A 
HETATM   18  C18 UNL     1      25.783   1.413  52.088  1.00  0.00     0.011 A 
HETATM   19  C19 UNL     1      24.453   1.116  51.924  1.00  0.00    -0.014 A 
HETATM   20  C20 UNL     1      23.817   0.003  52.669  1.00  0.00     0.160 C 
HETATM   21  N2  UNL     1      22.968   0.544  53.740  1.00  0.00    -0.383 N 
HETATM   22  H13 UNL     1      20.005   4.039  50.505  1.00  0.00     0.059 HD
HETATM   23  H18 UNL     1      21.949   2.760  50.995  1.00  0.00     0.159 HD
HETATM   24  H25 UNL     1      22.510   1.233  54.362  1.00  0.00     0.160 HD
ENDROOT
BRANCH   2  25
HETATM   25  O1  UNL     1      20.432  -2.001  54.643  1.00  0.00    -0.358 OA
HETATM   26  H4  UNL     1      19.794  -1.855  55.425  1.00  0.00     0.217 HD
ENDBRANCH   2  25
BRANCH   1  27
HETATM   27  C2  UNL     1      23.024  -1.267  55.437  1.00  0.00     0.022 C 
HETATM   28  C1  UNL     1      24.338  -1.176  55.563  1.00  0.00     0.013 C 
ENDBRANCH   1  27
TORSDOF 2
ENDMDL
MODEL 8
REMARK VINA RESULT:      -7.2      3.383      6.127
REMARK  2 active torsions:
REMARK  status: ('A' for Active; 'I' for Inactive)
REMARK    1  A    between atoms: C2_2  and  C3_3 
REMARK    2  A    between atoms: C4_4  and  O1_5 
ROOT
HETATM    1  C3  UNL     1      23.069  -0.070  53.264  1.00  0.00     0.061 C 
HETATM    2  C4  UNL     1      23.678   1.038  52.892  1.00  0.00     0.091 C 
HETATM    3  C5  UNL     1      23.157   1.949  51.889  1.00  0.00     0.036 C 
HETATM    4  C6  UNL     1      22.214   2.261  51.018  1.00  0.00    -0.009 C 
HETATM    5  C7  UNL     1      21.546   3.083  49.976  1.00  0.00     0.003 C 
HETATM    6  C8  UNL     1      22.429   4.237  49.540  1.00  0.00     0.045 C 
HETATM    7  C9  UNL     1      21.781   4.912  48.387  1.00  0.00    -0.029 C 
HETATM    8  C10 UNL     1      21.615   4.405  47.170  1.00  0.00    -0.026 C 
HETATM    9  C11 UNL     1      22.176   3.002  47.063  1.00  0.00     0.059 C 
HETATM   10  P1  UNL     1      21.268   2.062  48.421  1.00  0.00    -0.112 P 
HETATM   11  C12 UNL     1      20.223   3.590  50.423  1.00  0.00     0.038 C 
HETATM   12  C13 UNL     1      19.635   2.805  51.565  1.00  0.00     0.121 C 
HETATM   13  N1  UNL     1      19.385   1.431  51.220  1.00  0.00    -0.389 N 
HETATM   14  C14 UNL     1      18.876   0.336  51.969  1.00  0.00     0.035 A 
HETATM   15  C15 UNL     1      17.626  -0.064  51.510  1.00  0.00     0.030 A 
HETATM   16  C16 UNL     1      16.868  -1.114  52.047  1.00  0.00     0.002 A 
HETATM   17  C17 UNL     1      17.438  -1.777  53.110  1.00  0.00     0.001 A 
HETATM   18  C18 UNL     1      18.676  -1.382  53.566  1.00  0.00     0.011 A 
HETATM   19  C19 UNL     1      19.431  -0.357  53.051  1.00  0.00    -0.014 A 
HETATM   20  C20 UNL     1      20.755  -0.015  53.622  1.00  0.00     0.160 C 
HETATM   21  N2  UNL     1      21.819  -0.478  52.720  1.00  0.00    -0.383 N 
HETATM   22  H13 UNL     1      19.849   1.993  48.086  1.00  0.00     0.059 HD
HETATM   23  H18 UNL     1      19.572   1.056  50.254  1.00  0.00     0.159 HD
HETATM   24  H25 UNL     1      22.276  -0.927  51.908  1.00  0.00     0.160 HD
ENDROOT
BRANCH   2  25
HETATM   25  O1  UNL     1      24.884   1.490  53.394  1.00  0.00    -0.358 OA
HETATM   26  H4  UNL     1      25.311   2.350  53.048  1.00  0.00     0.217 HD
ENDBRANCH   2  25
BRANCH   1  27
HETATM   27  C2  UNL     1      23.703  -0.898  54.282  1.00  0.00     0.022 C 
HETATM   28  C1  UNL     1      23.034  -1.288  55.355  1.00  0.00     0.013 C 
ENDBRANCH   1  27
TORSDOF 2
ENDMDL
MODEL 9
REMARK VINA RESULT:      -7.0      3.582      5.702
REMARK  2 active torsions:
REMARK  status: ('A' for Active; 'I' for Inactive)
REMARK    1  A    between atoms: C2_2  and  C3_3 
REMARK    2  A    between atoms: C4_4  and  O1_5 
ROOT
HETATM    1  C3  UNL     1      24.499   4.267  49.819  1.00  0.00     0.061 C 
HETATM    2  C4  UNL     1      23.614   5.194  49.509  1.00  0.00     0.091 C 
HETATM    3  C5  UNL     1      22.179   5.020  49.643  1.00  0.00     0.036 C 
HETATM    4  C6  UNL     1      21.154   4.257  49.979  1.00  0.00    -0.009 C 
HETATM    5  C7  UNL     1      19.721   3.917  50.176  1.00  0.00     0.003 C 
HETATM    6  C8  UNL     1      18.820   5.012  49.635  1.00  0.00     0.045 C 
HETATM    7  C9  UNL     1      17.415   4.538  49.706  1.00  0.00    -0.029 C 
HETATM    8  C10 UNL     1      16.878   3.557  48.988  1.00  0.00    -0.026 C 
HETATM    9  C11 UNL     1      17.884   2.935  48.043  1.00  0.00     0.059 C 
HETATM   10  P1  UNL     1      19.276   2.381  49.187  1.00  0.00    -0.112 P 
HETATM   11  C12 UNL     1      19.399   3.644  51.600  1.00  0.00     0.038 C 
HETATM   12  C13 UNL     1      20.603   3.288  52.430  1.00  0.00     0.121 C 
HETATM   13  N1  UNL     1      21.248   2.083  51.980  1.00  0.00    -0.389 N 
HETATM   14  C14 UNL     1      22.408   1.397  52.429  1.00  0.00     0.035 A 
HETATM   15  C15 UNL     1      22.090   0.167  52.996  1.00  0.00     0.030 A 
HETATM   16  C16 UNL     1      23.016  -0.737  53.531  1.00  0.00     0.002 A 
HETATM   17  C17 UNL     1      24.335  -0.345  53.474  1.00  0.00     0.001 A 
HETATM   18  C18 UNL     1      24.651   0.873  52.912  1.00  0.00     0.011 A 
HETATM   19  C19 UNL     1      23.755   1.770  52.383  1.00  0.00    -0.014 A 
HETATM   20  C20 UNL     1      24.208   3.056  51.803  1.00  0.00     0.160 C 
HETATM   21  N2  UNL     1      24.126   2.995  50.337  1.00  0.00    -0.383 N 
HETATM   22  H13 UNL     1      18.781   1.320  50.060  1.00  0.00     0.059 HD
HETATM   23  H18 UNL     1      20.872   1.517  51.176  1.00  0.00     0.159 HD
HETATM   24  H25 UNL     1      23.967   2.614  49.388  1.00  0.00     0.160 HD
ENDROOT
BRANCH   2  25
HETATM   25  O1  UNL     1      23.917   6.450  49.016  1.00  0.00    -0.358 OA
HETATM   26  H4  UNL     1      24.850   6.668  48.666  1.00  0.00     0.217 HD
ENDBRANCH   2  25
BRANCH   1  27
HETATM   27  C2  UNL     1      25.911   4.571  49.634  1.00  0.00     0.022 C 
HETATM   28  C1  UNL     1      26.784   3.614  49.363  1.00  0.00     0.013 C 
ENDBRANCH   1  27
TORSDOF 2
ENDMDL
