MODEL 1
REMARK VINA RESULT:      -7.4      0.000      0.000
REMARK  4 active torsions:
REMARK  status: ('A' for Active; 'I' for Inactive)
REMARK    1  A    between atoms: C6_7  and  C7_8 
REMARK    2  A    between atoms: C7_8  and  S1_10 
REMARK    3  A    between atoms: S1_10  and  C8_11 
REMARK    4  A    between atoms: C10_13  and  O2_14 
ROOT
HETATM    1  O2  UNL     1      28.334   4.677  48.246  1.00  0.00    -0.268 OA
HETATM    2  C11 UNL     1      29.033   5.852  48.228  1.00  0.00     0.022 C 
HETATM    3  P1  UNL     1      29.843   7.169  48.211  1.00  0.00     0.079 P 
ENDROOT
BRANCH   1   4
HETATM    4  C10 UNL     1      27.151   4.665  48.997  1.00  0.00     0.088 A 
HETATM    5  C9  UNL     1      26.759   3.525  49.707  1.00  0.00     0.059 A 
HETATM    6  C8  UNL     1      25.580   3.613  50.415  1.00  0.00     0.038 A 
HETATM    7  C14 UNL     1      24.812   4.755  50.436  1.00  0.00     0.053 A 
HETATM    8  C13 UNL     1      25.256   5.852  49.712  1.00  0.00    -0.010 A 
HETATM    9  N2  UNL     1      23.665   5.487  50.862  1.00  0.00    -0.384 N 
HETATM   10  C12 UNL     1      26.421   5.843  48.981  1.00  0.00     0.049 A 
HETATM   11  C15 UNL     1      24.073   6.665  50.128  1.00  0.00     0.161 A 
HETATM   12  H9  UNL     1      22.864   5.205  51.482  1.00  0.00     0.160 HD
BRANCH   6  13
HETATM   13  S1  UNL     1      25.078   2.174  51.314  1.00  0.00    -0.045 SA
BRANCH  13  14
HETATM   14  C7  UNL     1      25.463   2.317  53.049  1.00  0.00     0.226 C 
HETATM   15  O1  UNL     1      24.723   3.015  53.756  1.00  0.00    -0.279 OA
BRANCH  14  16
HETATM   16  C6  UNL     1      26.621   1.619  53.593  1.00  0.00     0.045 A 
HETATM   17  C2  UNL     1      26.500   0.360  54.138  1.00  0.00     0.045 A 
HETATM   18  C1  UNL     1      25.169  -0.310  54.176  1.00  0.00     0.071 C 
HETATM   19  N1  UNL     1      27.587  -0.268  54.638  1.00  0.00    -0.265 NA
HETATM   20  C3  UNL     1      28.794   0.320  54.612  1.00  0.00     0.117 A 
HETATM   21  C4  UNL     1      28.977   1.575  54.082  1.00  0.00     0.020 A 
HETATM   22  C5  UNL     1      27.866   2.215  53.572  1.00  0.00     0.019 A 
ENDBRANCH  14  16
ENDBRANCH  13  14
ENDBRANCH   6  13
ENDBRANCH   1   4
TORSDOF 4
ENDMDL
MODEL 2
REMARK VINA RESULT:      -7.3      3.709      5.004
REMARK  4 active torsions:
REMARK  status: ('A' for Active; 'I' for Inactive)
REMARK    1  A    between atoms: C6_7  and  C7_8 
REMARK    2  A    between atoms: C7_8  and  S1_10 
REMARK    3  A    between atoms: S1_10  and  C8_11 
REMARK    4  A    between atoms: C10_13  and  O2_14 
ROOT
HETATM    1  O2  UNL     1      22.538   2.126  49.121  1.00  0.00    -0.268 OA
HETATM    2  C11 UNL     1      22.750   3.461  48.920  1.00  0.00     0.022 C 
HETATM    3  P1  UNL     1      23.002   4.967  48.673  1.00  0.00     0.079 P 
ENDROOT
BRANCH   1   4
HETATM    4  C10 UNL     1      22.717   1.655  50.430  1.00  0.00     0.088 A 
HETATM    5  C9  UNL     1      23.848   2.005  51.173  1.00  0.00     0.059 A 
HETATM    6  C8  UNL     1      23.932   1.491  52.449  1.00  0.00     0.038 A 
HETATM    7  C14 UNL     1      22.962   0.674  52.984  1.00  0.00     0.053 A 
HETATM    8  C13 UNL     1      21.864   0.364  52.195  1.00  0.00    -0.010 A 
HETATM    9  N2  UNL     1      22.433  -0.113  54.048  1.00  0.00    -0.384 N 
HETATM   10  C12 UNL     1      21.707   0.837  50.913  1.00  0.00     0.049 A 
HETATM   11  C15 UNL     1      21.264  -0.473  53.277  1.00  0.00     0.161 A 
HETATM   12  H9  UNL     1      22.813  -0.310  55.009  1.00  0.00     0.160 HD
BRANCH   6  13
HETATM   13  S1  UNL     1      25.361   1.930  53.396  1.00  0.00    -0.045 SA
BRANCH  13  14
HETATM   14  C7  UNL     1      26.866   1.422  52.586  1.00  0.00     0.226 C 
HETATM   15  O1  UNL     1      27.454   2.248  51.874  1.00  0.00    -0.279 OA
BRANCH  14  16
HETATM   16  C6  UNL     1      27.369   0.066  52.776  1.00  0.00     0.045 A 
HETATM   17  C2  UNL     1      28.519  -0.169  53.494  1.00  0.00     0.045 A 
HETATM   18  C1  UNL     1      29.270   0.970  54.094  1.00  0.00     0.071 C 
HETATM   19  N1  UNL     1      28.967  -1.434  53.658  1.00  0.00    -0.265 NA
HETATM   20  C3  UNL     1      28.303  -2.473  53.126  1.00  0.00     0.117 A 
HETATM   21  C4  UNL     1      27.150  -2.300  52.398  1.00  0.00     0.020 A 
HETATM   22  C5  UNL     1      26.694  -1.008  52.233  1.00  0.00     0.019 A 
ENDBRANCH  14  16
ENDBRANCH  13  14
ENDBRANCH   6  13
ENDBRANCH   1   4
TORSDOF 4
ENDMDL
MODEL 3
REMARK VINA RESULT:      -7.1      4.251      5.331
REMARK  4 active torsions:
REMARK  status: ('A' for Active; 'I' for Inactive)
REMARK    1  A    between atoms: C6_7  and  C7_8 
REMARK    2  A    between atoms: C7_8  and  S1_10 
REMARK    3  A    between atoms: S1_10  and  C8_11 
REMARK    4  A    between atoms: C10_13  and  O2_14 
ROOT
HETATM    1  O2  UNL     1      21.100   0.592  51.940  1.00  0.00    -0.268 OA
HETATM    2  C11 UNL     1      20.965  -0.319  52.951  1.00  0.00     0.022 C 
HETATM    3  P1  UNL     1      20.790  -1.349  54.092  1.00  0.00     0.079 P 
ENDROOT
BRANCH   1   4
HETATM    4  C10 UNL     1      22.002   1.642  52.161  1.00  0.00     0.088 A 
HETATM    5  C9  UNL     1      23.249   1.409  52.750  1.00  0.00     0.059 A 
HETATM    6  C8  UNL     1      24.064   2.506  52.924  1.00  0.00     0.038 A 
HETATM    7  C14 UNL     1      23.690   3.774  52.545  1.00  0.00     0.053 A 
HETATM    8  C13 UNL     1      22.440   3.940  51.966  1.00  0.00    -0.010 A 
HETATM    9  N2  UNL     1      23.943   5.172  52.421  1.00  0.00    -0.384 N 
HETATM   10  C12 UNL     1      21.569   2.895  51.758  1.00  0.00     0.049 A 
HETATM   11  C15 UNL     1      22.653   5.410  51.812  1.00  0.00     0.161 A 
HETATM   12  H9  UNL     1      24.783   5.743  52.695  1.00  0.00     0.160 HD
BRANCH   6  13
HETATM   13  S1  UNL     1      25.644   2.218  53.669  1.00  0.00    -0.045 SA
BRANCH  13  14
HETATM   14  C7  UNL     1      26.816   1.571  52.493  1.00  0.00     0.226 C 
HETATM   15  O1  UNL     1      26.750   1.970  51.322  1.00  0.00    -0.279 OA
BRANCH  14  16
HETATM   16  C6  UNL     1      27.815   0.601  52.925  1.00  0.00     0.045 A 
HETATM   17  C2  UNL     1      27.544  -0.749  52.913  1.00  0.00     0.045 A 
HETATM   18  C1  UNL     1      26.214  -1.239  52.452  1.00  0.00     0.071 C 
HETATM   19  N1  UNL     1      28.485  -1.631  53.318  1.00  0.00    -0.265 NA
HETATM   20  C3  UNL     1      29.690  -1.209  53.736  1.00  0.00     0.117 A 
HETATM   21  C4  UNL     1      30.018   0.126  53.770  1.00  0.00     0.020 A 
HETATM   22  C5  UNL     1      29.055   1.024  53.355  1.00  0.00     0.019 A 
ENDBRANCH  14  16
ENDBRANCH  13  14
ENDBRANCH   6  13
ENDBRANCH   1   4
TORSDOF 4
ENDMDL
MODEL 4
REMARK VINA RESULT:      -7.1      2.569      3.781
REMARK  4 active torsions:
REMARK  status: ('A' for Active; 'I' for Inactive)
REMARK    1  A    between atoms: C6_7  and  C7_8 
REMARK    2  A    between atoms: C7_8  and  S1_10 
REMARK    3  A    between atoms: S1_10  and  C8_11 
REMARK    4  A    between atoms: C10_13  and  O2_14 
ROOT
HETATM    1  O2  UNL     1      27.206   3.652  49.031  1.00  0.00    -0.268 OA
HETATM    2  C11 UNL     1      27.430   4.959  48.700  1.00  0.00     0.022 C 
HETATM    3  P1  UNL     1      27.708   6.435  48.327  1.00  0.00     0.079 P 
ENDROOT
BRANCH   1   4
HETATM    4  C10 UNL     1      26.186   3.410  49.962  1.00  0.00     0.088 A 
HETATM    5  C9  UNL     1      26.433   2.671  51.124  1.00  0.00     0.059 A 
HETATM    6  C8  UNL     1      25.366   2.488  51.977  1.00  0.00     0.038 A 
HETATM    7  C14 UNL     1      24.114   2.997  51.718  1.00  0.00     0.053 A 
HETATM    8  C13 UNL     1      23.935   3.721  50.548  1.00  0.00    -0.010 A 
HETATM    9  N2  UNL     1      22.744   3.193  52.062  1.00  0.00    -0.384 N 
HETATM   10  C12 UNL     1      24.949   3.948  49.646  1.00  0.00     0.049 A 
HETATM   11  C15 UNL     1      22.493   3.957  50.860  1.00  0.00     0.161 A 
HETATM   12  H9  UNL     1      22.195   2.870  52.898  1.00  0.00     0.160 HD
BRANCH   6  13
HETATM   13  S1  UNL     1      25.671   1.554  53.449  1.00  0.00    -0.045 SA
BRANCH  13  14
HETATM   14  C7  UNL     1      25.134  -0.138  53.276  1.00  0.00     0.226 C 
HETATM   15  O1  UNL     1      25.929  -0.956  52.791  1.00  0.00    -0.279 OA
BRANCH  14  16
HETATM   16  C6  UNL     1      23.794  -0.520  53.703  1.00  0.00     0.045 A 
HETATM   17  C2  UNL     1      23.571  -1.040  54.958  1.00  0.00     0.045 A 
HETATM   18  C1  UNL     1      24.709  -1.219  55.904  1.00  0.00     0.071 C 
HETATM   19  N1  UNL     1      22.319  -1.388  55.334  1.00  0.00    -0.265 NA
HETATM   20  C3  UNL     1      21.282  -1.233  54.495  1.00  0.00     0.117 A 
HETATM   21  C4  UNL     1      21.443  -0.720  53.230  1.00  0.00     0.020 A 
HETATM   22  C5  UNL     1      22.721  -0.365  52.850  1.00  0.00     0.019 A 
ENDBRANCH  14  16
ENDBRANCH  13  14
ENDBRANCH   6  13
ENDBRANCH   1   4
TORSDOF 4
ENDMDL
MODEL 5
REMARK VINA RESULT:      -7.1      3.112      6.510
REMARK  4 active torsions:
REMARK  status: ('A' for Active; 'I' for Inactive)
REMARK    1  A    between atoms: C6_7  and  C7_8 
REMARK    2  A    between atoms: C7_8  and  S1_10 
REMARK    3  A    between atoms: S1_10  and  C8_11 
REMARK    4  A    between atoms: C10_13  and  O2_14 
ROOT
HETATM    1  O2  UNL     1      27.010  -0.366  52.551  1.00  0.00    -0.268 OA
HETATM    2  C11 UNL     1      27.968   0.240  53.317  1.00  0.00     0.022 C 
HETATM    3  P1  UNL     1      29.059   0.903  54.189  1.00  0.00     0.079 P 
ENDROOT
BRANCH   1   4
HETATM    4  C10 UNL     1      25.709   0.145  52.659  1.00  0.00     0.088 A 
HETATM    5  C9  UNL     1      25.371   1.381  52.098  1.00  0.00     0.059 A 
HETATM    6  C8  UNL     1      24.067   1.796  52.257  1.00  0.00     0.038 A 
HETATM    7  C14 UNL     1      23.129   1.048  52.930  1.00  0.00     0.053 A 
HETATM    8  C13 UNL     1      23.526  -0.170  53.464  1.00  0.00    -0.010 A 
HETATM    9  N2  UNL     1      21.807   0.844  53.425  1.00  0.00    -0.384 N 
HETATM   10  C12 UNL     1      24.809  -0.654  53.347  1.00  0.00     0.049 A 
HETATM   11  C15 UNL     1      22.159  -0.434  54.004  1.00  0.00     0.161 A 
HETATM   12  H9  UNL     1      20.948   1.447  53.354  1.00  0.00     0.160 HD
BRANCH   6  13
HETATM   13  S1  UNL     1      23.633   3.359  51.550  1.00  0.00    -0.045 SA
BRANCH  13  14
HETATM   14  C7  UNL     1      24.044   3.432  49.816  1.00  0.00     0.226 C 
HETATM   15  O1  UNL     1      23.384   2.738  49.030  1.00  0.00    -0.279 OA
BRANCH  14  16
HETATM   16  C6  UNL     1      25.131   4.293  49.365  1.00  0.00     0.045 A 
HETATM   17  C2  UNL     1      24.888   5.584  48.953  1.00  0.00     0.045 A 
HETATM   18  C1  UNL     1      23.497   6.121  48.965  1.00  0.00     0.071 C 
HETATM   19  N1  UNL     1      25.910   6.365  48.539  1.00  0.00    -0.265 NA
HETATM   20  C3  UNL     1      27.169   5.899  48.522  1.00  0.00     0.117 A 
HETATM   21  C4  UNL     1      27.473   4.619  48.920  1.00  0.00     0.020 A 
HETATM   22  C5  UNL     1      26.428   3.823  49.344  1.00  0.00     0.019 A 
ENDBRANCH  14  16
ENDBRANCH  13  14
ENDBRANCH   6  13
ENDBRANCH   1   4
TORSDOF 4
ENDMDL
MODEL 6
REMARK VINA RESULT:      -7.1      4.898      6.460
REMARK  4 active torsions:
REMARK  status: ('A' for Active; 'I' for Inactive)
REMARK    1  A    between atoms: C6_7  and  C7_8 
REMARK    2  A    between atoms: C7_8  and  S1_10 
REMARK    3  A    between atoms: S1_10  and  C8_11 
REMARK    4  A    between atoms: C10_13  and  O2_14 
ROOT
HETATM    1  O2  UNL     1      19.988   1.923  52.526  1.00  0.00    -0.268 OA
HETATM    2  C11 UNL     1      19.696   1.852  51.192  1.00  0.00     0.022 C 
HETATM    3  P1  UNL     1      19.343   1.767  49.688  1.00  0.00     0.079 P 
ENDROOT
BRANCH   1   4
HETATM    4  C10 UNL     1      21.144   1.253  52.950  1.00  0.00     0.088 A 
HETATM    5  C9  UNL     1      22.395   1.558  52.402  1.00  0.00     0.059 A 
HETATM    6  C8  UNL     1      23.471   0.845  52.885  1.00  0.00     0.038 A 
HETATM    7  C14 UNL     1      23.343  -0.121  53.856  1.00  0.00     0.053 A 
HETATM    8  C13 UNL     1      22.076  -0.377  54.359  1.00  0.00    -0.010 A 
HETATM    9  N2  UNL     1      23.896  -1.115  54.717  1.00  0.00    -0.384 N 
HETATM   10  C12 UNL     1      20.952   0.292  53.929  1.00  0.00     0.049 A 
HETATM   11  C15 UNL     1      22.601  -1.427  55.282  1.00  0.00     0.161 A 
HETATM   12  H9  UNL     1      24.888  -1.441  54.838  1.00  0.00     0.160 HD
BRANCH   6  13
HETATM   13  S1  UNL     1      25.056   1.225  52.196  1.00  0.00    -0.045 SA
BRANCH  13  14
HETATM   14  C7  UNL     1      26.306   1.360  53.460  1.00  0.00     0.226 C 
HETATM   15  O1  UNL     1      26.138   2.194  54.361  1.00  0.00    -0.279 OA
BRANCH  14  16
HETATM   16  C6  UNL     1      27.481   0.499  53.411  1.00  0.00     0.045 A 
HETATM   17  C2  UNL     1      28.749   1.021  53.534  1.00  0.00     0.045 A 
HETATM   18  C1  UNL     1      28.935   2.488  53.722  1.00  0.00     0.071 C 
HETATM   19  N1  UNL     1      29.825   0.204  53.486  1.00  0.00    -0.265 NA
HETATM   20  C3  UNL     1      29.676  -1.119  53.317  1.00  0.00     0.117 A 
HETATM   21  C4  UNL     1      28.436  -1.699  53.188  1.00  0.00     0.020 A 
HETATM   22  C5  UNL     1      27.339  -0.863  53.238  1.00  0.00     0.019 A 
ENDBRANCH  14  16
ENDBRANCH  13  14
ENDBRANCH   6  13
ENDBRANCH   1   4
TORSDOF 4
ENDMDL
MODEL 7
REMARK VINA RESULT:      -6.9      3.812      6.961
REMARK  4 active torsions:
REMARK  status: ('A' for Active; 'I' for Inactive)
REMARK    1  A    between atoms: C6_7  and  C7_8 
REMARK    2  A    between atoms: C7_8  and  S1_10 
REMARK    3  A    between atoms: S1_10  and  C8_11 
REMARK    4  A    between atoms: C10_13  and  O2_14 
ROOT
HETATM    1  O2  UNL     1      22.087  -0.599  52.627  1.00  0.00    -0.268 OA
HETATM    2  C11 UNL     1      20.812  -0.144  52.436  1.00  0.00     0.022 C 
HETATM    3  P1  UNL     1      19.367   0.354  52.203  1.00  0.00     0.079 P 
ENDROOT
BRANCH   1   4
HETATM    4  C10 UNL     1      23.086   0.377  52.756  1.00  0.00     0.088 A 
HETATM    5  C9  UNL     1      22.944   1.635  52.163  1.00  0.00     0.059 A 
HETATM    6  C8  UNL     1      23.981   2.525  52.346  1.00  0.00     0.038 A 
HETATM    7  C14 UNL     1      25.106   2.211  53.073  1.00  0.00     0.053 A 
HETATM    8  C13 UNL     1      25.186   0.946  53.636  1.00  0.00    -0.010 A 
HETATM    9  N2  UNL     1      26.383   2.544  53.613  1.00  0.00    -0.384 N 
HETATM   10  C12 UNL     1      24.195   0.002  53.499  1.00  0.00     0.049 A 
HETATM   11  C15 UNL     1      26.527   1.241  54.226  1.00  0.00     0.161 A 
HETATM   12  H9  UNL     1      26.945   3.430  53.547  1.00  0.00     0.160 HD
BRANCH   6  13
HETATM   13  S1  UNL     1      23.808   4.120  51.598  1.00  0.00    -0.045 SA
BRANCH  13  14
HETATM   14  C7  UNL     1      24.175   4.069  49.854  1.00  0.00     0.226 C 
HETATM   15  O1  UNL     1      23.360   3.518  49.101  1.00  0.00    -0.279 OA
BRANCH  14  16
HETATM   16  C6  UNL     1      25.406   4.670  49.356  1.00  0.00     0.045 A 
HETATM   17  C2  UNL     1      26.580   3.953  49.318  1.00  0.00     0.045 A 
HETATM   18  C1  UNL     1      26.606   2.539  49.790  1.00  0.00     0.071 C 
HETATM   19  N1  UNL     1      27.711   4.530  48.852  1.00  0.00    -0.265 NA
HETATM   20  C3  UNL     1      27.707   5.802  48.422  1.00  0.00     0.117 A 
HETATM   21  C4  UNL     1      26.565   6.568  48.436  1.00  0.00     0.020 A 
HETATM   22  C5  UNL     1      25.412   5.977  48.912  1.00  0.00     0.019 A 
ENDBRANCH  14  16
ENDBRANCH  13  14
ENDBRANCH   6  13
ENDBRANCH   1   4
TORSDOF 4
ENDMDL
MODEL 8
REMARK VINA RESULT:      -6.8      2.852      3.445
REMARK  4 active torsions:
REMARK  status: ('A' for Active; 'I' for Inactive)
REMARK    1  A    between atoms: C6_7  and  C7_8 
REMARK    2  A    between atoms: C7_8  and  S1_10 
REMARK    3  A    between atoms: S1_10  and  C8_11 
REMARK    4  A    between atoms: C10_13  and  O2_14 
ROOT
HETATM    1  O2  UNL     1      21.810   4.414  48.587  1.00  0.00    -0.268 OA
HETATM    2  C11 UNL     1      21.756   4.401  47.221  1.00  0.00     0.022 C 
HETATM    3  P1  UNL     1      21.673   4.374  45.676  1.00  0.00     0.079 P 
ENDROOT
BRANCH   1   4
HETATM    4  C10 UNL     1      23.046   4.092  49.166  1.00  0.00     0.088 A 
HETATM    5  C9  UNL     1      23.156   3.057  50.100  1.00  0.00     0.059 A 
HETATM    6  C8  UNL     1      24.413   2.818  50.612  1.00  0.00     0.038 A 
HETATM    7  C14 UNL     1      25.517   3.549  50.236  1.00  0.00     0.053 A 
HETATM    8  C13 UNL     1      25.341   4.562  49.305  1.00  0.00    -0.010 A 
HETATM    9  N2  UNL     1      26.910   3.845  50.311  1.00  0.00    -0.384 N 
HETATM   10  C12 UNL     1      24.120   4.863  48.748  1.00  0.00     0.049 A 
HETATM   11  C15 UNL     1      26.793   4.915  49.345  1.00  0.00     0.161 A 
HETATM   12  H9  UNL     1      27.674   3.403  50.882  1.00  0.00     0.160 HD
BRANCH   6  13
HETATM   13  S1  UNL     1      24.560   1.510  51.794  1.00  0.00    -0.045 SA
BRANCH  13  14
HETATM   14  C7  UNL     1      25.423   2.044  53.260  1.00  0.00     0.226 C 
HETATM   15  O1  UNL     1      24.942   2.982  53.912  1.00  0.00    -0.279 OA
BRANCH  14  16
HETATM   16  C6  UNL     1      26.656   1.376  53.658  1.00  0.00     0.045 A 
HETATM   17  C2  UNL     1      26.628   0.177  54.333  1.00  0.00     0.045 A 
HETATM   18  C1  UNL     1      25.321  -0.459  54.668  1.00  0.00     0.071 C 
HETATM   19  N1  UNL     1      27.783  -0.425  54.693  1.00  0.00    -0.265 NA
HETATM   20  C3  UNL     1      28.969   0.133  54.400  1.00  0.00     0.117 A 
HETATM   21  C4  UNL     1      29.061   1.329  53.729  1.00  0.00     0.020 A 
HETATM   22  C5  UNL     1      27.880   1.941  53.362  1.00  0.00     0.019 A 
ENDBRANCH  14  16
ENDBRANCH  13  14
ENDBRANCH   6  13
ENDBRANCH   1   4
TORSDOF 4
ENDMDL
MODEL 9
REMARK VINA RESULT:      -6.7      3.875      7.484
REMARK  4 active torsions:
REMARK  status: ('A' for Active; 'I' for Inactive)
REMARK    1  A    between atoms: C6_7  and  C7_8 
REMARK    2  A    between atoms: C7_8  and  S1_10 
REMARK    3  A    between atoms: S1_10  and  C8_11 
REMARK    4  A    between atoms: C10_13  and  O2_14 
ROOT
HETATM    1  O2  UNL     1      23.905  -1.098  54.641  1.00  0.00    -0.268 OA
HETATM    2  C11 UNL     1      22.641  -0.622  54.430  1.00  0.00     0.022 C 
HETATM    3  P1  UNL     1      21.204  -0.104  54.183  1.00  0.00     0.079 P 
ENDROOT
BRANCH   1   4
HETATM    4  C10 UNL     1      24.960  -0.291  54.193  1.00  0.00     0.088 A 
HETATM    5  C9  UNL     1      24.780   0.612  53.141  1.00  0.00     0.059 A 
HETATM    6  C8  UNL     1      25.877   1.360  52.774  1.00  0.00     0.038 A 
HETATM    7  C14 UNL     1      27.097   1.240  53.399  1.00  0.00     0.053 A 
HETATM    8  C13 UNL     1      27.211   0.326  54.436  1.00  0.00    -0.010 A 
HETATM    9  N2  UNL     1      28.467   1.606  53.557  1.00  0.00    -0.384 N 
HETATM   10  C12 UNL     1      26.163  -0.457  54.861  1.00  0.00     0.049 A 
HETATM   11  C15 UNL     1      28.650   0.671  54.646  1.00  0.00     0.161 A 
HETATM   12  H9  UNL     1      29.053   2.306  53.036  1.00  0.00     0.160 HD
BRANCH   6  13
HETATM   13  S1  UNL     1      25.657   2.504  51.442  1.00  0.00    -0.045 SA
BRANCH  13  14
HETATM   14  C7  UNL     1      23.973   3.083  51.347  1.00  0.00     0.226 C 
HETATM   15  O1  UNL     1      23.595   3.921  52.178  1.00  0.00    -0.279 OA
BRANCH  14  16
HETATM   16  C6  UNL     1      23.088   2.569  50.309  1.00  0.00     0.045 A 
HETATM   17  C2  UNL     1      22.974   3.208  49.094  1.00  0.00     0.045 A 
HETATM   18  C1  UNL     1      23.763   4.444  48.825  1.00  0.00     0.071 C 
HETATM   19  N1  UNL     1      22.147   2.714  48.146  1.00  0.00    -0.265 NA
HETATM   20  C3  UNL     1      21.429   1.602  48.370  1.00  0.00     0.117 A 
HETATM   21  C4  UNL     1      21.501   0.922  49.563  1.00  0.00     0.020 A 
HETATM   22  C5  UNL     1      22.346   1.427  50.529  1.00  0.00     0.019 A 
ENDBRANCH  14  16
ENDBRANCH  13  14
ENDBRANCH   6  13
ENDBRANCH   1   4
TORSDOF 4
ENDMDL
