MODEL 1
REMARK VINA RESULT:      -6.8      0.000      0.000
REMARK  5 active torsions:
REMARK  status: ('A' for Active; 'I' for Inactive)
REMARK    1  A    between atoms: C2_2  and  C3_4 
REMARK    2  A    between atoms: C4_5  and  C5_6 
REMARK    3  A    between atoms: C5_6  and  O1_7 
REMARK    4  A    between atoms: O1_7  and  C6_8 
REMARK    5  A    between atoms: C10_13  and  C11_14 
ROOT
HETATM    1  C6  UNL     1      24.516   2.914  51.162  1.00  0.00     0.177 A 
HETATM    2  N1  UNL     1      24.245   3.850  50.235  1.00  0.00    -0.236 NA
HETATM    3  C7  UNL     1      25.156   4.410  49.423  1.00  0.00     0.119 A 
HETATM    4  C8  UNL     1      26.486   4.049  49.487  1.00  0.00     0.020 A 
HETATM    5  C9  UNL     1      26.788   3.090  50.431  1.00  0.00     0.020 A 
HETATM    6  C10 UNL     1      25.854   2.513  51.268  1.00  0.00     0.046 A 
ENDROOT
BRANCH   1   7
HETATM    7  O1  UNL     1      23.569   2.340  51.998  1.00  0.00    -0.330 OA
BRANCH   7   8
HETATM    8  C5  UNL     1      22.730   1.348  51.444  1.00  0.00     0.205 C 
BRANCH   8   9
HETATM    9  C4  UNL     1      22.319   0.343  52.458  1.00  0.00     0.001 C 
HETATM   10  C3  UNL     1      22.961  -0.053  53.569  1.00  0.00     0.016 C 
BRANCH  10  11
HETATM   11  C2  UNL     1      22.547  -1.055  54.574  1.00  0.00     0.001 C 
HETATM   12  C1  UNL     1      23.435  -1.361  55.494  1.00  0.00     0.032 C 
HETATM   13 BR1  UNL     1      20.749  -1.665  54.253  1.00  0.00    -0.052 Br
ENDBRANCH  10  11
ENDBRANCH   8   9
ENDBRANCH   7   8
ENDBRANCH   1   7
BRANCH   6  14
HETATM   14  C11 UNL     1      26.158   1.499  52.270  1.00  0.00     0.074 A 
HETATM   15  C12 UNL     1      26.282   1.791  53.612  1.00  0.00     0.052 A 
HETATM   16  C13 UNL     1      26.569   0.857  54.590  1.00  0.00     0.121 A 
HETATM   17  N2  UNL     1      26.738  -0.438  54.196  1.00  0.00    -0.246 NA
HETATM   18  C14 UNL     1      26.618  -0.726  52.891  1.00  0.00     0.122 A 
HETATM   19  C15 UNL     1      26.780  -2.092  52.331  1.00  0.00     0.093 C 
HETATM   20  N3  UNL     1      26.339   0.199  51.955  1.00  0.00    -0.233 NA
ENDBRANCH   6  14
TORSDOF 5
ENDMDL
MODEL 2
REMARK VINA RESULT:      -6.8      1.996      4.377
REMARK  5 active torsions:
REMARK  status: ('A' for Active; 'I' for Inactive)
REMARK    1  A    between atoms: C2_2  and  C3_4 
REMARK    2  A    between atoms: C4_5  and  C5_6 
REMARK    3  A    between atoms: C5_6  and  O1_7 
REMARK    4  A    between atoms: O1_7  and  C6_8 
REMARK    5  A    between atoms: C10_13  and  C11_14 
ROOT
HETATM    1  C6  UNL     1      26.812   0.143  53.640  1.00  0.00     0.177 A 
HETATM    2  N1  UNL     1      27.814  -0.538  54.225  1.00  0.00    -0.236 NA
HETATM    3  C7  UNL     1      29.004  -0.014  54.556  1.00  0.00     0.119 A 
HETATM    4  C8  UNL     1      29.293   1.312  54.309  1.00  0.00     0.020 A 
HETATM    5  C9  UNL     1      28.281   2.031  53.709  1.00  0.00     0.020 A 
HETATM    6  C10 UNL     1      27.056   1.495  53.366  1.00  0.00     0.046 A 
ENDROOT
BRANCH   1   7
HETATM    7  O1  UNL     1      25.584  -0.406  53.299  1.00  0.00    -0.330 OA
BRANCH   7   8
HETATM    8  C5  UNL     1      24.748  -0.830  54.356  1.00  0.00     0.205 C 
BRANCH   8   9
HETATM    9  C4  UNL     1      23.312  -0.606  54.048  1.00  0.00     0.001 C 
HETATM   10  C3  UNL     1      22.737  -0.260  52.885  1.00  0.00     0.016 C 
BRANCH  10  11
HETATM   11  C2  UNL     1      21.307  -0.037  52.584  1.00  0.00     0.001 C 
HETATM   12  C1  UNL     1      20.453  -0.369  53.526  1.00  0.00     0.032 C 
HETATM   13 BR1  UNL     1      21.072   0.711  50.825  1.00  0.00    -0.052 Br
ENDBRANCH  10  11
ENDBRANCH   8   9
ENDBRANCH   7   8
ENDBRANCH   1   7
BRANCH   6  14
HETATM   14  C11 UNL     1      25.976   2.241  52.732  1.00  0.00     0.074 A 
HETATM   15  C12 UNL     1      24.891   2.722  53.432  1.00  0.00     0.052 A 
HETATM   16  C13 UNL     1      23.849   3.432  52.866  1.00  0.00     0.121 A 
HETATM   17  N2  UNL     1      23.904   3.671  51.524  1.00  0.00    -0.246 NA
HETATM   18  C14 UNL     1      24.959   3.205  50.839  1.00  0.00     0.122 A 
HETATM   19  C15 UNL     1      25.140   3.394  49.376  1.00  0.00     0.093 C 
HETATM   20  N3  UNL     1      25.962   2.514  51.410  1.00  0.00    -0.233 NA
ENDBRANCH   6  14
TORSDOF 5
ENDMDL
MODEL 3
REMARK VINA RESULT:      -6.7      2.775      5.272
REMARK  5 active torsions:
REMARK  status: ('A' for Active; 'I' for Inactive)
REMARK    1  A    between atoms: C2_2  and  C3_4 
REMARK    2  A    between atoms: C4_5  and  C5_6 
REMARK    3  A    between atoms: C5_6  and  O1_7 
REMARK    4  A    between atoms: O1_7  and  C6_8 
REMARK    5  A    between atoms: C10_13  and  C11_14 
ROOT
HETATM    1  C6  UNL     1      23.984  -0.013  53.308  1.00  0.00     0.177 A 
HETATM    2  N1  UNL     1      22.744  -0.458  53.577  1.00  0.00    -0.236 NA
HETATM    3  C7  UNL     1      22.401  -1.154  54.673  1.00  0.00     0.119 A 
HETATM    4  C8  UNL     1      23.335  -1.472  55.637  1.00  0.00     0.020 A 
HETATM    5  C9  UNL     1      24.615  -1.025  55.383  1.00  0.00     0.020 A 
HETATM    6  C10 UNL     1      24.971  -0.311  54.257  1.00  0.00     0.046 A 
ENDROOT
BRANCH   1   7
HETATM    7  O1  UNL     1      24.331   0.705  52.173  1.00  0.00    -0.330 OA
BRANCH   7   8
HETATM    8  C5  UNL     1      23.348   1.552  51.615  1.00  0.00     0.205 C 
BRANCH   8   9
HETATM    9  C4  UNL     1      23.919   2.457  50.585  1.00  0.00     0.001 C 
HETATM   10  C3  UNL     1      25.018   3.226  50.645  1.00  0.00     0.016 C 
BRANCH  10  11
HETATM   11  C2  UNL     1      25.582   4.126  49.617  1.00  0.00     0.001 C 
HETATM   12  C1  UNL     1      26.858   3.973  49.342  1.00  0.00     0.032 C 
HETATM   13 BR1  UNL     1      24.241   5.326  48.930  1.00  0.00    -0.052 Br
ENDBRANCH  10  11
ENDBRANCH   8   9
ENDBRANCH   7   8
ENDBRANCH   1   7
BRANCH   6  14
HETATM   14  C11 UNL     1      26.318   0.168  53.974  1.00  0.00     0.074 A 
HETATM   15  C12 UNL     1      26.622   1.507  53.845  1.00  0.00     0.052 A 
HETATM   16  C13 UNL     1      27.886   1.998  53.577  1.00  0.00     0.121 A 
HETATM   17  N2  UNL     1      28.897   1.093  53.432  1.00  0.00    -0.246 NA
HETATM   18  C14 UNL     1      28.606  -0.210  53.557  1.00  0.00     0.122 A 
HETATM   19  C15 UNL     1      29.611  -1.295  53.422  1.00  0.00     0.093 C 
HETATM   20  N3  UNL     1      27.367  -0.667  53.817  1.00  0.00    -0.233 NA
ENDBRANCH   6  14
TORSDOF 5
ENDMDL
MODEL 4
REMARK VINA RESULT:      -6.6      1.528      2.011
REMARK  5 active torsions:
REMARK  status: ('A' for Active; 'I' for Inactive)
REMARK    1  A    between atoms: C2_2  and  C3_4 
REMARK    2  A    between atoms: C4_5  and  C5_6 
REMARK    3  A    between atoms: C5_6  and  O1_7 
REMARK    4  A    between atoms: O1_7  and  C6_8 
REMARK    5  A    between atoms: C10_13  and  C11_14 
ROOT
HETATM    1  C6  UNL     1      24.953   3.452  51.402  1.00  0.00     0.177 A 
HETATM    2  N1  UNL     1      24.388   4.415  50.654  1.00  0.00    -0.236 NA
HETATM    3  C7  UNL     1      24.929   4.937  49.541  1.00  0.00     0.119 A 
HETATM    4  C8  UNL     1      26.150   4.501  49.071  1.00  0.00     0.020 A 
HETATM    5  C9  UNL     1      26.749   3.512  49.822  1.00  0.00     0.020 A 
HETATM    6  C10 UNL     1      26.196   2.975  50.967  1.00  0.00     0.046 A 
ENDROOT
BRANCH   1   7
HETATM    7  O1  UNL     1      24.388   2.918  52.552  1.00  0.00    -0.330 OA
BRANCH   7   8
HETATM    8  C5  UNL     1      23.135   2.278  52.423  1.00  0.00     0.205 C 
BRANCH   8   9
HETATM    9  C4  UNL     1      23.105   0.975  53.133  1.00  0.00     0.001 C 
HETATM   10  C3  UNL     1      22.071   0.352  53.722  1.00  0.00     0.016 C 
BRANCH  10  11
HETATM   11  C2  UNL     1      22.046  -0.946  54.428  1.00  0.00     0.001 C 
HETATM   12  C1  UNL     1      20.958  -1.669  54.285  1.00  0.00     0.032 C 
HETATM   13 BR1  UNL     1      23.680  -1.241  55.405  1.00  0.00    -0.052 Br
ENDBRANCH  10  11
ENDBRANCH   8   9
ENDBRANCH   7   8
ENDBRANCH   1   7
BRANCH   6  14
HETATM   14  C11 UNL     1      26.817   1.930  51.772  1.00  0.00     0.074 A 
HETATM   15  C12 UNL     1      26.469   0.600  51.663  1.00  0.00     0.052 A 
HETATM   16  C13 UNL     1      27.034  -0.418  52.409  1.00  0.00     0.121 A 
HETATM   17  N2  UNL     1      28.000  -0.078  53.310  1.00  0.00    -0.246 NA
HETATM   18  C14 UNL     1      28.341   1.215  53.419  1.00  0.00     0.122 A 
HETATM   19  C15 UNL     1      29.375   1.718  54.360  1.00  0.00     0.093 C 
HETATM   20  N3  UNL     1      27.777   2.190  52.684  1.00  0.00    -0.233 NA
ENDBRANCH   6  14
TORSDOF 5
ENDMDL
MODEL 5
REMARK VINA RESULT:      -6.5      3.593      5.954
REMARK  5 active torsions:
REMARK  status: ('A' for Active; 'I' for Inactive)
REMARK    1  A    between atoms: C2_2  and  C3_4 
REMARK    2  A    between atoms: C4_5  and  C5_6 
REMARK    3  A    between atoms: C5_6  and  O1_7 
REMARK    4  A    between atoms: O1_7  and  C6_8 
REMARK    5  A    between atoms: C10_13  and  C11_14 
ROOT
HETATM    1  C6  UNL     1      25.073   2.047  51.745  1.00  0.00     0.177 A 
HETATM    2  N1  UNL     1      23.789   2.086  51.349  1.00  0.00    -0.236 NA
HETATM    3  C7  UNL     1      22.829   1.253  51.780  1.00  0.00     0.119 A 
HETATM    4  C8  UNL     1      23.106   0.259  52.696  1.00  0.00     0.020 A 
HETATM    5  C9  UNL     1      24.417   0.199  53.118  1.00  0.00     0.020 A 
HETATM    6  C10 UNL     1      25.407   1.054  52.675  1.00  0.00     0.046 A 
ENDROOT
BRANCH   1   7
HETATM    7  O1  UNL     1      26.061   2.911  51.294  1.00  0.00    -0.330 OA
BRANCH   7   8
HETATM    8  C5  UNL     1      26.199   3.066  49.896  1.00  0.00     0.205 C 
BRANCH   8   9
HETATM    9  C4  UNL     1      26.728   4.407  49.538  1.00  0.00     0.001 C 
HETATM   10  C3  UNL     1      27.635   4.740  48.605  1.00  0.00     0.016 C 
BRANCH  10  11
HETATM   11  C2  UNL     1      28.159   6.077  48.253  1.00  0.00     0.001 C 
HETATM   12  C1  UNL     1      27.266   7.016  48.036  1.00  0.00     0.032 C 
HETATM   13 BR1  UNL     1      30.084   6.082  48.208  1.00  0.00    -0.052 Br
ENDBRANCH  10  11
ENDBRANCH   8   9
ENDBRANCH   7   8
ENDBRANCH   1   7
BRANCH   6  14
HETATM   14  C11 UNL     1      26.797   1.004  53.110  1.00  0.00     0.074 A 
HETATM   15  C12 UNL     1      27.476   2.114  53.568  1.00  0.00     0.052 A 
HETATM   16  C13 UNL     1      28.793   2.105  53.988  1.00  0.00     0.121 A 
HETATM   17  N2  UNL     1      29.460   0.916  53.946  1.00  0.00    -0.246 NA
HETATM   18  C14 UNL     1      28.804  -0.166  53.503  1.00  0.00     0.122 A 
HETATM   19  C15 UNL     1      29.413  -1.517  53.406  1.00  0.00     0.093 C 
HETATM   20  N3  UNL     1      27.522  -0.135  53.097  1.00  0.00    -0.233 NA
ENDBRANCH   6  14
TORSDOF 5
ENDMDL
MODEL 6
REMARK VINA RESULT:      -6.4      3.044      5.623
REMARK  5 active torsions:
REMARK  status: ('A' for Active; 'I' for Inactive)
REMARK    1  A    between atoms: C2_2  and  C3_4 
REMARK    2  A    between atoms: C4_5  and  C5_6 
REMARK    3  A    between atoms: C5_6  and  O1_7 
REMARK    4  A    between atoms: O1_7  and  C6_8 
REMARK    5  A    between atoms: C10_13  and  C11_14 
ROOT
HETATM    1  C6  UNL     1      23.716   0.850  52.775  1.00  0.00     0.177 A 
HETATM    2  N1  UNL     1      22.407   1.146  52.863  1.00  0.00    -0.236 NA
HETATM    3  C7  UNL     1      21.531   0.515  53.660  1.00  0.00     0.119 A 
HETATM    4  C8  UNL     1      21.930  -0.522  54.478  1.00  0.00     0.020 A 
HETATM    5  C9  UNL     1      23.268  -0.844  54.405  1.00  0.00     0.020 A 
HETATM    6  C10 UNL     1      24.172  -0.198  53.586  1.00  0.00     0.046 A 
ENDROOT
BRANCH   1   7
HETATM    7  O1  UNL     1      24.615   1.507  51.948  1.00  0.00    -0.330 OA
BRANCH   7   8
HETATM    8  C5  UNL     1      24.438   2.897  51.769  1.00  0.00     0.205 C 
BRANCH   8   9
HETATM    9  C4  UNL     1      25.384   3.450  50.768  1.00  0.00     0.001 C 
HETATM   10  C3  UNL     1      25.343   4.626  50.120  1.00  0.00     0.016 C 
BRANCH  10  11
HETATM   11  C2  UNL     1      26.288   5.173  49.123  1.00  0.00     0.001 C 
HETATM   12  C1  UNL     1      27.364   4.457  48.884  1.00  0.00     0.032 C 
HETATM   13 BR1  UNL     1      25.663   6.851  48.415  1.00  0.00    -0.052 Br
ENDBRANCH  10  11
ENDBRANCH   8   9
ENDBRANCH   7   8
ENDBRANCH   1   7
BRANCH   6  14
HETATM   14  C11 UNL     1      25.589  -0.526  53.498  1.00  0.00     0.074 A 
HETATM   15  C12 UNL     1      26.068  -1.562  52.724  1.00  0.00     0.052 A 
HETATM   16  C13 UNL     1      27.404  -1.903  52.616  1.00  0.00     0.121 A 
HETATM   17  N2  UNL     1      28.303  -1.160  53.324  1.00  0.00    -0.246 NA
HETATM   18  C14 UNL     1      27.841  -0.151  54.077  1.00  0.00     0.122 A 
HETATM   19  C15 UNL     1      28.712   0.731  54.896  1.00  0.00     0.093 C 
HETATM   20  N3  UNL     1      26.537   0.163  54.169  1.00  0.00    -0.233 NA
ENDBRANCH   6  14
TORSDOF 5
ENDMDL
MODEL 7
REMARK VINA RESULT:      -6.3      3.205      6.217
REMARK  5 active torsions:
REMARK  status: ('A' for Active; 'I' for Inactive)
REMARK    1  A    between atoms: C2_2  and  C3_4 
REMARK    2  A    between atoms: C4_5  and  C5_6 
REMARK    3  A    between atoms: C5_6  and  O1_7 
REMARK    4  A    between atoms: O1_7  and  C6_8 
REMARK    5  A    between atoms: C10_13  and  C11_14 
ROOT
HETATM    1  C6  UNL     1      22.735  -0.339  53.209  1.00  0.00     0.177 A 
HETATM    2  N1  UNL     1      22.277  -1.335  53.988  1.00  0.00    -0.236 NA
HETATM    3  C7  UNL     1      20.981  -1.573  54.242  1.00  0.00     0.119 A 
HETATM    4  C8  UNL     1      19.990  -0.781  53.699  1.00  0.00     0.020 A 
HETATM    5  C9  UNL     1      20.436   0.247  52.896  1.00  0.00     0.020 A 
HETATM    6  C10 UNL     1      21.768   0.496  52.634  1.00  0.00     0.046 A 
ENDROOT
BRANCH   1   7
HETATM    7  O1  UNL     1      24.077  -0.097  52.952  1.00  0.00    -0.330 OA
BRANCH   7   8
HETATM    8  C5  UNL     1      25.002  -0.421  53.970  1.00  0.00     0.205 C 
BRANCH   8   9
HETATM    9  C4  UNL     1      26.315   0.236  53.753  1.00  0.00     0.001 C 
HETATM   10  C3  UNL     1      27.552  -0.260  53.921  1.00  0.00     0.016 C 
BRANCH  10  11
HETATM   11  C2  UNL     1      28.857   0.399  53.704  1.00  0.00     0.001 C 
HETATM   12  C1  UNL     1      29.897  -0.392  53.568  1.00  0.00     0.032 C 
HETATM   13 BR1  UNL     1      28.674   2.317  53.677  1.00  0.00    -0.052 Br
ENDBRANCH  10  11
ENDBRANCH   8   9
ENDBRANCH   7   8
ENDBRANCH   1   7
BRANCH   6  14
HETATM   14  C11 UNL     1      22.256   1.579  51.788  1.00  0.00     0.074 A 
HETATM   15  C12 UNL     1      22.365   1.463  50.418  1.00  0.00     0.052 A 
HETATM   16  C13 UNL     1      22.823   2.466  49.585  1.00  0.00     0.121 A 
HETATM   17  N2  UNL     1      23.188   3.648  50.161  1.00  0.00    -0.246 NA
HETATM   18  C14 UNL     1      23.083   3.764  51.493  1.00  0.00     0.122 A 
HETATM   19  C15 UNL     1      23.448   4.993  52.244  1.00  0.00     0.093 C 
HETATM   20  N3  UNL     1      22.636   2.774  52.286  1.00  0.00    -0.233 NA
ENDBRANCH   6  14
TORSDOF 5
ENDMDL
MODEL 8
REMARK VINA RESULT:      -6.3      3.115      6.109
REMARK  5 active torsions:
REMARK  status: ('A' for Active; 'I' for Inactive)
REMARK    1  A    between atoms: C2_2  and  C3_4 
REMARK    2  A    between atoms: C4_5  and  C5_6 
REMARK    3  A    between atoms: C5_6  and  O1_7 
REMARK    4  A    between atoms: O1_7  and  C6_8 
REMARK    5  A    between atoms: C10_13  and  C11_14 
ROOT
HETATM    1  C6  UNL     1      23.795   0.136  53.417  1.00  0.00     0.177 A 
HETATM    2  N1  UNL     1      23.886  -0.766  54.411  1.00  0.00    -0.236 NA
HETATM    3  C7  UNL     1      22.842  -1.252  55.101  1.00  0.00     0.119 A 
HETATM    4  C8  UNL     1      21.553  -0.845  54.826  1.00  0.00     0.020 A 
HETATM    5  C9  UNL     1      21.434   0.079  53.810  1.00  0.00     0.020 A 
HETATM    6  C10 UNL     1      22.505   0.582  53.099  1.00  0.00     0.046 A 
ENDROOT
BRANCH   1   7
HETATM    7  O1  UNL     1      24.878   0.635  52.708  1.00  0.00    -0.330 OA
BRANCH   7   8
HETATM    8  C5  UNL     1      25.758  -0.302  52.123  1.00  0.00     0.205 C 
BRANCH   8   9
HETATM    9  C4  UNL     1      27.125  -0.210  52.698  1.00  0.00     0.001 C 
HETATM   10  C3  UNL     1      27.718   0.824  53.316  1.00  0.00     0.016 C 
BRANCH  10  11
HETATM   11  C2  UNL     1      29.079   0.910  53.885  1.00  0.00     0.001 C 
HETATM   12  C1  UNL     1      29.421   2.065  54.411  1.00  0.00     0.032 C 
HETATM   13 BR1  UNL     1      30.022  -0.759  53.697  1.00  0.00    -0.052 Br
ENDBRANCH  10  11
ENDBRANCH   8   9
ENDBRANCH   7   8
ENDBRANCH   1   7
BRANCH   6  14
HETATM   14  C11 UNL     1      22.397   1.559  52.022  1.00  0.00     0.074 A 
HETATM   15  C12 UNL     1      22.476   2.919  52.238  1.00  0.00     0.052 A 
HETATM   16  C13 UNL     1      22.378   3.874  51.243  1.00  0.00     0.121 A 
HETATM   17  N2  UNL     1      22.190   3.436  49.965  1.00  0.00    -0.246 NA
HETATM   18  C14 UNL     1      22.113   2.115  49.751  1.00  0.00     0.122 A 
HETATM   19  C15 UNL     1      21.909   1.508  48.410  1.00  0.00     0.093 C 
HETATM   20  N3  UNL     1      22.210   1.202  50.734  1.00  0.00    -0.233 NA
ENDBRANCH   6  14
TORSDOF 5
ENDMDL
MODEL 9
REMARK VINA RESULT:      -6.2      3.114      6.456
REMARK  5 active torsions:
REMARK  status: ('A' for Active; 'I' for Inactive)
REMARK    1  A    between atoms: C2_2  and  C3_4 
REMARK    2  A    between atoms: C4_5  and  C5_6 
REMARK    3  A    between atoms: C5_6  and  O1_7 
REMARK    4  A    between atoms: O1_7  and  C6_8 
REMARK    5  A    between atoms: C10_13  and  C11_14 
ROOT
HETATM    1  C6  UNL     1      24.560   1.196  52.932  1.00  0.00     0.177 A 
HETATM    2  N1  UNL     1      24.996   0.274  53.808  1.00  0.00    -0.236 NA
HETATM    3  C7  UNL     1      24.254  -0.735  54.291  1.00  0.00     0.119 A 
HETATM    4  C8  UNL     1      22.940  -0.902  53.903  1.00  0.00     0.020 A 
HETATM    5  C9  UNL     1      22.470   0.031  53.004  1.00  0.00     0.020 A 
HETATM    6  C10 UNL     1      23.231   1.071  52.507  1.00  0.00     0.046 A 
ENDROOT
BRANCH   1   7
HETATM    7  O1  UNL     1      25.333   2.237  52.438  1.00  0.00    -0.330 OA
BRANCH   7   8
HETATM    8  C5  UNL     1      26.327   1.914  51.487  1.00  0.00     0.205 C 
BRANCH   8   9
HETATM    9  C4  UNL     1      26.554   3.024  50.527  1.00  0.00     0.001 C 
HETATM   10  C3  UNL     1      25.694   3.957  50.089  1.00  0.00     0.016 C 
BRANCH  10  11
HETATM   11  C2  UNL     1      25.926   5.060  49.132  1.00  0.00     0.001 C 
HETATM   12  C1  UNL     1      24.879   5.788  48.815  1.00  0.00     0.032 C 
HETATM   13 BR1  UNL     1      27.772   5.135  48.587  1.00  0.00    -0.052 Br
ENDBRANCH  10  11
ENDBRANCH   8   9
ENDBRANCH   7   8
ENDBRANCH   1   7
BRANCH   6  14
HETATM   14  C11 UNL     1      22.750   2.066  51.556  1.00  0.00     0.074 A 
HETATM   15  C12 UNL     1      22.204   3.270  51.949  1.00  0.00     0.052 A 
HETATM   16  C13 UNL     1      21.737   4.236  51.078  1.00  0.00     0.121 A 
HETATM   17  N2  UNL     1      21.826   3.976  49.742  1.00  0.00    -0.246 NA
HETATM   18  C14 UNL     1      22.356   2.807  49.355  1.00  0.00     0.122 A 
HETATM   19  C15 UNL     1      22.509   2.400  47.935  1.00  0.00     0.093 C 
HETATM   20  N3  UNL     1      22.803   1.879  50.221  1.00  0.00    -0.233 NA
ENDBRANCH   6  14
TORSDOF 5
ENDMDL
