MODEL 1
REMARK VINA RESULT:      -6.6      0.000      0.000
REMARK  10 active torsions:
REMARK  status: ('A' for Active; 'I' for Inactive)
REMARK    1  A    between atoms: C2_2  and  C3_3 
REMARK    2  A    between atoms: C3_3  and  C4_4 
REMARK    3  A    between atoms: C4_4  and  N1_5 
REMARK    4  A    between atoms: N1_5  and  C5_6 
REMARK    5  A    between atoms: N1_5  and  C9_12 
REMARK    6  A    between atoms: C5_6  and  C6_7 
REMARK    7  A    between atoms: C6_7  and  C7_8 
REMARK    8  A    between atoms: C7_8  and  O1_9 
REMARK    9  A    between atoms: C9_12  and  N2_14 
REMARK   10  A    between atoms: N2_14  and  C10_15 
ROOT
HETATM    1  N1  UNL     1      25.384   3.042  51.117  1.00  0.00    -0.358 N 
ENDROOT
BRANCH   1   2
HETATM    2  C4  UNL     1      25.632   4.070  50.164  1.00  0.00     0.125 C 
BRANCH   2   3
HETATM    3  C3  UNL     1      26.861   3.884  49.315  1.00  0.00     0.019 C 
BRANCH   3   4
HETATM    4  C2  UNL     1      27.161   5.268  48.719  1.00  0.00    -0.003 C 
HETATM    5  C1  UNL     1      28.596   5.412  48.324  1.00  0.00     0.005 C 
ENDBRANCH   3   4
ENDBRANCH   2   3
ENDBRANCH   1   2
BRANCH   1   6
HETATM    6  C5  UNL     1      26.633   2.421  51.445  1.00  0.00     0.132 C 
BRANCH   6   7
HETATM    7  C6  UNL     1      26.763   1.974  52.872  1.00  0.00     0.085 C 
BRANCH   7   8
HETATM    8  C7  UNL     1      28.023   1.249  53.145  1.00  0.00     0.055 C 
HETATM    9  C8  UNL     1      28.439   0.061  53.485  1.00  0.00     0.249 C 
HETATM   10 CL1  UNL     1      29.903  -0.838  53.818  1.00  0.00    -0.228 Cl
BRANCH   8  11
HETATM   11  O1  UNL     1      29.152   2.055  53.006  1.00  0.00    -0.364 OA
HETATM   12  H14 UNL     1      30.030   1.665  52.682  1.00  0.00     0.217 HD
ENDBRANCH   8  11
ENDBRANCH   7   8
ENDBRANCH   6   7
ENDBRANCH   1   6
BRANCH   1  13
HETATM   13  C9  UNL     1      24.084   2.733  51.623  1.00  0.00     0.174 C 
HETATM   14  S1  UNL     1      23.318   3.922  52.444  1.00  0.00    -0.041 SA
BRANCH  13  15
HETATM   15  N2  UNL     1      23.343   1.509  51.511  1.00  0.00    -0.333 N 
HETATM   16  H16 UNL     1      23.087   0.926  50.682  1.00  0.00     0.168 HD
BRANCH  15  17
HETATM   17  C10 UNL     1      22.773   0.805  52.608  1.00  0.00     0.034 A 
HETATM   18  C11 UNL     1      21.483   0.908  53.087  1.00  0.00     0.029 A 
HETATM   19  C12 UNL     1      21.042   0.178  54.159  1.00  0.00     0.002 A 
HETATM   20  C13 UNL     1      21.969  -0.682  54.746  1.00  0.00     0.000 A 
HETATM   21  C14 UNL     1      23.253  -0.819  54.311  1.00  0.00     0.002 A 
HETATM   22  C15 UNL     1      23.667  -0.071  53.231  1.00  0.00     0.029 A 
ENDBRANCH  15  17
ENDBRANCH  13  15
ENDBRANCH   1  13
TORSDOF 10
ENDMDL
MODEL 2
REMARK VINA RESULT:      -6.5      2.574      4.389
REMARK  10 active torsions:
REMARK  status: ('A' for Active; 'I' for Inactive)
REMARK    1  A    between atoms: C2_2  and  C3_3 
REMARK    2  A    between atoms: C3_3  and  C4_4 
REMARK    3  A    between atoms: C4_4  and  N1_5 
REMARK    4  A    between atoms: N1_5  and  C5_6 
REMARK    5  A    between atoms: N1_5  and  C9_12 
REMARK    6  A    between atoms: C5_6  and  C6_7 
REMARK    7  A    between atoms: C6_7  and  C7_8 
REMARK    8  A    between atoms: C7_8  and  O1_9 
REMARK    9  A    between atoms: C9_12  and  N2_14 
REMARK   10  A    between atoms: N2_14  and  C10_15 
ROOT
HETATM    1  N1  UNL     1      25.878   1.814  52.295  1.00  0.00    -0.358 N 
ENDROOT
BRANCH   1   2
HETATM    2  C4  UNL     1      26.560   0.915  53.165  1.00  0.00     0.125 C 
BRANCH   2   3
HETATM    3  C3  UNL     1      26.898  -0.427  52.574  1.00  0.00     0.019 C 
BRANCH   3   4
HETATM    4  C2  UNL     1      28.266  -0.801  53.165  1.00  0.00    -0.003 C 
HETATM    5  C1  UNL     1      28.905   0.349  53.876  1.00  0.00     0.005 C 
ENDBRANCH   3   4
ENDBRANCH   2   3
ENDBRANCH   1   2
BRANCH   1   6
HETATM    6  C5  UNL     1      26.851   2.477  51.479  1.00  0.00     0.132 C 
BRANCH   6   7
HETATM    7  C6  UNL     1      26.423   2.735  50.065  1.00  0.00     0.085 C 
BRANCH   7   8
HETATM    8  C7  UNL     1      26.724   4.108  49.604  1.00  0.00     0.055 C 
HETATM    9  C8  UNL     1      27.468   4.728  48.731  1.00  0.00     0.249 C 
HETATM   10 CL1  UNL     1      27.857   6.333  48.152  1.00  0.00    -0.228 Cl
BRANCH   8  11
HETATM   11  O1  UNL     1      26.004   5.081  50.294  1.00  0.00    -0.364 OA
HETATM   12  H14 UNL     1      25.885   5.021  51.299  1.00  0.00     0.217 HD
ENDBRANCH   8  11
ENDBRANCH   7   8
ENDBRANCH   6   7
ENDBRANCH   1   6
BRANCH   1  13
HETATM   13  C9  UNL     1      24.458   1.978  52.286  1.00  0.00     0.174 C 
HETATM   14  S1  UNL     1      23.890   3.438  52.752  1.00  0.00    -0.041 SA
BRANCH  13  15
HETATM   15  N2  UNL     1      23.446   1.029  51.921  1.00  0.00    -0.333 N 
HETATM   16  H16 UNL     1      23.053   0.755  50.991  1.00  0.00     0.168 HD
BRANCH  15  17
HETATM   17  C10 UNL     1      22.729   0.216  52.842  1.00  0.00     0.034 A 
HETATM   18  C11 UNL     1      23.253  -0.548  53.865  1.00  0.00     0.029 A 
HETATM   19  C12 UNL     1      22.461  -1.299  54.694  1.00  0.00     0.002 A 
HETATM   20  C13 UNL     1      21.088  -1.251  54.451  1.00  0.00     0.000 A 
HETATM   21  C14 UNL     1      20.524  -0.513  53.455  1.00  0.00     0.002 A 
HETATM   22  C15 UNL     1      21.346   0.232  52.637  1.00  0.00     0.029 A 
ENDBRANCH  15  17
ENDBRANCH  13  15
ENDBRANCH   1  13
TORSDOF 10
ENDMDL
MODEL 3
REMARK VINA RESULT:      -6.4      3.610      6.304
REMARK  10 active torsions:
REMARK  status: ('A' for Active; 'I' for Inactive)
REMARK    1  A    between atoms: C2_2  and  C3_3 
REMARK    2  A    between atoms: C3_3  and  C4_4 
REMARK    3  A    between atoms: C4_4  and  N1_5 
REMARK    4  A    between atoms: N1_5  and  C5_6 
REMARK    5  A    between atoms: N1_5  and  C9_12 
REMARK    6  A    between atoms: C5_6  and  C6_7 
REMARK    7  A    between atoms: C6_7  and  C7_8 
REMARK    8  A    between atoms: C7_8  and  O1_9 
REMARK    9  A    between atoms: C9_12  and  N2_14 
REMARK   10  A    between atoms: N2_14  and  C10_15 
ROOT
HETATM    1  N1  UNL     1      24.197   2.621  51.452  1.00  0.00    -0.358 N 
ENDROOT
BRANCH   1   2
HETATM    2  C4  UNL     1      23.524   1.377  51.615  1.00  0.00     0.125 C 
BRANCH   2   3
HETATM    3  C3  UNL     1      23.031   1.084  53.007  1.00  0.00     0.019 C 
BRANCH   3   4
HETATM    4  C2  UNL     1      22.858  -0.441  53.068  1.00  0.00    -0.003 C 
HETATM    5  C1  UNL     1      22.749  -0.940  54.473  1.00  0.00     0.005 C 
ENDBRANCH   3   4
ENDBRANCH   2   3
ENDBRANCH   1   2
BRANCH   1   6
HETATM    6  C5  UNL     1      23.212   3.645  51.263  1.00  0.00     0.132 C 
BRANCH   6   7
HETATM    7  C6  UNL     1      23.344   4.827  52.178  1.00  0.00     0.085 C 
BRANCH   7   8
HETATM    8  C7  UNL     1      23.796   6.054  51.487  1.00  0.00     0.055 C 
HETATM    9  C8  UNL     1      23.738   6.619  50.313  1.00  0.00     0.249 C 
HETATM   10 CL1  UNL     1      24.251   8.054  49.453  1.00  0.00    -0.228 Cl
BRANCH   8  11
HETATM   11  O1  UNL     1      24.518   6.908  52.318  1.00  0.00    -0.364 OA
HETATM   12  H14 UNL     1      25.459   7.195  52.075  1.00  0.00     0.217 HD
ENDBRANCH   8  11
ENDBRANCH   7   8
ENDBRANCH   6   7
ENDBRANCH   1   6
BRANCH   1  13
HETATM   13  C9  UNL     1      25.620   2.758  51.483  1.00  0.00     0.174 C 
HETATM   14  S1  UNL     1      26.335   3.248  50.097  1.00  0.00    -0.041 SA
BRANCH  13  15
HETATM   15  N2  UNL     1      26.522   2.524  52.574  1.00  0.00    -0.333 N 
HETATM   16  H16 UNL     1      26.850   3.143  53.349  1.00  0.00     0.168 HD
BRANCH  15  17
HETATM   17  C10 UNL     1      27.192   1.293  52.819  1.00  0.00     0.034 A 
HETATM   18  C11 UNL     1      26.708   0.019  52.596  1.00  0.00     0.029 A 
HETATM   19  C12 UNL     1      27.447  -1.100  52.874  1.00  0.00     0.002 A 
HETATM   20  C13 UNL     1      28.722  -0.887  53.397  1.00  0.00     0.000 A 
HETATM   21  C14 UNL     1      29.244   0.348  53.634  1.00  0.00     0.002 A 
HETATM   22  C15 UNL     1      28.477   1.456  53.344  1.00  0.00     0.029 A 
ENDBRANCH  15  17
ENDBRANCH  13  15
ENDBRANCH   1  13
TORSDOF 10
ENDMDL
MODEL 4
REMARK VINA RESULT:      -6.4      2.066      2.617
REMARK  10 active torsions:
REMARK  status: ('A' for Active; 'I' for Inactive)
REMARK    1  A    between atoms: C2_2  and  C3_3 
REMARK    2  A    between atoms: C3_3  and  C4_4 
REMARK    3  A    between atoms: C4_4  and  N1_5 
REMARK    4  A    between atoms: N1_5  and  C5_6 
REMARK    5  A    between atoms: N1_5  and  C9_12 
REMARK    6  A    between atoms: C5_6  and  C6_7 
REMARK    7  A    between atoms: C6_7  and  C7_8 
REMARK    8  A    between atoms: C7_8  and  O1_9 
REMARK    9  A    between atoms: C9_12  and  N2_14 
REMARK   10  A    between atoms: N2_14  and  C10_15 
ROOT
HETATM    1  N1  UNL     1      26.371   1.119  52.663  1.00  0.00    -0.358 N 
ENDROOT
BRANCH   1   2
HETATM    2  C4  UNL     1      26.525   1.482  51.294  1.00  0.00     0.125 C 
BRANCH   2   3
HETATM    3  C3  UNL     1      25.930   2.809  50.905  1.00  0.00     0.019 C 
BRANCH   3   4
HETATM    4  C2  UNL     1      26.421   3.074  49.474  1.00  0.00    -0.003 C 
HETATM    5  C1  UNL     1      26.836   4.496  49.276  1.00  0.00     0.005 C 
ENDBRANCH   3   4
ENDBRANCH   2   3
ENDBRANCH   1   2
BRANCH   1   6
HETATM    6  C5  UNL     1      26.836   2.206  53.472  1.00  0.00     0.132 C 
BRANCH   6   7
HETATM    7  C6  UNL     1      28.326   2.296  53.618  1.00  0.00     0.085 C 
BRANCH   7   8
HETATM    8  C7  UNL     1      28.952   1.018  54.025  1.00  0.00     0.055 C 
HETATM    9  C8  UNL     1      29.749   0.100  53.552  1.00  0.00     0.249 C 
HETATM   10 CL1  UNL     1      30.511  -1.413  53.987  1.00  0.00    -0.228 Cl
BRANCH   8  11
HETATM   11  O1  UNL     1      28.607   0.634  55.319  1.00  0.00    -0.364 OA
HETATM   12  H14 UNL     1      28.284   1.318  55.993  1.00  0.00     0.217 HD
ENDBRANCH   8  11
ENDBRANCH   7   8
ENDBRANCH   6   7
ENDBRANCH   1   6
BRANCH   1  13
HETATM   13  C9  UNL     1      25.836  -0.135  53.091  1.00  0.00     0.174 C 
HETATM   14  S1  UNL     1      26.591  -1.477  52.539  1.00  0.00    -0.041 SA
BRANCH  13  15
HETATM   15  N2  UNL     1      24.715  -0.388  53.949  1.00  0.00    -0.333 N 
HETATM   16  H16 UNL     1      24.657  -0.731  54.935  1.00  0.00     0.168 HD
BRANCH  15  17
HETATM   17  C10 UNL     1      23.354  -0.201  53.578  1.00  0.00     0.034 A 
HETATM   18  C11 UNL     1      22.875   0.455  52.461  1.00  0.00     0.029 A 
HETATM   19  C12 UNL     1      21.535   0.576  52.206  1.00  0.00     0.002 A 
HETATM   20  C13 UNL     1      20.672   0.001  53.137  1.00  0.00     0.000 A 
HETATM   21  C14 UNL     1      21.095  -0.655  54.254  1.00  0.00     0.002 A 
HETATM   22  C15 UNL     1      22.449  -0.762  54.484  1.00  0.00     0.029 A 
ENDBRANCH  15  17
ENDBRANCH  13  15
ENDBRANCH   1  13
TORSDOF 10
ENDMDL
MODEL 5
REMARK VINA RESULT:      -6.3      1.120      5.733
REMARK  10 active torsions:
REMARK  status: ('A' for Active; 'I' for Inactive)
REMARK    1  A    between atoms: C2_2  and  C3_3 
REMARK    2  A    between atoms: C3_3  and  C4_4 
REMARK    3  A    between atoms: C4_4  and  N1_5 
REMARK    4  A    between atoms: N1_5  and  C5_6 
REMARK    5  A    between atoms: N1_5  and  C9_12 
REMARK    6  A    between atoms: C5_6  and  C6_7 
REMARK    7  A    between atoms: C6_7  and  C7_8 
REMARK    8  A    between atoms: C7_8  and  O1_9 
REMARK    9  A    between atoms: C9_12  and  N2_14 
REMARK   10  A    between atoms: N2_14  and  C10_15 
ROOT
HETATM    1  N1  UNL     1      25.089   1.778  52.811  1.00  0.00    -0.358 N 
ENDROOT
BRANCH   1   2
HETATM    2  C4  UNL     1      24.726   0.402  52.749  1.00  0.00     0.125 C 
BRANCH   2   3
HETATM    3  C3  UNL     1      23.271   0.104  52.995  1.00  0.00     0.019 C 
BRANCH   3   4
HETATM    4  C2  UNL     1      23.239  -0.755  54.268  1.00  0.00    -0.003 C 
HETATM    5  C1  UNL     1      21.845  -1.122  54.665  1.00  0.00     0.005 C 
ENDBRANCH   3   4
ENDBRANCH   2   3
ENDBRANCH   1   2
BRANCH   1   6
HETATM    6  C5  UNL     1      26.079   1.936  53.835  1.00  0.00     0.132 C 
BRANCH   6   7
HETATM    7  C6  UNL     1      27.430   2.371  53.348  1.00  0.00     0.085 C 
BRANCH   7   8
HETATM    8  C7  UNL     1      28.508   1.414  53.682  1.00  0.00     0.055 C 
HETATM    9  C8  UNL     1      28.842   0.171  53.472  1.00  0.00     0.249 C 
HETATM   10 CL1  UNL     1      30.092  -0.995  53.842  1.00  0.00    -0.228 Cl
BRANCH   8  11
HETATM   11  O1  UNL     1      29.507   1.980  54.473  1.00  0.00    -0.364 OA
HETATM   12  H14 UNL     1      29.291   2.725  55.125  1.00  0.00     0.217 HD
ENDBRANCH   8  11
ENDBRANCH   7   8
ENDBRANCH   6   7
ENDBRANCH   1   6
BRANCH   1  13
HETATM   13  C9  UNL     1      24.524   2.782  51.965  1.00  0.00     0.174 C 
HETATM   14  S1  UNL     1      23.666   3.960  52.704  1.00  0.00    -0.041 SA
BRANCH  13  15
HETATM   15  N2  UNL     1      24.605   2.904  50.538  1.00  0.00    -0.333 N 
HETATM   16  H16 UNL     1      24.209   2.320  49.767  1.00  0.00     0.168 HD
BRANCH  15  17
HETATM   17  C10 UNL     1      25.303   3.938  49.853  1.00  0.00     0.034 A 
HETATM   18  C11 UNL     1      24.802   5.161  49.454  1.00  0.00     0.029 A 
HETATM   19  C12 UNL     1      25.572   6.083  48.794  1.00  0.00     0.002 A 
HETATM   20  C13 UNL     1      26.895   5.722  48.545  1.00  0.00     0.000 A 
HETATM   21  C14 UNL     1      27.435   4.528  48.919  1.00  0.00     0.002 A 
HETATM   22  C15 UNL     1      26.637   3.621  49.581  1.00  0.00     0.029 A 
ENDBRANCH  15  17
ENDBRANCH  13  15
ENDBRANCH   1  13
TORSDOF 10
ENDMDL
MODEL 6
REMARK VINA RESULT:      -6.1      1.451      5.986
REMARK  10 active torsions:
REMARK  status: ('A' for Active; 'I' for Inactive)
REMARK    1  A    between atoms: C2_2  and  C3_3 
REMARK    2  A    between atoms: C3_3  and  C4_4 
REMARK    3  A    between atoms: C4_4  and  N1_5 
REMARK    4  A    between atoms: N1_5  and  C5_6 
REMARK    5  A    between atoms: N1_5  and  C9_12 
REMARK    6  A    between atoms: C5_6  and  C6_7 
REMARK    7  A    between atoms: C6_7  and  C7_8 
REMARK    8  A    between atoms: C7_8  and  O1_9 
REMARK    9  A    between atoms: C9_12  and  N2_14 
REMARK   10  A    between atoms: N2_14  and  C10_15 
ROOT
HETATM    1  N1  UNL     1      23.772   1.122  52.473  1.00  0.00    -0.358 N 
ENDROOT
BRANCH   1   2
HETATM    2  C4  UNL     1      22.579   0.415  52.800  1.00  0.00     0.125 C 
BRANCH   2   3
HETATM    3  C3  UNL     1      22.778  -0.920  53.464  1.00  0.00     0.019 C 
BRANCH   3   4
HETATM    4  C2  UNL     1      21.709  -0.993  54.564  1.00  0.00    -0.003 C 
HETATM    5  C1  UNL     1      20.852   0.232  54.598  1.00  0.00     0.005 C 
ENDBRANCH   3   4
ENDBRANCH   2   3
ENDBRANCH   1   2
BRANCH   1   6
HETATM    6  C5  UNL     1      24.865   0.502  53.162  1.00  0.00     0.132 C 
BRANCH   6   7
HETATM    7  C6  UNL     1      26.209   0.697  52.523  1.00  0.00     0.085 C 
BRANCH   7   8
HETATM    8  C7  UNL     1      27.298  -0.020  53.221  1.00  0.00     0.055 C 
HETATM    9  C8  UNL     1      28.534  -0.391  53.030  1.00  0.00     0.249 C 
HETATM   10 CL1  UNL     1      29.852  -1.232  53.815  1.00  0.00    -0.228 Cl
BRANCH   8  11
HETATM   11  O1  UNL     1      26.932  -0.455  54.493  1.00  0.00    -0.364 OA
HETATM   12  H14 UNL     1      26.188   0.006  55.004  1.00  0.00     0.217 HD
ENDBRANCH   8  11
ENDBRANCH   7   8
ENDBRANCH   6   7
ENDBRANCH   1   6
BRANCH   1  13
HETATM   13  C9  UNL     1      23.806   2.252  51.598  1.00  0.00     0.174 C 
HETATM   14  S1  UNL     1      22.904   2.147  50.238  1.00  0.00    -0.041 SA
BRANCH  13  15
HETATM   15  N2  UNL     1      24.528   3.482  51.747  1.00  0.00    -0.333 N 
HETATM   16  H16 UNL     1      24.621   4.140  52.554  1.00  0.00     0.168 HD
BRANCH  15  17
HETATM   17  C10 UNL     1      25.320   4.083  50.729  1.00  0.00     0.034 A 
HETATM   18  C11 UNL     1      26.408   3.532  50.082  1.00  0.00     0.029 A 
HETATM   19  C12 UNL     1      27.100   4.209  49.113  1.00  0.00     0.002 A 
HETATM   20  C13 UNL     1      26.647   5.493  48.810  1.00  0.00     0.000 A 
HETATM   21  C14 UNL     1      25.580   6.080  49.420  1.00  0.00     0.002 A 
HETATM   22  C15 UNL     1      24.903   5.374  50.391  1.00  0.00     0.029 A 
ENDBRANCH  15  17
ENDBRANCH  13  15
ENDBRANCH   1  13
TORSDOF 10
ENDMDL
MODEL 7
REMARK VINA RESULT:      -5.9      4.234      6.038
REMARK  10 active torsions:
REMARK  status: ('A' for Active; 'I' for Inactive)
REMARK    1  A    between atoms: C2_2  and  C3_3 
REMARK    2  A    between atoms: C3_3  and  C4_4 
REMARK    3  A    between atoms: C4_4  and  N1_5 
REMARK    4  A    between atoms: N1_5  and  C5_6 
REMARK    5  A    between atoms: N1_5  and  C9_12 
REMARK    6  A    between atoms: C5_6  and  C6_7 
REMARK    7  A    between atoms: C6_7  and  C7_8 
REMARK    8  A    between atoms: C7_8  and  O1_9 
REMARK    9  A    between atoms: C9_12  and  N2_14 
REMARK   10  A    between atoms: N2_14  and  C10_15 
ROOT
HETATM    1  N1  UNL     1      22.104   1.837  52.003  1.00  0.00    -0.358 N 
ENDROOT
BRANCH   1   2
HETATM    2  C4  UNL     1      22.147   1.148  50.757  1.00  0.00     0.125 C 
BRANCH   2   3
HETATM    3  C3  UNL     1      21.044   1.487  49.790  1.00  0.00     0.019 C 
BRANCH   3   4
HETATM    4  C2  UNL     1      21.649   1.284  48.393  1.00  0.00    -0.003 C 
HETATM    5  C1  UNL     1      22.534   2.420  47.992  1.00  0.00     0.005 C 
ENDBRANCH   3   4
ENDBRANCH   2   3
ENDBRANCH   1   2
BRANCH   1   6
HETATM    6  C5  UNL     1      20.933   1.412  52.712  1.00  0.00     0.132 C 
BRANCH   6   7
HETATM    7  C6  UNL     1      21.191   0.486  53.864  1.00  0.00     0.085 C 
BRANCH   7   8
HETATM    8  C7  UNL     1      20.243  -0.648  53.926  1.00  0.00     0.055 C 
HETATM    9  C8  UNL     1      19.079  -1.005  53.458  1.00  0.00     0.249 C 
HETATM   10 CL1  UNL     1      17.927  -2.321  53.501  1.00  0.00    -0.228 Cl
BRANCH   8  11
HETATM   11  O1  UNL     1      20.698  -1.690  54.732  1.00  0.00    -0.364 OA
HETATM   12  H14 UNL     1      20.271  -1.874  55.632  1.00  0.00     0.217 HD
ENDBRANCH   8  11
ENDBRANCH   7   8
ENDBRANCH   6   7
ENDBRANCH   1   6
BRANCH   1  13
HETATM   13  C9  UNL     1      23.094   2.780  52.418  1.00  0.00     0.174 C 
HETATM   14  S1  UNL     1      22.791   4.351  52.081  1.00  0.00    -0.041 SA
BRANCH  13  15
HETATM   15  N2  UNL     1      24.334   2.541  53.098  1.00  0.00    -0.333 N 
HETATM   16  H16 UNL     1      24.898   3.138  53.745  1.00  0.00     0.168 HD
BRANCH  15  17
HETATM   17  C10 UNL     1      25.089   1.338  53.006  1.00  0.00     0.034 A 
HETATM   18  C11 UNL     1      24.979   0.220  53.808  1.00  0.00     0.029 A 
HETATM   19  C12 UNL     1      25.765  -0.887  53.626  1.00  0.00     0.002 A 
HETATM   20  C13 UNL     1      26.689  -0.827  52.583  1.00  0.00     0.000 A 
HETATM   21  C14 UNL     1      26.835   0.253  51.765  1.00  0.00     0.002 A 
HETATM   22  C15 UNL     1      26.030   1.351  51.972  1.00  0.00     0.029 A 
ENDBRANCH  15  17
ENDBRANCH  13  15
ENDBRANCH   1  13
TORSDOF 10
ENDMDL
MODEL 8
REMARK VINA RESULT:      -5.8      4.467      7.344
REMARK  10 active torsions:
REMARK  status: ('A' for Active; 'I' for Inactive)
REMARK    1  A    between atoms: C2_2  and  C3_3 
REMARK    2  A    between atoms: C3_3  and  C4_4 
REMARK    3  A    between atoms: C4_4  and  N1_5 
REMARK    4  A    between atoms: N1_5  and  C5_6 
REMARK    5  A    between atoms: N1_5  and  C9_12 
REMARK    6  A    between atoms: C5_6  and  C6_7 
REMARK    7  A    between atoms: C6_7  and  C7_8 
REMARK    8  A    between atoms: C7_8  and  O1_9 
REMARK    9  A    between atoms: C9_12  and  N2_14 
REMARK   10  A    between atoms: N2_14  and  C10_15 
ROOT
HETATM    1  N1  UNL     1      23.049   0.936  52.444  1.00  0.00    -0.358 N 
ENDROOT
BRANCH   1   2
HETATM    2  C4  UNL     1      23.043  -0.432  52.839  1.00  0.00     0.125 C 
BRANCH   2   3
HETATM    3  C3  UNL     1      23.551  -0.708  54.229  1.00  0.00     0.019 C 
BRANCH   3   4
HETATM    4  C2  UNL     1      22.298  -0.969  55.078  1.00  0.00    -0.003 C 
HETATM    5  C1  UNL     1      21.267  -1.755  54.333  1.00  0.00     0.005 C 
ENDBRANCH   3   4
ENDBRANCH   2   3
ENDBRANCH   1   2
BRANCH   1   6
HETATM    6  C5  UNL     1      21.694   1.346  52.222  1.00  0.00     0.132 C 
BRANCH   6   7
HETATM    7  C6  UNL     1      21.018   0.693  51.053  1.00  0.00     0.085 C 
BRANCH   7   8
HETATM    8  C7  UNL     1      19.581   0.424  51.283  1.00  0.00     0.055 C 
HETATM    9  C8  UNL     1      18.477   0.247  50.611  1.00  0.00     0.249 C 
HETATM   10 CL1  UNL     1      16.771  -0.070  50.834  1.00  0.00    -0.228 Cl
BRANCH   8  11
HETATM   11  O1  UNL     1      19.260   0.318  52.635  1.00  0.00    -0.364 OA
HETATM   12  H14 UNL     1      18.585  -0.365  52.955  1.00  0.00     0.217 HD
ENDBRANCH   8  11
ENDBRANCH   7   8
ENDBRANCH   6   7
ENDBRANCH   1   6
BRANCH   1  13
HETATM   13  C9  UNL     1      24.241   1.713  52.311  1.00  0.00     0.174 C 
HETATM   14  S1  UNL     1      24.218   3.204  52.981  1.00  0.00    -0.041 SA
BRANCH  13  15
HETATM   15  N2  UNL     1      25.473   1.366  51.664  1.00  0.00    -0.333 N 
HETATM   16  H16 UNL     1      25.753   1.368  50.656  1.00  0.00     0.168 HD
BRANCH  15  17
HETATM   17  C10 UNL     1      26.642   0.914  52.338  1.00  0.00     0.034 A 
HETATM   18  C11 UNL     1      27.622   1.691  52.921  1.00  0.00     0.029 A 
HETATM   19  C12 UNL     1      28.712   1.143  53.545  1.00  0.00     0.002 A 
HETATM   20  C13 UNL     1      28.781  -0.250  53.562  1.00  0.00     0.000 A 
HETATM   21  C14 UNL     1      27.840  -1.059  53.000  1.00  0.00     0.002 A 
HETATM   22  C15 UNL     1      26.755  -0.479  52.380  1.00  0.00     0.029 A 
ENDBRANCH  15  17
ENDBRANCH  13  15
ENDBRANCH   1  13
TORSDOF 10
ENDMDL
MODEL 9
REMARK VINA RESULT:      -5.7      3.733      6.553
REMARK  10 active torsions:
REMARK  status: ('A' for Active; 'I' for Inactive)
REMARK    1  A    between atoms: C2_2  and  C3_3 
REMARK    2  A    between atoms: C3_3  and  C4_4 
REMARK    3  A    between atoms: C4_4  and  N1_5 
REMARK    4  A    between atoms: N1_5  and  C5_6 
REMARK    5  A    between atoms: N1_5  and  C9_12 
REMARK    6  A    between atoms: C5_6  and  C6_7 
REMARK    7  A    between atoms: C6_7  and  C7_8 
REMARK    8  A    between atoms: C7_8  and  O1_9 
REMARK    9  A    between atoms: C9_12  and  N2_14 
REMARK   10  A    between atoms: N2_14  and  C10_15 
ROOT
HETATM    1  N1  UNL     1      24.319   2.193  52.492  1.00  0.00    -0.358 N 
ENDROOT
BRANCH   1   2
HETATM    2  C4  UNL     1      23.426   1.099  52.305  1.00  0.00     0.125 C 
BRANCH   2   3
HETATM    3  C3  UNL     1      23.675  -0.098  53.183  1.00  0.00     0.019 C 
BRANCH   3   4
HETATM    4  C2  UNL     1      22.373  -0.303  53.973  1.00  0.00    -0.003 C 
HETATM    5  C1  UNL     1      22.546  -1.268  55.102  1.00  0.00     0.005 C 
ENDBRANCH   3   4
ENDBRANCH   2   3
ENDBRANCH   1   2
BRANCH   1   6
HETATM    6  C5  UNL     1      23.543   3.388  52.636  1.00  0.00     0.132 C 
BRANCH   6   7
HETATM    7  C6  UNL     1      23.539   4.288  51.435  1.00  0.00     0.085 C 
BRANCH   7   8
HETATM    8  C7  UNL     1      22.919   3.669  50.243  1.00  0.00     0.055 C 
HETATM    9  C8  UNL     1      23.261   3.110  49.115  1.00  0.00     0.249 C 
HETATM   10 CL1  UNL     1      22.575   2.370  47.686  1.00  0.00    -0.228 Cl
BRANCH   8  11
HETATM   11  O1  UNL     1      21.527   3.659  50.300  1.00  0.00    -0.364 OA
HETATM   12  H14 UNL     1      20.982   3.208  49.574  1.00  0.00     0.217 HD
ENDBRANCH   8  11
ENDBRANCH   7   8
ENDBRANCH   6   7
ENDBRANCH   1   6
BRANCH   1  13
HETATM   13  C9  UNL     1      25.742   2.053  52.523  1.00  0.00     0.174 C 
HETATM   14  S1  UNL     1      26.535   2.358  51.126  1.00  0.00    -0.041 SA
BRANCH  13  15
HETATM   15  N2  UNL     1      26.584   1.679  53.622  1.00  0.00    -0.333 N 
HETATM   16  H16 UNL     1      26.596   1.982  54.623  1.00  0.00     0.168 HD
BRANCH  15  17
HETATM   17  C10 UNL     1      27.652   0.742  53.541  1.00  0.00     0.034 A 
HETATM   18  C11 UNL     1      29.001   1.000  53.683  1.00  0.00     0.029 A 
HETATM   19  C12 UNL     1      29.946   0.012  53.581  1.00  0.00     0.002 A 
HETATM   20  C13 UNL     1      29.473  -1.274  53.325  1.00  0.00     0.000 A 
HETATM   21  C14 UNL     1      28.154  -1.578  53.177  1.00  0.00     0.002 A 
HETATM   22  C15 UNL     1      27.227  -0.564  53.285  1.00  0.00     0.029 A 
ENDBRANCH  15  17
ENDBRANCH  13  15
ENDBRANCH   1  13
TORSDOF 10
ENDMDL
