MODEL 1
REMARK VINA RESULT:      -7.1      0.000      0.000
REMARK  7 active torsions:
REMARK  status: ('A' for Active; 'I' for Inactive)
REMARK    1  A    between atoms: C2_2  and  C3_3 
REMARK    2  A    between atoms: C4_4  and  C6_6 
REMARK    3  A    between atoms: C7_7  and  C8_8 
REMARK    4  A    between atoms: C13_16  and  C14_17 
REMARK    5  A    between atoms: C14_17  and  C15_18 
REMARK    6  A    between atoms: C15_18  and  O2_19 
REMARK    7  A    between atoms: C17_21  and  O3_22 
ROOT
HETATM    1  C8  UNL     1      23.779   1.072  52.161  1.00  0.00     0.074 C 
HETATM    2  N1  UNL     1      23.624  -0.078  52.828  1.00  0.00    -0.243 NA
HETATM    3  C9  UNL     1      22.351  -0.478  53.481  1.00  0.00     0.234 C 
HETATM    4  N2  UNL     1      21.046  -0.256  53.116  1.00  0.00    -0.240 NA
HETATM    5  C10 UNL     1      20.642   0.725  52.084  1.00  0.00     0.079 C 
HETATM    6  C11 UNL     1      19.959   1.674  52.814  1.00  0.00     0.166 C 
HETATM    7  O1  UNL     1      19.986   3.066  52.472  1.00  0.00    -0.360 OA
HETATM    8  C12 UNL     1      21.090   3.688  51.732  1.00  0.00     0.182 C 
HETATM    9  C13 UNL     1      22.430   3.165  52.131  1.00  0.00     0.057 C 
HETATM   10  C17 UNL     1      23.120   2.130  51.296  1.00  0.00     0.128 C 
HETATM   11  C19 UNL     1      22.133   1.447  50.340  1.00  0.00     0.020 C 
HETATM   12  C20 UNL     1      21.037   0.639  50.607  1.00  0.00     0.033 C 
ENDROOT
BRANCH   1  13
HETATM   13  C7  UNL     1      25.205   1.414  52.409  1.00  0.00     0.031 C 
HETATM   14  C6  UNL     1      26.107   0.527  52.791  1.00  0.00     0.008 C 
BRANCH  14  15
HETATM   15  C4  UNL     1      27.513   0.730  53.063  1.00  0.00    -0.066 C 
HETATM   16  C3  UNL     1      28.277  -0.291  53.314  1.00  0.00    -0.020 C 
HETATM   17  C5  UNL     1      27.886   2.164  53.010  1.00  0.00     0.048 C 
BRANCH  16  18
HETATM   18  C2  UNL     1      29.721  -0.265  53.611  1.00  0.00     0.023 C 
HETATM   19  C1  UNL     1      30.191  -1.697  53.787  1.00  0.00     0.009 C 
ENDBRANCH  16  18
ENDBRANCH  14  15
ENDBRANCH   1  13
BRANCH  10  20
HETATM   20  O3  UNL     1      24.087   2.698  50.531  1.00  0.00    -0.374 OA
HETATM   21  C18 UNL     1      23.821   3.066  49.256  1.00  0.00     0.203 C 
ENDBRANCH  10  20
BRANCH   9  22
HETATM   22  C14 UNL     1      23.365   4.297  52.515  1.00  0.00     0.036 C 
BRANCH  22  23
HETATM   23  C15 UNL     1      22.914   5.611  51.916  1.00  0.00     0.167 C 
BRANCH  23  24
HETATM   24  O2  UNL     1      24.072   6.275  51.443  1.00  0.00    -0.396 OA
HETATM   25  C16 UNL     1      23.540   7.393  50.760  1.00  0.00     0.201 C 
ENDBRANCH  23  24
ENDBRANCH  22  23
ENDBRANCH   9  22
TORSDOF 7
ENDMDL
MODEL 2
REMARK VINA RESULT:      -6.9      2.188      6.146
REMARK  7 active torsions:
REMARK  status: ('A' for Active; 'I' for Inactive)
REMARK    1  A    between atoms: C2_2  and  C3_3 
REMARK    2  A    between atoms: C4_4  and  C6_6 
REMARK    3  A    between atoms: C7_7  and  C8_8 
REMARK    4  A    between atoms: C13_16  and  C14_17 
REMARK    5  A    between atoms: C14_17  and  C15_18 
REMARK    6  A    between atoms: C15_18  and  O2_19 
REMARK    7  A    between atoms: C17_21  and  O3_22 
ROOT
HETATM    1  C8  UNL     1      23.068   1.175  52.962  1.00  0.00     0.074 C 
HETATM    2  N1  UNL     1      23.356   0.054  53.633  1.00  0.00    -0.243 NA
HETATM    3  C9  UNL     1      24.672  -0.629  53.554  1.00  0.00     0.234 C 
HETATM    4  N2  UNL     1      25.940  -0.123  53.416  1.00  0.00    -0.240 NA
HETATM    5  C10 UNL     1      26.223   1.275  53.016  1.00  0.00     0.079 C 
HETATM    6  C11 UNL     1      26.806   1.125  51.775  1.00  0.00     0.166 C 
HETATM    7  O1  UNL     1      26.622   2.084  50.725  1.00  0.00    -0.360 OA
HETATM    8  C12 UNL     1      25.448   2.960  50.636  1.00  0.00     0.182 C 
HETATM    9  C13 UNL     1      24.178   2.278  51.025  1.00  0.00     0.057 C 
HETATM   10  C17 UNL     1      23.596   2.478  52.390  1.00  0.00     0.128 C 
HETATM   11  C19 UNL     1      24.641   3.055  53.354  1.00  0.00     0.020 C 
HETATM   12  C20 UNL     1      25.822   2.506  53.833  1.00  0.00     0.033 C 
ENDROOT
BRANCH   1  13
HETATM   13  C7  UNL     1      21.616   1.030  52.674  1.00  0.00     0.031 C 
HETATM   14  C6  UNL     1      20.950  -0.098  52.854  1.00  0.00     0.008 C 
BRANCH  14  15
HETATM   15  C4  UNL     1      19.550  -0.367  52.614  1.00  0.00    -0.066 C 
HETATM   16  C3  UNL     1      18.892  -1.138  53.427  1.00  0.00    -0.020 C 
HETATM   17  C5  UNL     1      19.053   0.325  51.400  1.00  0.00     0.048 C 
BRANCH  16  18
HETATM   18  C2  UNL     1      17.469  -1.516  53.333  1.00  0.00     0.023 C 
HETATM   19  C1  UNL     1      17.372  -3.024  53.474  1.00  0.00     0.009 C 
ENDBRANCH  16  18
ENDBRANCH  14  15
ENDBRANCH   1  13
BRANCH  10  20
HETATM   20  O3  UNL     1      22.564   3.359  52.348  1.00  0.00    -0.374 OA
HETATM   21  C18 UNL     1      22.761   4.658  52.671  1.00  0.00     0.203 C 
ENDBRANCH  10  20
BRANCH   9  22
HETATM   22  C14 UNL     1      23.128   2.419  49.937  1.00  0.00     0.036 C 
BRANCH  22  23
HETATM   23  C15 UNL     1      23.490   3.517  48.961  1.00  0.00     0.167 C 
BRANCH  23  24
HETATM   24  O2  UNL     1      22.549   3.466  47.905  1.00  0.00    -0.396 OA
HETATM   25  C16 UNL     1      22.338   2.078  47.735  1.00  0.00     0.201 C 
ENDBRANCH  23  24
ENDBRANCH  22  23
ENDBRANCH   9  22
TORSDOF 7
ENDMDL
MODEL 3
REMARK VINA RESULT:      -6.7      3.868      5.716
REMARK  7 active torsions:
REMARK  status: ('A' for Active; 'I' for Inactive)
REMARK    1  A    between atoms: C2_2  and  C3_3 
REMARK    2  A    between atoms: C4_4  and  C6_6 
REMARK    3  A    between atoms: C7_7  and  C8_8 
REMARK    4  A    between atoms: C13_16  and  C14_17 
REMARK    5  A    between atoms: C14_17  and  C15_18 
REMARK    6  A    between atoms: C15_18  and  O2_19 
REMARK    7  A    between atoms: C17_21  and  O3_22 
ROOT
HETATM    1  C8  UNL     1      25.925   4.378  49.509  1.00  0.00     0.074 C 
HETATM    2  N1  UNL     1      26.782   3.404  49.833  1.00  0.00    -0.243 NA
HETATM    3  C9  UNL     1      26.631   2.553  51.042  1.00  0.00     0.234 C 
HETATM    4  N2  UNL     1      25.508   2.078  51.671  1.00  0.00    -0.240 NA
HETATM    5  C10 UNL     1      24.144   2.588  51.404  1.00  0.00     0.079 C 
HETATM    6  C11 UNL     1      23.808   3.200  52.593  1.00  0.00     0.166 C 
HETATM    7  O1  UNL     1      22.985   4.373  52.642  1.00  0.00    -0.360 OA
HETATM    8  C12 UNL     1      22.879   5.324  51.530  1.00  0.00     0.182 C 
HETATM    9  C13 UNL     1      24.179   5.560  50.834  1.00  0.00     0.057 C 
HETATM   10  C17 UNL     1      24.487   4.861  49.545  1.00  0.00     0.128 C 
HETATM   11  C19 UNL     1      23.554   3.662  49.333  1.00  0.00     0.020 C 
HETATM   12  C20 UNL     1      23.430   2.482  50.053  1.00  0.00     0.033 C 
ENDROOT
BRANCH   1  13
HETATM   13  C7  UNL     1      26.796   5.384  48.844  1.00  0.00     0.031 C 
HETATM   14  C6  UNL     1      28.069   5.166  48.562  1.00  0.00     0.008 C 
BRANCH  14  15
HETATM   15  C4  UNL     1      29.016   6.054  47.923  1.00  0.00    -0.066 C 
HETATM   16  C3  UNL     1      28.616   7.200  47.458  1.00  0.00    -0.020 C 
HETATM   17  C5  UNL     1      30.383   5.479  47.898  1.00  0.00     0.048 C 
BRANCH  16  18
HETATM   18  C2  UNL     1      29.441   8.218  46.783  1.00  0.00     0.023 C 
HETATM   19  C1  UNL     1      29.138   8.160  45.297  1.00  0.00     0.009 C 
ENDBRANCH  16  18
ENDBRANCH  14  15
ENDBRANCH   1  13
BRANCH  10  20
HETATM   20  O3  UNL     1      24.305   5.698  48.492  1.00  0.00    -0.374 OA
HETATM   21  C18 UNL     1      23.168   5.639  47.761  1.00  0.00     0.203 C 
ENDBRANCH  10  20
BRANCH   9  22
HETATM   22  C14 UNL     1      24.501   7.041  50.765  1.00  0.00     0.036 C 
BRANCH  22  23
HETATM   23  C15 UNL     1      23.240   7.879  50.756  1.00  0.00     0.167 C 
BRANCH  23  24
HETATM   24  O2  UNL     1      23.295   8.706  49.608  1.00  0.00    -0.396 OA
HETATM   25  C16 UNL     1      21.933   8.852  49.257  1.00  0.00     0.201 C 
ENDBRANCH  23  24
ENDBRANCH  22  23
ENDBRANCH   9  22
TORSDOF 7
ENDMDL
MODEL 4
REMARK VINA RESULT:      -6.5      2.744      5.434
REMARK  7 active torsions:
REMARK  status: ('A' for Active; 'I' for Inactive)
REMARK    1  A    between atoms: C2_2  and  C3_3 
REMARK    2  A    between atoms: C4_4  and  C6_6 
REMARK    3  A    between atoms: C7_7  and  C8_8 
REMARK    4  A    between atoms: C13_16  and  C14_17 
REMARK    5  A    between atoms: C14_17  and  C15_18 
REMARK    6  A    between atoms: C15_18  and  O2_19 
REMARK    7  A    between atoms: C17_21  and  O3_22 
ROOT
HETATM    1  C8  UNL     1      23.255   3.060  50.147  1.00  0.00     0.074 C 
HETATM    2  N1  UNL     1      22.684   3.002  48.938  1.00  0.00    -0.243 NA
HETATM    3  C9  UNL     1      21.636   2.013  48.577  1.00  0.00     0.234 C 
HETATM    4  N2  UNL     1      20.626   1.461  49.326  1.00  0.00    -0.240 NA
HETATM    5  C10 UNL     1      20.564   1.546  50.803  1.00  0.00     0.079 C 
HETATM    6  C11 UNL     1      20.743   0.235  51.193  1.00  0.00     0.166 C 
HETATM    7  O1  UNL     1      21.434  -0.114  52.399  1.00  0.00    -0.360 OA
HETATM    8  C12 UNL     1      22.446   0.747  53.020  1.00  0.00     0.182 C 
HETATM    9  C13 UNL     1      23.328   1.426  52.025  1.00  0.00     0.057 C 
HETATM   10  C17 UNL     1      23.080   2.852  51.639  1.00  0.00     0.128 C 
HETATM   11  C19 UNL     1      21.665   3.291  52.039  1.00  0.00     0.020 C 
HETATM   12  C20 UNL     1      20.427   2.853  51.588  1.00  0.00     0.033 C 
ENDROOT
BRANCH   1  13
HETATM   13  C7  UNL     1      24.638   3.515  49.843  1.00  0.00     0.031 C 
HETATM   14  C6  UNL     1      24.910   4.679  49.279  1.00  0.00     0.008 C 
BRANCH  14  15
HETATM   15  C4  UNL     1      26.200   5.235  48.934  1.00  0.00    -0.066 C 
HETATM   16  C3  UNL     1      26.297   6.488  48.604  1.00  0.00    -0.020 C 
HETATM   17  C5  UNL     1      27.280   4.221  49.016  1.00  0.00     0.048 C 
BRANCH  16  18
HETATM   18  C2  UNL     1      27.525   7.212  48.226  1.00  0.00     0.023 C 
HETATM   19  C1  UNL     1      27.232   8.012  46.970  1.00  0.00     0.009 C 
ENDBRANCH  16  18
ENDBRANCH  14  15
ENDBRANCH   1  13
BRANCH  10  20
HETATM   20  O3  UNL     1      23.948   3.679  52.276  1.00  0.00    -0.374 OA
HETATM   21  C18 UNL     1      23.489   4.744  52.974  1.00  0.00     0.203 C 
ENDBRANCH  10  20
BRANCH   9  22
HETATM   22  C14 UNL     1      24.793   1.170  52.330  1.00  0.00     0.036 C 
BRANCH  22  23
HETATM   23  C15 UNL     1      24.956   0.173  53.456  1.00  0.00     0.167 C 
BRANCH  23  24
HETATM   24  O2  UNL     1      25.817  -0.849  52.989  1.00  0.00    -0.396 OA
HETATM   25  C16 UNL     1      26.692  -0.156  52.122  1.00  0.00     0.201 C 
ENDBRANCH  23  24
ENDBRANCH  22  23
ENDBRANCH   9  22
TORSDOF 7
ENDMDL
MODEL 5
REMARK VINA RESULT:      -6.5      2.813      3.958
REMARK  7 active torsions:
REMARK  status: ('A' for Active; 'I' for Inactive)
REMARK    1  A    between atoms: C2_2  and  C3_3 
REMARK    2  A    between atoms: C4_4  and  C6_6 
REMARK    3  A    between atoms: C7_7  and  C8_8 
REMARK    4  A    between atoms: C13_16  and  C14_17 
REMARK    5  A    between atoms: C14_17  and  C15_18 
REMARK    6  A    between atoms: C15_18  and  O2_19 
REMARK    7  A    between atoms: C17_21  and  O3_22 
ROOT
HETATM    1  C8  UNL     1      23.448   2.592  50.410  1.00  0.00     0.074 C 
HETATM    2  N1  UNL     1      24.299   1.991  51.250  1.00  0.00    -0.243 NA
HETATM    3  C9  UNL     1      23.907   1.495  52.594  1.00  0.00     0.234 C 
HETATM    4  N2  UNL     1      22.731   0.946  53.040  1.00  0.00    -0.240 NA
HETATM    5  C10 UNL     1      21.460   1.006  52.281  1.00  0.00     0.079 C 
HETATM    6  C11 UNL     1      20.671   1.817  53.069  1.00  0.00     0.166 C 
HETATM    7  O1  UNL     1      19.702   2.714  52.511  1.00  0.00    -0.360 OA
HETATM    8  C12 UNL     1      19.808   3.266  51.155  1.00  0.00     0.182 C 
HETATM    9  C13 UNL     1      21.208   3.618  50.774  1.00  0.00     0.057 C 
HETATM   10  C17 UNL     1      22.017   2.692  49.918  1.00  0.00     0.128 C 
HETATM   11  C19 UNL     1      21.401   1.287  49.893  1.00  0.00     0.020 C 
HETATM   12  C20 UNL     1      21.240   0.358  50.911  1.00  0.00     0.033 C 
ENDROOT
BRANCH   1  13
HETATM   13  C7  UNL     1      24.317   3.561  49.690  1.00  0.00     0.031 C 
HETATM   14  C6  UNL     1      24.977   4.532  50.296  1.00  0.00     0.008 C 
BRANCH  14  15
HETATM   15  C4  UNL     1      25.847   5.531  49.715  1.00  0.00    -0.066 C 
HETATM   16  C3  UNL     1      26.831   5.165  48.949  1.00  0.00    -0.020 C 
HETATM   17  C5  UNL     1      25.454   6.905  50.111  1.00  0.00     0.048 C 
BRANCH  16  18
HETATM   18  C2  UNL     1      27.807   6.045  48.280  1.00  0.00     0.023 C 
HETATM   19  C1  UNL     1      29.117   5.287  48.157  1.00  0.00     0.009 C 
ENDBRANCH  16  18
ENDBRANCH  14  15
ENDBRANCH   1  13
BRANCH  10  20
HETATM   20  O3  UNL     1      22.052   3.134  48.634  1.00  0.00    -0.374 OA
HETATM   21  C18 UNL     1      21.433   2.436  47.654  1.00  0.00     0.203 C 
ENDBRANCH  10  20
BRANCH   9  22
HETATM   22  C14 UNL     1      21.299   5.055  50.295  1.00  0.00     0.036 C 
BRANCH  22  23
HETATM   23  C15 UNL     1      21.767   5.976  51.400  1.00  0.00     0.167 C 
BRANCH  23  24
HETATM   24  O2  UNL     1      21.522   7.303  50.972  1.00  0.00    -0.396 OA
HETATM   25  C16 UNL     1      21.582   7.198  49.563  1.00  0.00     0.201 C 
ENDBRANCH  23  24
ENDBRANCH  22  23
ENDBRANCH   9  22
TORSDOF 7
ENDMDL
MODEL 6
REMARK VINA RESULT:      -6.4      2.861      5.264
REMARK  7 active torsions:
REMARK  status: ('A' for Active; 'I' for Inactive)
REMARK    1  A    between atoms: C2_2  and  C3_3 
REMARK    2  A    between atoms: C4_4  and  C6_6 
REMARK    3  A    between atoms: C7_7  and  C8_8 
REMARK    4  A    between atoms: C13_16  and  C14_17 
REMARK    5  A    between atoms: C14_17  and  C15_18 
REMARK    6  A    between atoms: C15_18  and  O2_19 
REMARK    7  A    between atoms: C17_21  and  O3_22 
ROOT
HETATM    1  C8  UNL     1      25.301   3.810  50.432  1.00  0.00     0.074 C 
HETATM    2  N1  UNL     1      26.588   3.844  50.068  1.00  0.00    -0.243 NA
HETATM    3  C9  UNL     1      27.105   4.707  48.975  1.00  0.00     0.234 C 
HETATM    4  N2  UNL     1      26.728   5.962  48.568  1.00  0.00    -0.240 NA
HETATM    5  C10 UNL     1      25.468   6.615  48.993  1.00  0.00     0.079 C 
HETATM    6  C11 UNL     1      24.747   6.682  47.819  1.00  0.00     0.166 C 
HETATM    7  O1  UNL     1      23.319   6.561  47.793  1.00  0.00    -0.360 OA
HETATM    8  C12 UNL     1      22.557   5.843  48.821  1.00  0.00     0.182 C 
HETATM    9  C13 UNL     1      23.234   4.597  49.288  1.00  0.00     0.057 C 
HETATM   10  C17 UNL     1      24.006   4.588  50.571  1.00  0.00     0.128 C 
HETATM   11  C19 UNL     1      24.331   6.017  51.026  1.00  0.00     0.020 C 
HETATM   12  C20 UNL     1      25.132   6.987  50.440  1.00  0.00     0.033 C 
ENDROOT
BRANCH   1  13
HETATM   13  C7  UNL     1      25.112   2.400  50.866  1.00  0.00     0.031 C 
HETATM   14  C6  UNL     1      25.864   1.817  51.783  1.00  0.00     0.008 C 
BRANCH  14  15
HETATM   15  C4  UNL     1      25.784   0.464  52.289  1.00  0.00    -0.066 C 
HETATM   16  C3  UNL     1      26.746  -0.375  52.046  1.00  0.00    -0.020 C 
HETATM   17  C5  UNL     1      24.535   0.233  53.055  1.00  0.00     0.048 C 
BRANCH  16  18
HETATM   18  C2  UNL     1      26.825  -1.781  52.483  1.00  0.00     0.023 C 
HETATM   19  C1  UNL     1      28.237  -2.042  52.974  1.00  0.00     0.009 C 
ENDBRANCH  16  18
ENDBRANCH  14  15
ENDBRANCH   1  13
BRANCH  10  20
HETATM   20  O3  UNL     1      23.281   4.010  51.563  1.00  0.00    -0.374 OA
HETATM   21  C18 UNL     1      22.885   4.737  52.633  1.00  0.00     0.203 C 
ENDBRANCH  10  20
BRANCH   9  22
HETATM   22  C14 UNL     1      22.309   3.398  49.177  1.00  0.00     0.036 C 
BRANCH  22  23
HETATM   23  C15 UNL     1      22.623   2.571  47.950  1.00  0.00     0.167 C 
BRANCH  23  24
HETATM   24  O2  UNL     1      21.976   1.322  48.110  1.00  0.00    -0.396 OA
HETATM   25  C16 UNL     1      21.714   1.276  49.498  1.00  0.00     0.201 C 
ENDBRANCH  23  24
ENDBRANCH  22  23
ENDBRANCH   9  22
TORSDOF 7
ENDMDL
MODEL 7
REMARK VINA RESULT:      -6.4      7.052      9.060
REMARK  7 active torsions:
REMARK  status: ('A' for Active; 'I' for Inactive)
REMARK    1  A    between atoms: C2_2  and  C3_3 
REMARK    2  A    between atoms: C4_4  and  C6_6 
REMARK    3  A    between atoms: C7_7  and  C8_8 
REMARK    4  A    between atoms: C13_16  and  C14_17 
REMARK    5  A    between atoms: C14_17  and  C15_18 
REMARK    6  A    between atoms: C15_18  and  O2_19 
REMARK    7  A    between atoms: C17_21  and  O3_22 
ROOT
HETATM    1  C8  UNL     1      29.259   6.416  47.736  1.00  0.00     0.074 C 
HETATM    2  N1  UNL     1      28.725   5.216  47.992  1.00  0.00    -0.243 NA
HETATM    3  C9  UNL     1      27.583   5.011  48.919  1.00  0.00     0.234 C 
HETATM    4  N2  UNL     1      26.493   5.800  49.189  1.00  0.00    -0.240 NA
HETATM    5  C10 UNL     1      26.391   7.220  48.783  1.00  0.00     0.079 C 
HETATM    6  C11 UNL     1      26.405   7.886  49.991  1.00  0.00     0.166 C 
HETATM    7  O1  UNL     1      27.011   9.176  50.144  1.00  0.00    -0.360 OA
HETATM    8  C12 UNL     1      28.095   9.660  49.280  1.00  0.00     0.182 C 
HETATM    9  C13 UNL     1      29.081   8.596  48.927  1.00  0.00     0.057 C 
HETATM   10  C17 UNL     1      29.011   7.907  47.599  1.00  0.00     0.128 C 
HETATM   11  C19 UNL     1      27.643   8.124  46.939  1.00  0.00     0.020 C 
HETATM   12  C20 UNL     1      26.379   7.705  47.331  1.00  0.00     0.033 C 
ENDROOT
BRANCH   1  13
HETATM   13  C7  UNL     1      30.694   6.103  47.505  1.00  0.00     0.031 C 
HETATM   14  C6  UNL     1      31.424   5.386  48.342  1.00  0.00     0.008 C 
BRANCH  14  15
HETATM   15  C4  UNL     1      32.817   5.014  48.234  1.00  0.00    -0.066 C 
HETATM   16  C3  UNL     1      33.139   3.844  47.768  1.00  0.00    -0.020 C 
HETATM   17  C5  UNL     1      33.717   6.096  48.702  1.00  0.00     0.048 C 
BRANCH  16  18
HETATM   18  C2  UNL     1      34.501   3.306  47.591  1.00  0.00     0.023 C 
HETATM   19  C1  UNL     1      34.844   3.371  46.114  1.00  0.00     0.009 C 
ENDBRANCH  16  18
ENDBRANCH  14  15
ENDBRANCH   1  13
BRANCH  10  20
HETATM   20  O3  UNL     1      29.946   8.405  46.750  1.00  0.00    -0.374 OA
HETATM   21  C18 UNL     1      29.572   9.124  45.666  1.00  0.00     0.203 C 
ENDBRANCH  10  20
BRANCH   9  22
HETATM   22  C14 UNL     1      30.496   9.031  49.264  1.00  0.00     0.036 C 
BRANCH  22  23
HETATM   23  C15 UNL     1      30.595  10.536  49.388  1.00  0.00     0.167 C 
BRANCH  23  24
HETATM   24  O2  UNL     1      31.340  10.999  48.276  1.00  0.00    -0.396 OA
HETATM   25  C16 UNL     1      30.555  12.071  47.792  1.00  0.00     0.201 C 
ENDBRANCH  23  24
ENDBRANCH  22  23
ENDBRANCH   9  22
TORSDOF 7
ENDMDL
MODEL 8
REMARK VINA RESULT:      -6.4      8.739     11.643
REMARK  7 active torsions:
REMARK  status: ('A' for Active; 'I' for Inactive)
REMARK    1  A    between atoms: C2_2  and  C3_3 
REMARK    2  A    between atoms: C4_4  and  C6_6 
REMARK    3  A    between atoms: C7_7  and  C8_8 
REMARK    4  A    between atoms: C13_16  and  C14_17 
REMARK    5  A    between atoms: C14_17  and  C15_18 
REMARK    6  A    between atoms: C15_18  and  O2_19 
REMARK    7  A    between atoms: C17_21  and  O3_22 
ROOT
HETATM    1  C8  UNL     1      31.412   5.448  47.472  1.00  0.00     0.074 C 
HETATM    2  N1  UNL     1      31.293   4.115  47.510  1.00  0.00    -0.243 NA
HETATM    3  C9  UNL     1      32.048   3.203  46.612  1.00  0.00     0.234 C 
HETATM    4  N2  UNL     1      33.316   3.298  46.096  1.00  0.00    -0.240 NA
HETATM    5  C10 UNL     1      34.116   4.544  46.117  1.00  0.00     0.079 C 
HETATM    6  C11 UNL     1      34.205   4.872  44.780  1.00  0.00     0.166 C 
HETATM    7  O1  UNL     1      34.234   6.233  44.329  1.00  0.00    -0.360 OA
HETATM    8  C12 UNL     1      33.647   7.342  45.089  1.00  0.00     0.182 C 
HETATM    9  C13 UNL     1      32.358   6.980  45.752  1.00  0.00     0.057 C 
HETATM   10  C17 UNL     1      32.327   6.629  47.208  1.00  0.00     0.128 C 
HETATM   11  C19 UNL     1      33.733   6.293  47.723  1.00  0.00     0.020 C 
HETATM   12  C20 UNL     1      34.585   5.249  47.392  1.00  0.00     0.033 C 
ENDROOT
BRANCH   1  13
HETATM   13  C7  UNL     1      30.050   5.916  47.846  1.00  0.00     0.031 C 
HETATM   14  C6  UNL     1      29.069   5.097  48.180  1.00  0.00     0.008 C 
BRANCH  14  15
HETATM   15  C4  UNL     1      27.712   5.423  48.561  1.00  0.00    -0.066 C 
HETATM   16  C3  UNL     1      27.265   6.631  48.389  1.00  0.00    -0.020 C 
HETATM   17  C5  UNL     1      26.998   4.251  49.124  1.00  0.00     0.048 C 
BRANCH  16  18
HETATM   18  C2  UNL     1      25.918   7.132  48.719  1.00  0.00     0.023 C 
HETATM   19  C1  UNL     1      25.958   7.699  50.126  1.00  0.00     0.009 C 
ENDBRANCH  16  18
ENDBRANCH  14  15
ENDBRANCH   1  13
BRANCH  10  20
HETATM   20  O3  UNL     1      31.873   7.676  47.944  1.00  0.00    -0.374 OA
HETATM   21  C18 UNL     1      32.638   8.200  48.930  1.00  0.00     0.203 C 
ENDBRANCH  10  20
BRANCH   9  22
HETATM   22  C14 UNL     1      31.260   7.960  45.383  1.00  0.00     0.036 C 
BRANCH  22  23
HETATM   23  C15 UNL     1      31.834   9.261  44.866  1.00  0.00     0.167 C 
BRANCH  23  24
HETATM   24  O2  UNL     1      31.684  10.224  45.894  1.00  0.00    -0.396 OA
HETATM   25  C16 UNL     1      32.873  10.983  45.795  1.00  0.00     0.201 C 
ENDBRANCH  23  24
ENDBRANCH  22  23
ENDBRANCH   9  22
TORSDOF 7
ENDMDL
MODEL 9
REMARK VINA RESULT:      -6.3      7.969     10.798
REMARK  7 active torsions:
REMARK  status: ('A' for Active; 'I' for Inactive)
REMARK    1  A    between atoms: C2_2  and  C3_3 
REMARK    2  A    between atoms: C4_4  and  C6_6 
REMARK    3  A    between atoms: C7_7  and  C8_8 
REMARK    4  A    between atoms: C13_16  and  C14_17 
REMARK    5  A    between atoms: C14_17  and  C15_18 
REMARK    6  A    between atoms: C15_18  and  O2_19 
REMARK    7  A    between atoms: C17_21  and  O3_22 
ROOT
HETATM    1  C8  UNL     1      30.519   6.058  47.882  1.00  0.00     0.074 C 
HETATM    2  N1  UNL     1      30.795   4.749  47.894  1.00  0.00    -0.243 NA
HETATM    3  C9  UNL     1      31.855   4.131  47.057  1.00  0.00     0.234 C 
HETATM    4  N2  UNL     1      33.078   4.611  46.658  1.00  0.00    -0.240 NA
HETATM    5  C10 UNL     1      33.471   6.035  46.765  1.00  0.00     0.079 C 
HETATM    6  C11 UNL     1      33.570   6.424  45.445  1.00  0.00     0.166 C 
HETATM    7  O1  UNL     1      33.234   7.750  45.014  1.00  0.00    -0.360 OA
HETATM    8  C12 UNL     1      32.287   8.610  45.732  1.00  0.00     0.182 C 
HETATM    9  C13 UNL     1      31.112   7.863  46.272  1.00  0.00     0.057 C 
HETATM   10  C17 UNL     1      31.065   7.464  47.715  1.00  0.00     0.128 C 
HETATM   11  C19 UNL     1      32.460   7.534  48.350  1.00  0.00     0.020 C 
HETATM   12  C20 UNL     1      33.606   6.798  48.085  1.00  0.00     0.033 C 
ENDROOT
BRANCH   1  13
HETATM   13  C7  UNL     1      29.054   6.095  48.137  1.00  0.00     0.031 C 
HETATM   14  C6  UNL     1      28.368   5.052  48.571  1.00  0.00     0.008 C 
BRANCH  14  15
HETATM   15  C4  UNL     1      26.953   4.958  48.856  1.00  0.00    -0.066 C 
HETATM   16  C3  UNL     1      26.458   3.846  49.312  1.00  0.00    -0.020 C 
HETATM   17  C5  UNL     1      26.244   6.227  48.564  1.00  0.00     0.048 C 
BRANCH  16  18
HETATM   18  C2  UNL     1      25.048   3.579  49.653  1.00  0.00     0.023 C 
HETATM   19  C1  UNL     1      25.017   2.844  50.981  1.00  0.00     0.009 C 
ENDBRANCH  16  18
ENDBRANCH  14  15
ENDBRANCH   1  13
BRANCH  10  20
HETATM   20  O3  UNL     1      30.264   8.305  48.419  1.00  0.00    -0.374 OA
HETATM   21  C18 UNL     1      30.798   9.164  49.318  1.00  0.00     0.203 C 
ENDBRANCH  10  20
BRANCH   9  22
HETATM   22  C14 UNL     1      29.808   8.494  45.817  1.00  0.00     0.036 C 
BRANCH  22  23
HETATM   23  C15 UNL     1      30.020   9.915  45.341  1.00  0.00     0.167 C 
BRANCH  23  24
HETATM   24  O2  UNL     1      29.535  10.774  46.357  1.00  0.00    -0.396 OA
HETATM   25  C16 UNL     1      30.534  11.772  46.432  1.00  0.00     0.201 C 
ENDBRANCH  23  24
ENDBRANCH  22  23
ENDBRANCH   9  22
TORSDOF 7
ENDMDL
