MODEL 1
REMARK VINA RESULT:     -10.2      0.000      0.000
REMARK  5 active torsions:
REMARK  status: ('A' for Active; 'I' for Inactive)
REMARK    1  A    between atoms: C5_5  and  C6_6 
REMARK    2  A    between atoms: N2_8  and  C7_9 
REMARK    3  A    between atoms: C8_11  and  O1_12 
REMARK    4  A    between atoms: C10_15  and  C11_16 
REMARK    5  A    between atoms: C14_19  and  O2_20 
ROOT
HETATM    1  C6  UNL     1      25.546   3.121  51.077  1.00  0.00     0.067 C 
HETATM    2  N1  UNL     1      24.506   2.763  51.700  1.00  0.00    -0.173 NA
HETATM    3  N2  UNL     1      24.692   1.604  52.480  1.00  0.00    -0.236 N 
HETATM    4  C10 UNL     1      26.083   1.603  52.738  1.00  0.00     0.151 C 
HETATM    5  C18 UNL     1      26.614   2.142  51.400  1.00  0.00     0.094 C 
ENDROOT
BRANCH   4   6
HETATM    6  C11 UNL     1      26.749   0.307  52.932  1.00  0.00    -0.033 C 
HETATM    7  C12 UNL     1      26.494  -0.878  52.409  1.00  0.00     0.012 C 
HETATM    8  C13 UNL     1      27.116  -2.181  52.566  1.00  0.00     0.033 C 
HETATM    9  C14 UNL     1      28.338  -2.326  53.030  1.00  0.00     0.046 C 
HETATM   10  C15 UNL     1      29.472  -1.521  53.519  1.00  0.00     0.091 C 
HETATM   11  C16 UNL     1      28.950  -0.265  54.105  1.00  0.00    -0.020 C 
HETATM   12  C17 UNL     1      27.863   0.499  53.897  1.00  0.00     0.006 C 
BRANCH   9  13
HETATM   13  O2  UNL     1      28.617  -3.687  53.049  1.00  0.00    -0.365 OA
HETATM   14  H11 UNL     1      28.408  -4.252  53.863  1.00  0.00     0.217 HD
ENDBRANCH   9  13
ENDBRANCH   4   6
BRANCH   3  15
HETATM   15  C7  UNL     1      23.520   0.861  52.762  1.00  0.00     0.192 A 
HETATM   16  N3  UNL     1      23.395   0.198  53.784  1.00  0.00    -0.198 NA
HETATM   17  C8  UNL     1      22.309  -0.501  54.057  1.00  0.00     0.171 A 
HETATM   18  C9  UNL     1      21.186  -0.538  53.177  1.00  0.00     0.111 A 
HETATM   19  S1  UNL     1      21.896   0.616  51.812  1.00  0.00    -0.058 SA
BRANCH  17  20
HETATM   20  O1  UNL     1      22.094  -1.287  55.208  1.00  0.00    -0.344 OA
HETATM   21  H6  UNL     1      21.347  -1.084  55.857  1.00  0.00     0.219 HD
ENDBRANCH  17  20
ENDBRANCH   3  15
BRANCH   1  22
HETATM   22  C5  UNL     1      25.799   4.242  50.171  1.00  0.00    -0.010 A 
HETATM   23  C4  UNL     1      26.971   4.328  49.420  1.00  0.00     0.014 A 
HETATM   24  C3  UNL     1      27.271   5.350  48.553  1.00  0.00     0.007 A 
HETATM   25  C2  UNL     1      26.360   6.372  48.401  1.00  0.00    -0.062 A 
HETATM   26  C1  UNL     1      26.697   7.471  47.465  1.00  0.00     0.048 C 
HETATM   27  C20 UNL     1      25.165   6.354  49.120  1.00  0.00     0.007 A 
HETATM   28  C19 UNL     1      24.941   5.294  49.968  1.00  0.00     0.014 A 
ENDBRANCH   1  22
TORSDOF 5
ENDMDL
MODEL 2
REMARK VINA RESULT:      -9.4      2.844      6.537
REMARK  5 active torsions:
REMARK  status: ('A' for Active; 'I' for Inactive)
REMARK    1  A    between atoms: C5_5  and  C6_6 
REMARK    2  A    between atoms: N2_8  and  C7_9 
REMARK    3  A    between atoms: C8_11  and  O1_12 
REMARK    4  A    between atoms: C10_15  and  C11_16 
REMARK    5  A    between atoms: C14_19  and  O2_20 
ROOT
HETATM    1  C6  UNL     1      22.805   1.003  52.171  1.00  0.00     0.067 C 
HETATM    2  N1  UNL     1      23.031   1.976  51.396  1.00  0.00    -0.173 NA
HETATM    3  N2  UNL     1      24.392   2.335  51.331  1.00  0.00    -0.236 N 
HETATM    4  C10 UNL     1      25.063   1.141  51.689  1.00  0.00     0.151 C 
HETATM    5  C18 UNL     1      24.105   0.594  52.759  1.00  0.00     0.094 C 
ENDROOT
BRANCH   4   6
HETATM    6  C11 UNL     1      26.370   1.256  52.352  1.00  0.00    -0.033 C 
HETATM    7  C12 UNL     1      27.014   2.314  52.807  1.00  0.00     0.012 C 
HETATM    8  C13 UNL     1      28.298   2.482  53.465  1.00  0.00     0.033 C 
HETATM    9  C14 UNL     1      28.917   1.486  54.063  1.00  0.00     0.046 C 
HETATM   10  C15 UNL     1      28.750   0.049  54.347  1.00  0.00     0.091 C 
HETATM   11  C16 UNL     1      27.920  -0.556  53.281  1.00  0.00    -0.020 C 
HETATM   12  C17 UNL     1      26.955  -0.106  52.459  1.00  0.00     0.006 C 
BRANCH   9  13
HETATM   13  O2  UNL     1      30.105   1.988  54.583  1.00  0.00    -0.365 OA
HETATM   14  H11 UNL     1      30.166   2.291  55.546  1.00  0.00     0.217 HD
ENDBRANCH   9  13
ENDBRANCH   4   6
BRANCH   3  15
HETATM   15  C7  UNL     1      24.656   3.671  50.941  1.00  0.00     0.192 A 
HETATM   16  N3  UNL     1      24.057   4.624  51.423  1.00  0.00    -0.198 NA
HETATM   17  C8  UNL     1      24.291   5.873  51.066  1.00  0.00     0.171 A 
HETATM   18  C9  UNL     1      25.270   6.213  50.084  1.00  0.00     0.111 A 
HETATM   19  S1  UNL     1      25.866   4.427  49.690  1.00  0.00    -0.058 SA
BRANCH  17  20
HETATM   20  O1  UNL     1      23.643   7.018  51.573  1.00  0.00    -0.344 OA
HETATM   21  H6  UNL     1      23.661   7.899  51.081  1.00  0.00     0.219 HD
ENDBRANCH  17  20
ENDBRANCH   3  15
BRANCH   1  22
HETATM   22  C5  UNL     1      21.564   0.316  52.532  1.00  0.00    -0.010 A 
HETATM   23  C4  UNL     1      20.399   0.467  51.780  1.00  0.00     0.014 A 
HETATM   24  C3  UNL     1      19.202  -0.147  52.062  1.00  0.00     0.007 A 
HETATM   25  C2  UNL     1      19.130  -0.975  53.160  1.00  0.00    -0.062 A 
HETATM   26  C1  UNL     1      17.833  -1.628  53.455  1.00  0.00     0.048 C 
HETATM   27  C20 UNL     1      20.257  -1.174  53.958  1.00  0.00     0.007 A 
HETATM   28  C19 UNL     1      21.416  -0.523  53.608  1.00  0.00     0.014 A 
ENDBRANCH   1  22
TORSDOF 5
ENDMDL
MODEL 3
REMARK VINA RESULT:      -9.3      2.386      4.793
REMARK  5 active torsions:
REMARK  status: ('A' for Active; 'I' for Inactive)
REMARK    1  A    between atoms: C5_5  and  C6_6 
REMARK    2  A    between atoms: N2_8  and  C7_9 
REMARK    3  A    between atoms: C8_11  and  O1_12 
REMARK    4  A    between atoms: C10_15  and  C11_16 
REMARK    5  A    between atoms: C14_19  and  O2_20 
ROOT
HETATM    1  C6  UNL     1      25.851   3.513  50.455  1.00  0.00     0.067 C 
HETATM    2  N1  UNL     1      26.797   2.829  50.941  1.00  0.00    -0.173 NA
HETATM    3  N2  UNL     1      26.357   1.727  51.701  1.00  0.00    -0.236 N 
HETATM    4  C10 UNL     1      25.072   1.457  51.172  1.00  0.00     0.151 C 
HETATM    5  C18 UNL     1      24.580   2.885  50.894  1.00  0.00     0.094 C 
ENDROOT
BRANCH   4   6
HETATM    6  C11 UNL     1      24.068   0.861  52.065  1.00  0.00    -0.033 C 
HETATM    7  C12 UNL     1      24.212   0.105  53.138  1.00  0.00     0.012 C 
HETATM    8  C13 UNL     1      23.261  -0.505  54.050  1.00  0.00     0.033 C 
HETATM    9  C14 UNL     1      22.018  -0.086  54.155  1.00  0.00     0.046 C 
HETATM   10  C15 UNL     1      21.110   0.932  53.597  1.00  0.00     0.091 C 
HETATM   11  C16 UNL     1      21.545   1.258  52.219  1.00  0.00    -0.020 C 
HETATM   12  C17 UNL     1      22.722   1.242  51.567  1.00  0.00     0.006 C 
BRANCH   9  13
HETATM   13  O2  UNL     1      21.391  -0.880  55.108  1.00  0.00    -0.365 OA
HETATM   14  H11 UNL     1      21.670  -1.842  55.252  1.00  0.00     0.217 HD
ENDBRANCH   9  13
ENDBRANCH   4   6
BRANCH   3  15
HETATM   15  C7  UNL     1      27.268   1.251  52.675  1.00  0.00     0.192 A 
HETATM   16  N3  UNL     1      28.027   1.996  53.281  1.00  0.00    -0.198 NA
HETATM   17  C8  UNL     1      28.883   1.565  54.189  1.00  0.00     0.171 A 
HETATM   18  C9  UNL     1      28.990   0.185  54.539  1.00  0.00     0.111 A 
HETATM   19  S1  UNL     1      27.639  -0.485  53.345  1.00  0.00    -0.058 SA
BRANCH  17  20
HETATM   20  O1  UNL     1      29.787   2.360  54.923  1.00  0.00    -0.344 OA
HETATM   21  H6  UNL     1      30.759   2.104  55.022  1.00  0.00     0.219 HD
ENDBRANCH  17  20
ENDBRANCH   3  15
BRANCH   1  22
HETATM   22  C5  UNL     1      25.851   4.715  49.620  1.00  0.00    -0.010 A 
HETATM   23  C4  UNL     1      27.020   5.197  49.030  1.00  0.00     0.014 A 
HETATM   24  C3  UNL     1      27.091   6.317  48.237  1.00  0.00     0.007 A 
HETATM   25  C2  UNL     1      25.935   7.026  47.996  1.00  0.00    -0.062 A 
HETATM   26  C1  UNL     1      26.025   8.234  47.142  1.00  0.00     0.048 C 
HETATM   27  C20 UNL     1      24.728   6.603  48.553  1.00  0.00     0.007 A 
HETATM   28  C19 UNL     1      24.743   5.472  49.335  1.00  0.00     0.014 A 
ENDBRANCH   1  22
TORSDOF 5
ENDMDL
MODEL 4
REMARK VINA RESULT:      -9.1      2.777      7.311
REMARK  5 active torsions:
REMARK  status: ('A' for Active; 'I' for Inactive)
REMARK    1  A    between atoms: C5_5  and  C6_6 
REMARK    2  A    between atoms: N2_8  and  C7_9 
REMARK    3  A    between atoms: C8_11  and  O1_12 
REMARK    4  A    between atoms: C10_15  and  C11_16 
REMARK    5  A    between atoms: C14_19  and  O2_20 
ROOT
HETATM    1  C6  UNL     1      22.653   0.383  52.866  1.00  0.00     0.067 C 
HETATM    2  N1  UNL     1      23.734  -0.008  53.392  1.00  0.00    -0.173 NA
HETATM    3  N2  UNL     1      24.846   0.785  53.043  1.00  0.00    -0.236 N 
HETATM    4  C10 UNL     1      24.267   2.034  52.716  1.00  0.00     0.151 C 
HETATM    5  C18 UNL     1      22.972   1.569  52.032  1.00  0.00     0.094 C 
ENDROOT
BRANCH   4   6
HETATM    6  C11 UNL     1      24.954   2.876  51.726  1.00  0.00    -0.033 C 
HETATM    7  C12 UNL     1      26.023   2.638  50.990  1.00  0.00     0.012 C 
HETATM    8  C13 UNL     1      26.739   3.429  50.004  1.00  0.00     0.033 C 
HETATM    9  C14 UNL     1      26.191   4.459  49.395  1.00  0.00     0.046 C 
HETATM   10  C15 UNL     1      24.922   5.209  49.348  1.00  0.00     0.091 C 
HETATM   11  C16 UNL     1      24.247   5.092  50.661  1.00  0.00    -0.020 C 
HETATM   12  C17 UNL     1      24.235   4.173  51.643  1.00  0.00     0.006 C 
BRANCH   9  13
HETATM   13  O2  UNL     1      27.140   4.982  48.525  1.00  0.00    -0.365 OA
HETATM   14  H11 UNL     1      27.397   5.960  48.560  1.00  0.00     0.217 HD
ENDBRANCH   9  13
ENDBRANCH   4   6
BRANCH   3  15
HETATM   15  C7  UNL     1      26.107   0.147  53.135  1.00  0.00     0.192 A 
HETATM   16  N3  UNL     1      26.262  -1.038  52.870  1.00  0.00    -0.198 NA
HETATM   17  C8  UNL     1      27.431  -1.645  52.955  1.00  0.00     0.171 A 
HETATM   18  C9  UNL     1      28.616  -0.962  53.364  1.00  0.00     0.111 A 
HETATM   19  S1  UNL     1      27.827   0.771  53.638  1.00  0.00    -0.058 SA
BRANCH  17  20
HETATM   20  O1  UNL     1      27.686  -3.003  52.669  1.00  0.00    -0.344 OA
HETATM   21  H6  UNL     1      26.942  -3.684  52.625  1.00  0.00     0.219 HD
ENDBRANCH  17  20
ENDBRANCH   3  15
BRANCH   1  22
HETATM   22  C5  UNL     1      21.287  -0.133  52.953  1.00  0.00    -0.010 A 
HETATM   23  C4  UNL     1      20.278   0.316  52.102  1.00  0.00     0.014 A 
HETATM   24  C3  UNL     1      18.977  -0.126  52.130  1.00  0.00     0.007 A 
HETATM   25  C2  UNL     1      18.627  -1.081  53.058  1.00  0.00    -0.062 A 
HETATM   26  C1  UNL     1      17.220  -1.546  53.080  1.00  0.00     0.048 C 
HETATM   27  C20 UNL     1      19.584  -1.578  53.943  1.00  0.00     0.007 A 
HETATM   28  C19 UNL     1      20.864  -1.083  53.849  1.00  0.00     0.014 A 
ENDBRANCH   1  22
TORSDOF 5
ENDMDL
MODEL 5
REMARK VINA RESULT:      -9.0      3.713      7.155
REMARK  5 active torsions:
REMARK  status: ('A' for Active; 'I' for Inactive)
REMARK    1  A    between atoms: C5_5  and  C6_6 
REMARK    2  A    between atoms: N2_8  and  C7_9 
REMARK    3  A    between atoms: C8_11  and  O1_12 
REMARK    4  A    between atoms: C10_15  and  C11_16 
REMARK    5  A    between atoms: C14_19  and  O2_20 
ROOT
HETATM    1  C6  UNL     1      25.075   1.400  52.934  1.00  0.00     0.067 C 
HETATM    2  N1  UNL     1      24.696   2.606  52.932  1.00  0.00    -0.173 NA
HETATM    3  N2  UNL     1      23.319   2.759  52.670  1.00  0.00    -0.236 N 
HETATM    4  C10 UNL     1      22.770   1.519  53.075  1.00  0.00     0.151 C 
HETATM    5  C18 UNL     1      23.888   0.562  52.634  1.00  0.00     0.094 C 
ENDROOT
BRANCH   4   6
HETATM    6  C11 UNL     1      21.556   1.046  52.395  1.00  0.00    -0.033 C 
HETATM    7  C12 UNL     1      20.374   0.712  52.878  1.00  0.00     0.012 C 
HETATM    8  C13 UNL     1      19.148   0.243  52.255  1.00  0.00     0.033 C 
HETATM    9  C14 UNL     1      18.901   0.413  50.974  1.00  0.00     0.046 C 
HETATM   10  C15 UNL     1      19.510   0.997  49.765  1.00  0.00     0.091 C 
HETATM   11  C16 UNL     1      20.984   0.952  49.902  1.00  0.00    -0.020 C 
HETATM   12  C17 UNL     1      21.841   0.969  50.939  1.00  0.00     0.006 C 
BRANCH   9  13
HETATM   13  O2  UNL     1      17.656  -0.149  50.713  1.00  0.00    -0.365 OA
HETATM   14  H11 UNL     1      16.803   0.335  50.961  1.00  0.00     0.217 HD
ENDBRANCH   9  13
ENDBRANCH   4   6
BRANCH   3  15
HETATM   15  C7  UNL     1      22.931   4.013  52.140  1.00  0.00     0.192 A 
HETATM   16  N3  UNL     1      23.680   4.982  52.138  1.00  0.00    -0.198 NA
HETATM   17  C8  UNL     1      23.329   6.157  51.649  1.00  0.00     0.171 A 
HETATM   18  C9  UNL     1      22.042   6.392  51.079  1.00  0.00     0.111 A 
HETATM   19  S1  UNL     1      21.326   4.625  51.334  1.00  0.00    -0.058 SA
BRANCH  17  20
HETATM   20  O1  UNL     1      24.133   7.316  51.614  1.00  0.00    -0.344 OA
HETATM   21  H6  UNL     1      24.905   7.407  50.969  1.00  0.00     0.219 HD
ENDBRANCH  17  20
ENDBRANCH   3  15
BRANCH   1  22
HETATM   22  C5  UNL     1      26.390   0.796  53.156  1.00  0.00    -0.010 A 
HETATM   23  C4  UNL     1      26.643  -0.540  52.848  1.00  0.00     0.014 A 
HETATM   24  C3  UNL     1      27.851  -1.169  53.031  1.00  0.00     0.007 A 
HETATM   25  C2  UNL     1      28.898  -0.443  53.554  1.00  0.00    -0.062 A 
HETATM   26  C1  UNL     1      30.194  -1.134  53.749  1.00  0.00     0.048 C 
HETATM   27  C20 UNL     1      28.718   0.900  53.885  1.00  0.00     0.007 A 
HETATM   28  C19 UNL     1      27.478   1.454  53.671  1.00  0.00     0.014 A 
ENDBRANCH   1  22
TORSDOF 5
ENDMDL
MODEL 6
REMARK VINA RESULT:      -8.6      2.160      3.087
REMARK  5 active torsions:
REMARK  status: ('A' for Active; 'I' for Inactive)
REMARK    1  A    between atoms: C5_5  and  C6_6 
REMARK    2  A    between atoms: N2_8  and  C7_9 
REMARK    3  A    between atoms: C8_11  and  O1_12 
REMARK    4  A    between atoms: C10_15  and  C11_16 
REMARK    5  A    between atoms: C14_19  and  O2_20 
ROOT
HETATM    1  C6  UNL     1      25.766   4.479  49.749  1.00  0.00     0.067 C 
HETATM    2  N1  UNL     1      24.531   4.421  50.012  1.00  0.00    -0.173 NA
HETATM    3  N2  UNL     1      24.185   3.329  50.834  1.00  0.00    -0.236 N 
HETATM    4  C10 UNL     1      25.387   3.045  51.523  1.00  0.00     0.151 C 
HETATM    5  C18 UNL     1      26.416   3.324  50.417  1.00  0.00     0.094 C 
ENDROOT
BRANCH   4   6
HETATM    6  C11 UNL     1      25.630   1.659  51.946  1.00  0.00    -0.033 C 
HETATM    7  C12 UNL     1      26.622   0.835  51.665  1.00  0.00     0.012 C 
HETATM    8  C13 UNL     1      26.909  -0.535  52.054  1.00  0.00     0.033 C 
HETATM    9  C14 UNL     1      26.352  -1.100  53.104  1.00  0.00     0.046 C 
HETATM   10  C15 UNL     1      25.401  -0.796  54.188  1.00  0.00     0.091 C 
HETATM   11  C16 UNL     1      24.449   0.236  53.716  1.00  0.00    -0.020 C 
HETATM   12  C17 UNL     1      24.504   1.237  52.819  1.00  0.00     0.006 C 
BRANCH   9  13
HETATM   13  O2  UNL     1      26.842  -2.398  53.186  1.00  0.00    -0.365 OA
HETATM   14  H11 UNL     1      26.215  -3.192  53.218  1.00  0.00     0.217 HD
ENDBRANCH   9  13
ENDBRANCH   4   6
BRANCH   3  15
HETATM   15  C7  UNL     1      22.840   2.894  50.740  1.00  0.00     0.192 A 
HETATM   16  N3  UNL     1      21.963   3.313  51.483  1.00  0.00    -0.198 NA
HETATM   17  C8  UNL     1      20.707   2.913  51.407  1.00  0.00     0.171 A 
HETATM   18  C9  UNL     1      20.270   1.954  50.444  1.00  0.00     0.111 A 
HETATM   19  S1  UNL     1      21.970   1.658  49.593  1.00  0.00    -0.058 SA
BRANCH  17  20
HETATM   20  O1  UNL     1      19.645   3.348  52.227  1.00  0.00    -0.344 OA
HETATM   21  H6  UNL     1      19.710   3.328  53.235  1.00  0.00     0.219 HD
ENDBRANCH  17  20
ENDBRANCH   3  15
BRANCH   1  22
HETATM   22  C5  UNL     1      26.545   5.426  48.950  1.00  0.00    -0.010 A 
HETATM   23  C4  UNL     1      25.974   6.585  48.425  1.00  0.00     0.014 A 
HETATM   24  C3  UNL     1      26.647   7.514  47.668  1.00  0.00     0.007 A 
HETATM   25  C2  UNL     1      27.981   7.302  47.399  1.00  0.00    -0.062 A 
HETATM   26  C1  UNL     1      28.693   8.310  46.579  1.00  0.00     0.048 C 
HETATM   27  C20 UNL     1      28.619   6.164  47.891  1.00  0.00     0.007 A 
HETATM   28  C19 UNL     1      27.875   5.283  48.640  1.00  0.00     0.014 A 
ENDBRANCH   1  22
TORSDOF 5
ENDMDL
MODEL 7
REMARK VINA RESULT:      -8.5      2.683      6.732
REMARK  5 active torsions:
REMARK  status: ('A' for Active; 'I' for Inactive)
REMARK    1  A    between atoms: C5_5  and  C6_6 
REMARK    2  A    between atoms: N2_8  and  C7_9 
REMARK    3  A    between atoms: C8_11  and  O1_12 
REMARK    4  A    between atoms: C10_15  and  C11_16 
REMARK    5  A    between atoms: C14_19  and  O2_20 
ROOT
HETATM    1  C6  UNL     1      25.589   0.485  52.610  1.00  0.00     0.067 C 
HETATM    2  N1  UNL     1      24.471  -0.106  52.593  1.00  0.00    -0.173 NA
HETATM    3  N2  UNL     1      23.416   0.707  52.132  1.00  0.00    -0.236 N 
HETATM    4  C10 UNL     1      24.072   1.669  51.327  1.00  0.00     0.151 C 
HETATM    5  C18 UNL     1      25.364   1.872  52.134  1.00  0.00     0.094 C 
ENDROOT
BRANCH   4   6
HETATM    6  C11 UNL     1      23.466   3.003  51.213  1.00  0.00    -0.033 C 
HETATM    7  C12 UNL     1      23.105   3.866  52.143  1.00  0.00     0.012 C 
HETATM    8  C13 UNL     1      22.506   5.189  52.085  1.00  0.00     0.033 C 
HETATM    9  C14 UNL     1      22.544   5.931  51.000  1.00  0.00     0.046 C 
HETATM   10  C15 UNL     1      23.053   5.899  49.617  1.00  0.00     0.091 C 
HETATM   11  C16 UNL     1      23.112   4.491  49.161  1.00  0.00    -0.020 C 
HETATM   12  C17 UNL     1      23.276   3.302  49.770  1.00  0.00     0.006 C 
BRANCH   9  13
HETATM   13  O2  UNL     1      21.885   7.121  51.287  1.00  0.00    -0.365 OA
HETATM   14  H11 UNL     1      21.405   7.640  50.562  1.00  0.00     0.217 HD
ENDBRANCH   9  13
ENDBRANCH   4   6
BRANCH   3  15
HETATM   15  C7  UNL     1      22.121   0.334  52.565  1.00  0.00     0.192 A 
HETATM   16  N3  UNL     1      21.937  -0.530  53.413  1.00  0.00    -0.198 NA
HETATM   17  C8  UNL     1      20.735  -0.889  53.823  1.00  0.00     0.171 A 
HETATM   18  C9  UNL     1      19.545  -0.292  53.308  1.00  0.00     0.111 A 
HETATM   19  S1  UNL     1      20.385   0.928  52.080  1.00  0.00    -0.058 SA
BRANCH  17  20
HETATM   20  O1  UNL     1      20.446  -1.874  54.791  1.00  0.00    -0.344 OA
HETATM   21  H6  UNL     1      19.800  -2.627  54.604  1.00  0.00     0.219 HD
ENDBRANCH  17  20
ENDBRANCH   3  15
BRANCH   1  22
HETATM   22  C5  UNL     1      26.922   0.029  53.007  1.00  0.00    -0.010 A 
HETATM   23  C4  UNL     1      27.365  -1.265  52.735  1.00  0.00     0.014 A 
HETATM   24  C3  UNL     1      28.601  -1.757  53.079  1.00  0.00     0.007 A 
HETATM   25  C2  UNL     1      29.479  -0.925  53.740  1.00  0.00    -0.062 A 
HETATM   26  C1  UNL     1      30.808  -1.469  54.108  1.00  0.00     0.048 C 
HETATM   27  C20 UNL     1      29.104   0.383  54.045  1.00  0.00     0.007 A 
HETATM   28  C19 UNL     1      27.849   0.797  53.666  1.00  0.00     0.014 A 
ENDBRANCH   1  22
TORSDOF 5
ENDMDL
MODEL 8
REMARK VINA RESULT:      -8.5      3.535      5.154
REMARK  5 active torsions:
REMARK  status: ('A' for Active; 'I' for Inactive)
REMARK    1  A    between atoms: C5_5  and  C6_6 
REMARK    2  A    between atoms: N2_8  and  C7_9 
REMARK    3  A    between atoms: C8_11  and  O1_12 
REMARK    4  A    between atoms: C10_15  and  C11_16 
REMARK    5  A    between atoms: C14_19  and  O2_20 
ROOT
HETATM    1  C6  UNL     1      23.729   4.016  50.252  1.00  0.00     0.067 C 
HETATM    2  N1  UNL     1      22.517   4.270  49.997  1.00  0.00    -0.173 NA
HETATM    3  N2  UNL     1      21.613   3.537  50.792  1.00  0.00    -0.236 N 
HETATM    4  C10 UNL     1      22.368   3.232  51.950  1.00  0.00     0.151 C 
HETATM    5  C18 UNL     1      23.751   2.990  51.324  1.00  0.00     0.094 C 
ENDROOT
BRANCH   4   6
HETATM    6  C11 UNL     1      22.045   1.998  52.680  1.00  0.00    -0.033 C 
HETATM    7  C12 UNL     1      20.899   1.562  53.168  1.00  0.00     0.012 C 
HETATM    8  C13 UNL     1      20.527   0.359  53.892  1.00  0.00     0.033 C 
HETATM    9  C14 UNL     1      21.267  -0.728  53.877  1.00  0.00     0.046 C 
HETATM   10  C15 UNL     1      22.525  -1.240  53.304  1.00  0.00     0.091 C 
HETATM   11  C16 UNL     1      23.449  -0.103  53.084  1.00  0.00    -0.020 C 
HETATM   12  C17 UNL     1      23.295   1.209  52.831  1.00  0.00     0.006 C 
BRANCH   9  13
HETATM   13  O2  UNL     1      20.627  -1.678  54.664  1.00  0.00    -0.365 OA
HETATM   14  H11 UNL     1      20.915  -1.845  55.620  1.00  0.00     0.217 HD
ENDBRANCH   9  13
ENDBRANCH   4   6
BRANCH   3  15
HETATM   15  C7  UNL     1      20.321   3.357  50.243  1.00  0.00     0.192 A 
HETATM   16  N3  UNL     1      20.145   3.013  49.081  1.00  0.00    -0.198 NA
HETATM   17  C8  UNL     1      18.946   2.845  48.556  1.00  0.00     0.171 A 
HETATM   18  C9  UNL     1      17.750   3.050  49.308  1.00  0.00     0.111 A 
HETATM   19  S1  UNL     1      18.579   3.549  50.971  1.00  0.00    -0.058 SA
BRANCH  17  20
HETATM   20  O1  UNL     1      18.666   2.454  47.230  1.00  0.00    -0.344 OA
HETATM   21  H6  UNL     1      19.394   2.383  46.533  1.00  0.00     0.219 HD
ENDBRANCH  17  20
ENDBRANCH   3  15
BRANCH   1  22
HETATM   22  C5  UNL     1      24.972   4.537  49.680  1.00  0.00    -0.010 A 
HETATM   23  C4  UNL     1      25.070   5.847  49.211  1.00  0.00     0.014 A 
HETATM   24  C3  UNL     1      26.203   6.398  48.663  1.00  0.00     0.007 A 
HETATM   25  C2  UNL     1      27.332   5.616  48.563  1.00  0.00    -0.062 A 
HETATM   26  C1  UNL     1      28.547   6.222  47.967  1.00  0.00     0.048 C 
HETATM   27  C20 UNL     1      27.309   4.296  49.012  1.00  0.00     0.007 A 
HETATM   28  C19 UNL     1      26.135   3.820  49.548  1.00  0.00     0.014 A 
ENDBRANCH   1  22
TORSDOF 5
ENDMDL
MODEL 9
REMARK VINA RESULT:      -8.4      3.219      6.924
REMARK  5 active torsions:
REMARK  status: ('A' for Active; 'I' for Inactive)
REMARK    1  A    between atoms: C5_5  and  C6_6 
REMARK    2  A    between atoms: N2_8  and  C7_9 
REMARK    3  A    between atoms: C8_11  and  O1_12 
REMARK    4  A    between atoms: C10_15  and  C11_16 
REMARK    5  A    between atoms: C14_19  and  O2_20 
ROOT
HETATM    1  C6  UNL     1      21.217   0.967  51.838  1.00  0.00     0.067 C 
HETATM    2  N1  UNL     1      21.579   2.051  51.297  1.00  0.00    -0.173 NA
HETATM    3  N2  UNL     1      22.959   2.308  51.428  1.00  0.00    -0.236 N 
HETATM    4  C10 UNL     1      23.516   1.018  51.597  1.00  0.00     0.151 C 
HETATM    5  C18 UNL     1      22.422   0.351  52.445  1.00  0.00     0.094 C 
ENDROOT
BRANCH   4   6
HETATM    6  C11 UNL     1      24.752   0.897  52.383  1.00  0.00    -0.033 C 
HETATM    7  C12 UNL     1      25.851   1.628  52.374  1.00  0.00     0.012 C 
HETATM    8  C13 UNL     1      27.093   1.553  53.124  1.00  0.00     0.033 C 
HETATM    9  C14 UNL     1      27.190   0.896  54.261  1.00  0.00     0.046 C 
HETATM   10  C15 UNL     1      26.369   0.090  55.182  1.00  0.00     0.091 C 
HETATM   11  C16 UNL     1      25.289  -0.568  54.411  1.00  0.00    -0.020 C 
HETATM   12  C17 UNL     1      24.615  -0.276  53.284  1.00  0.00     0.006 C 
BRANCH   9  13
HETATM   13  O2  UNL     1      28.500   1.027  54.706  1.00  0.00    -0.365 OA
HETATM   14  H11 UNL     1      28.707   1.448  55.603  1.00  0.00     0.217 HD
ENDBRANCH   9  13
ENDBRANCH   4   6
BRANCH   3  15
HETATM   15  C7  UNL     1      23.340   3.668  51.339  1.00  0.00     0.192 A 
HETATM   16  N3  UNL     1      24.395   4.021  50.826  1.00  0.00    -0.198 NA
HETATM   17  C8  UNL     1      24.763   5.285  50.740  1.00  0.00     0.171 A 
HETATM   18  C9  UNL     1      23.953   6.350  51.240  1.00  0.00     0.111 A 
HETATM   19  S1  UNL     1      22.501   5.275  51.900  1.00  0.00    -0.058 SA
BRANCH  17  20
HETATM   20  O1  UNL     1      25.959   5.766  50.168  1.00  0.00    -0.344 OA
HETATM   21  H6  UNL     1      26.262   5.474  49.250  1.00  0.00     0.219 HD
ENDBRANCH  17  20
ENDBRANCH   3  15
BRANCH   1  22
HETATM   22  C5  UNL     1      19.906   0.324  51.941  1.00  0.00    -0.010 A 
HETATM   23  C4  UNL     1      19.549  -0.436  53.054  1.00  0.00     0.014 A 
HETATM   24  C3  UNL     1      18.338  -1.066  53.215  1.00  0.00     0.007 A 
HETATM   25  C2  UNL     1      17.398  -0.949  52.216  1.00  0.00    -0.062 A 
HETATM   26  C1  UNL     1      16.098  -1.635  52.400  1.00  0.00     0.048 C 
HETATM   27  C20 UNL     1      17.685  -0.203  51.072  1.00  0.00     0.007 A 
HETATM   28  C19 UNL     1      18.920   0.396  50.989  1.00  0.00     0.014 A 
ENDBRANCH   1  22
TORSDOF 5
ENDMDL
