MODEL 1
REMARK VINA RESULT:      -8.9      0.000      0.000
REMARK  5 active torsions:
REMARK  status: ('A' for Active; 'I' for Inactive)
REMARK    1  A    between atoms: C6_6  and  N1_7 
REMARK    2  A    between atoms: N1_7  and  C8_9 
REMARK    3  A    between atoms: C9_11  and  N3_12 
REMARK    4  A    between atoms: C14_17  and  S1_18 
REMARK    5  A    between atoms: S1_18  and  N4_19 
ROOT
HETATM    1  C8  UNL     1      23.344   3.058  51.558  1.00  0.00     0.125 C 
HETATM    2  N2  UNL     1      23.107   3.559  52.725  1.00  0.00    -0.232 NA
HETATM    3  C9  UNL     1      22.822   4.982  52.965  1.00  0.00     0.374 C 
HETATM    4  C10 UNL     1      22.823   5.490  51.532  1.00  0.00    -0.003 A 
HETATM    5  C11 UNL     1      21.518   5.201  51.199  1.00  0.00     0.012 A 
HETATM    6  C12 UNL     1      21.679   5.364  49.849  1.00  0.00     0.014 A 
HETATM    7  C13 UNL     1      22.901   5.714  49.266  1.00  0.00    -0.004 A 
HETATM    8  C14 UNL     1      24.090   5.956  49.896  1.00  0.00     0.086 A 
HETATM    9  C15 UNL     1      24.077   5.829  51.252  1.00  0.00     0.036 A 
HETATM   10  C16 UNL     1      22.936   5.727  47.820  1.00  0.00     0.062 C 
HETATM   11  N5  UNL     1      23.208   4.441  47.862  1.00  0.00    -0.309 NA
HETATM   12  C17 UNL     1      23.309   3.789  49.130  1.00  0.00     0.260 C 
HETATM   13  C18 UNL     1      23.507   2.913  50.089  1.00  0.00     0.047 C 
ENDROOT
BRANCH   1  14
HETATM   14  N1  UNL     1      23.470   1.860  52.322  1.00  0.00    -0.337 N 
HETATM   15  C7  UNL     1      22.483   0.965  52.924  1.00  0.00     0.158 C 
BRANCH  14  16
HETATM   16  C6  UNL     1      24.816   1.387  52.582  1.00  0.00     0.037 A 
HETATM   17  C5  UNL     1      25.879   2.215  52.833  1.00  0.00     0.031 A 
HETATM   18  C4  UNL     1      27.138   1.670  53.073  1.00  0.00     0.018 A 
HETATM   19  C3  UNL     1      27.388   0.316  53.075  1.00  0.00     0.018 A 
HETATM   20  C2  UNL     1      28.488  -0.513  53.272  1.00  0.00     0.039 A 
HETATM   21  C20 UNL     1      26.312  -0.506  52.824  1.00  0.00     0.091 A 
HETATM   22  C1  UNL     1      29.850   0.034  53.575  1.00  0.00     0.071 C 
HETATM   23  N7  UNL     1      28.056  -1.777  53.138  1.00  0.00    -0.277 N 
HETATM   24  N6  UNL     1      26.766  -1.777  52.872  1.00  0.00    -0.172 NA
HETATM   25  C21 UNL     1      29.044  -2.849  53.303  1.00  0.00     0.179 C 
HETATM   26  C19 UNL     1      25.064   0.011  52.584  1.00  0.00     0.064 A 
ENDBRANCH  14  16
ENDBRANCH   1  14
BRANCH   3  27
HETATM   27  N3  UNL     1      23.943   5.501  53.720  1.00  0.00     0.107 N 
HETATM   28  H10 UNL     1      24.443   4.725  54.223  1.00  0.00     0.316 HD
HETATM   29  H11 UNL     1      24.584   6.095  53.144  1.00  0.00     0.316 HD
ENDBRANCH   3  27
BRANCH   8  30
HETATM   30  S1  UNL     1      25.551   6.398  49.066  1.00  0.00     0.240 S 
HETATM   31  O1  UNL     1      26.294   5.157  48.700  1.00  0.00    -0.206 OA
HETATM   32  O2  UNL     1      25.229   7.180  47.798  1.00  0.00    -0.206 OA
BRANCH  30  33
HETATM   33  N4  UNL     1      26.494   7.465  50.042  1.00  0.00    -0.225 NA
HETATM   34  H14 UNL     1      27.211   7.969  49.507  1.00  0.00     0.136 HD
HETATM   35  H15 UNL     1      25.914   8.021  50.675  1.00  0.00     0.136 HD
ENDBRANCH  30  33
ENDBRANCH   8  30
TORSDOF 5
ENDMDL
MODEL 2
REMARK VINA RESULT:      -8.8      2.368      3.492
REMARK  5 active torsions:
REMARK  status: ('A' for Active; 'I' for Inactive)
REMARK    1  A    between atoms: C6_6  and  N1_7 
REMARK    2  A    between atoms: N1_7  and  C8_9 
REMARK    3  A    between atoms: C9_11  and  N3_12 
REMARK    4  A    between atoms: C14_17  and  S1_18 
REMARK    5  A    between atoms: S1_18  and  N4_19 
ROOT
HETATM    1  C8  UNL     1      23.799   5.735  49.114  1.00  0.00     0.125 C 
HETATM    2  N2  UNL     1      23.322   5.513  50.294  1.00  0.00    -0.232 NA
HETATM    3  C9  UNL     1      23.091   6.565  51.296  1.00  0.00     0.374 C 
HETATM    4  C10 UNL     1      23.479   7.788  50.481  1.00  0.00    -0.003 A 
HETATM    5  C11 UNL     1      22.277   8.015  49.848  1.00  0.00     0.012 A 
HETATM    6  C12 UNL     1      22.774   8.884  48.913  1.00  0.00     0.014 A 
HETATM    7  C13 UNL     1      24.123   9.246  48.853  1.00  0.00    -0.004 A 
HETATM    8  C14 UNL     1      25.137   8.835  49.674  1.00  0.00     0.086 A 
HETATM    9  C15 UNL     1      24.784   7.961  50.657  1.00  0.00     0.036 A 
HETATM   10  C16 UNL     1      24.511  10.077  47.734  1.00  0.00     0.062 C 
HETATM   11  N5  UNL     1      24.669   8.975  47.034  1.00  0.00    -0.309 NA
HETATM   12  C17 UNL     1      24.411   7.712  47.649  1.00  0.00     0.260 C 
HETATM   13  C18 UNL     1      24.305   6.427  47.901  1.00  0.00     0.047 C 
ENDROOT
BRANCH   1  14
HETATM   14  N1  UNL     1      23.647   4.321  49.009  1.00  0.00    -0.337 N 
HETATM   15  C7  UNL     1      22.801   3.478  48.165  1.00  0.00     0.158 C 
BRANCH  14  16
HETATM   16  C6  UNL     1      24.470   3.505  49.883  1.00  0.00     0.037 A 
HETATM   17  C5  UNL     1      25.836   3.590  49.940  1.00  0.00     0.031 A 
HETATM   18  C4  UNL     1      26.545   2.767  50.811  1.00  0.00     0.018 A 
HETATM   19  C3  UNL     1      25.942   1.850  51.641  1.00  0.00     0.018 A 
HETATM   20  C2  UNL     1      26.350   0.916  52.590  1.00  0.00     0.039 A 
HETATM   21  C20 UNL     1      24.569   1.774  51.577  1.00  0.00     0.091 A 
HETATM   22  C1  UNL     1      27.795   0.714  52.934  1.00  0.00     0.071 C 
HETATM   23  N7  UNL     1      25.241   0.321  53.057  1.00  0.00    -0.277 N 
HETATM   24  N6  UNL     1      24.183   0.826  52.459  1.00  0.00    -0.172 NA
HETATM   25  C21 UNL     1      25.413  -0.716  54.082  1.00  0.00     0.179 C 
HETATM   26  C19 UNL     1      23.853   2.576  50.725  1.00  0.00     0.064 A 
ENDBRANCH  14  16
ENDBRANCH   1  14
BRANCH   3  27
HETATM   27  N3  UNL     1      24.029   6.316  52.371  1.00  0.00     0.107 N 
HETATM   28  H10 UNL     1      23.521   6.067  53.258  1.00  0.00     0.316 HD
HETATM   29  H11 UNL     1      24.770   5.623  52.116  1.00  0.00     0.316 HD
ENDBRANCH   3  27
BRANCH   8  30
HETATM   30  S1  UNL     1      26.785   9.363  49.513  1.00  0.00     0.240 S 
HETATM   31  O1  UNL     1      27.489   8.462  48.554  1.00  0.00    -0.206 OA
HETATM   32  O2  UNL     1      26.838  10.793  48.987  1.00  0.00    -0.206 OA
BRANCH  30  33
HETATM   33  N4  UNL     1      27.552   9.408  51.059  1.00  0.00    -0.225 NA
HETATM   34  H14 UNL     1      28.354   8.769  51.126  1.00  0.00     0.136 HD
HETATM   35  H15 UNL     1      27.695  10.365  51.390  1.00  0.00     0.136 HD
ENDBRANCH  30  33
ENDBRANCH   8  30
TORSDOF 5
ENDMDL
MODEL 3
REMARK VINA RESULT:      -8.7      6.801      9.394
REMARK  5 active torsions:
REMARK  status: ('A' for Active; 'I' for Inactive)
REMARK    1  A    between atoms: C6_6  and  N1_7 
REMARK    2  A    between atoms: N1_7  and  C8_9 
REMARK    3  A    between atoms: C9_11  and  N3_12 
REMARK    4  A    between atoms: C14_17  and  S1_18 
REMARK    5  A    between atoms: S1_18  and  N4_19 
ROOT
HETATM    1  C8  UNL     1      30.788   7.132  47.747  1.00  0.00     0.125 C 
HETATM    2  N2  UNL     1      30.865   7.359  49.017  1.00  0.00    -0.232 NA
HETATM    3  C9  UNL     1      32.040   7.030  49.839  1.00  0.00     0.374 C 
HETATM    4  C10 UNL     1      32.973   6.509  48.758  1.00  0.00    -0.003 A 
HETATM    5  C11 UNL     1      33.504   7.708  48.335  1.00  0.00     0.012 A 
HETATM    6  C12 UNL     1      34.056   7.217  47.182  1.00  0.00     0.014 A 
HETATM    7  C13 UNL     1      33.955   5.876  46.802  1.00  0.00    -0.004 A 
HETATM    8  C14 UNL     1      33.333   4.860  47.474  1.00  0.00     0.086 A 
HETATM    9  C15 UNL     1      32.735   5.207  48.648  1.00  0.00     0.036 A 
HETATM   10  C16 UNL     1      34.486   5.540  45.498  1.00  0.00     0.062 C 
HETATM   11  N5  UNL     1      33.321   5.879  44.990  1.00  0.00    -0.309 NA
HETATM   12  C17 UNL     1      32.285   6.339  45.861  1.00  0.00     0.260 C 
HETATM   13  C18 UNL     1      31.139   6.751  46.355  1.00  0.00     0.047 C 
ENDROOT
BRANCH   1  14
HETATM   14  N1  UNL     1      29.496   7.708  47.929  1.00  0.00    -0.337 N 
HETATM   15  C7  UNL     1      28.992   9.072  47.776  1.00  0.00     0.158 C 
BRANCH  14  16
HETATM   16  C6  UNL     1      28.431   6.813  48.345  1.00  0.00     0.037 A 
HETATM   17  C5  UNL     1      28.530   5.447  48.314  1.00  0.00     0.031 A 
HETATM   18  C4  UNL     1      27.456   4.667  48.733  1.00  0.00     0.018 A 
HETATM   19  C3  UNL     1      26.270   5.196  49.189  1.00  0.00     0.018 A 
HETATM   20  C2  UNL     1      25.055   4.708  49.661  1.00  0.00     0.039 A 
HETATM   21  C20 UNL     1      26.182   6.570  49.216  1.00  0.00     0.091 A 
HETATM   22  C1  UNL     1      24.780   3.239  49.776  1.00  0.00     0.071 C 
HETATM   23  N7  UNL     1      24.291   5.773  49.951  1.00  0.00    -0.277 N 
HETATM   24  N6  UNL     1      24.955   6.879  49.689  1.00  0.00    -0.172 NA
HETATM   25  C21 UNL     1      22.944   5.514  50.474  1.00  0.00     0.179 C 
HETATM   26  C19 UNL     1      27.229   7.356  48.807  1.00  0.00     0.064 A 
ENDBRANCH  14  16
ENDBRANCH   1  14
BRANCH   3  27
HETATM   27  N3  UNL     1      31.623   5.977  50.742  1.00  0.00     0.107 N 
HETATM   28  H10 UNL     1      30.577   5.968  50.844  1.00  0.00     0.316 HD
HETATM   29  H11 UNL     1      32.019   5.042  50.490  1.00  0.00     0.316 HD
ENDBRANCH   3  27
BRANCH   8  30
HETATM   30  S1  UNL     1      33.280   3.217  46.910  1.00  0.00     0.240 S 
HETATM   31  O1  UNL     1      34.564   2.903  46.217  1.00  0.00    -0.206 OA
HETATM   32  O2  UNL     1      33.095   2.257  48.079  1.00  0.00    -0.206 OA
BRANCH  30  33
HETATM   33  N4  UNL     1      31.908   2.978  45.890  1.00  0.00    -0.225 NA
HETATM   34  H14 UNL     1      31.293   3.799  45.848  1.00  0.00     0.136 HD
HETATM   35  H15 UNL     1      32.162   2.545  44.999  1.00  0.00     0.136 HD
ENDBRANCH  30  33
ENDBRANCH   8  30
TORSDOF 5
ENDMDL
MODEL 4
REMARK VINA RESULT:      -8.7      2.260      3.253
REMARK  5 active torsions:
REMARK  status: ('A' for Active; 'I' for Inactive)
REMARK    1  A    between atoms: C6_6  and  N1_7 
REMARK    2  A    between atoms: N1_7  and  C8_9 
REMARK    3  A    between atoms: C9_11  and  N3_12 
REMARK    4  A    between atoms: C14_17  and  S1_18 
REMARK    5  A    between atoms: S1_18  and  N4_19 
ROOT
HETATM    1  C8  UNL     1      23.675   5.273  49.346  1.00  0.00     0.125 C 
HETATM    2  N2  UNL     1      23.226   5.081  50.542  1.00  0.00    -0.232 NA
HETATM    3  C9  UNL     1      23.053   6.152  51.535  1.00  0.00     0.374 C 
HETATM    4  C10 UNL     1      23.450   7.352  50.691  1.00  0.00    -0.003 A 
HETATM    5  C11 UNL     1      22.237   7.604  50.088  1.00  0.00     0.012 A 
HETATM    6  C12 UNL     1      22.730   8.446  49.127  1.00  0.00     0.014 A 
HETATM    7  C13 UNL     1      24.086   8.770  49.024  1.00  0.00    -0.004 A 
HETATM    8  C14 UNL     1      25.112   8.342  49.821  1.00  0.00     0.086 A 
HETATM    9  C15 UNL     1      24.764   7.492  50.827  1.00  0.00     0.036 A 
HETATM   10  C16 UNL     1      24.465   9.574  47.882  1.00  0.00     0.062 C 
HETATM   11  N5  UNL     1      24.573   8.458  47.194  1.00  0.00    -0.309 NA
HETATM   12  C17 UNL     1      24.298   7.211  47.834  1.00  0.00     0.260 C 
HETATM   13  C18 UNL     1      24.165   5.933  48.108  1.00  0.00     0.047 C 
ENDROOT
BRANCH   1  14
HETATM   14  N1  UNL     1      23.482   3.862  49.266  1.00  0.00    -0.337 N 
HETATM   15  C7  UNL     1      22.725   3.019  48.341  1.00  0.00     0.158 C 
BRANCH  14  16
HETATM   16  C6  UNL     1      24.145   3.051  50.270  1.00  0.00     0.037 A 
HETATM   17  C5  UNL     1      23.508   2.094  51.017  1.00  0.00     0.031 A 
HETATM   18  C4  UNL     1      24.226   1.363  51.960  1.00  0.00     0.018 A 
HETATM   19  C3  UNL     1      25.569   1.545  52.194  1.00  0.00     0.018 A 
HETATM   20  C2  UNL     1      26.538   0.998  53.032  1.00  0.00     0.039 A 
HETATM   21  C20 UNL     1      26.199   2.508  51.438  1.00  0.00     0.091 A 
HETATM   22  C1  UNL     1      26.218  -0.093  54.008  1.00  0.00     0.071 C 
HETATM   23  N7  UNL     1      27.691   1.630  52.763  1.00  0.00    -0.277 N 
HETATM   24  N6  UNL     1      27.495   2.526  51.818  1.00  0.00    -0.172 NA
HETATM   25  C21 UNL     1      28.876   1.224  53.528  1.00  0.00     0.179 C 
HETATM   26  C19 UNL     1      25.510   3.239  50.504  1.00  0.00     0.064 A 
ENDBRANCH  14  16
ENDBRANCH   1  14
BRANCH   3  27
HETATM   27  N3  UNL     1      24.014   5.893  52.586  1.00  0.00     0.107 N 
HETATM   28  H10 UNL     1      24.223   4.865  52.653  1.00  0.00     0.316 HD
HETATM   29  H11 UNL     1      24.875   6.481  52.507  1.00  0.00     0.316 HD
ENDBRANCH   3  27
BRANCH   8  30
HETATM   30  S1  UNL     1      26.768   8.823  49.607  1.00  0.00     0.240 S 
HETATM   31  O1  UNL     1      27.521   7.695  48.984  1.00  0.00    -0.206 OA
HETATM   32  O2  UNL     1      26.856  10.045  48.699  1.00  0.00    -0.206 OA
BRANCH  30  33
HETATM   33  N4  UNL     1      27.449   9.314  51.115  1.00  0.00    -0.225 NA
HETATM   34  H14 UNL     1      27.507   8.548  51.796  1.00  0.00     0.136 HD
HETATM   35  H15 UNL     1      28.289   9.886  50.990  1.00  0.00     0.136 HD
ENDBRANCH  30  33
ENDBRANCH   8  30
TORSDOF 5
ENDMDL
MODEL 5
REMARK VINA RESULT:      -8.6      2.586      3.420
REMARK  5 active torsions:
REMARK  status: ('A' for Active; 'I' for Inactive)
REMARK    1  A    between atoms: C6_6  and  N1_7 
REMARK    2  A    between atoms: N1_7  and  C8_9 
REMARK    3  A    between atoms: C9_11  and  N3_12 
REMARK    4  A    between atoms: C14_17  and  S1_18 
REMARK    5  A    between atoms: S1_18  and  N4_19 
ROOT
HETATM    1  C8  UNL     1      22.366   1.565  51.560  1.00  0.00     0.125 C 
HETATM    2  N2  UNL     1      21.405   0.711  51.687  1.00  0.00    -0.232 NA
HETATM    3  C9  UNL     1      20.289   0.586  50.738  1.00  0.00     0.374 C 
HETATM    4  C10 UNL     1      20.716   1.611  49.700  1.00  0.00    -0.003 A 
HETATM    5  C11 UNL     1      21.553   0.819  48.945  1.00  0.00     0.012 A 
HETATM    6  C12 UNL     1      22.142   1.849  48.262  1.00  0.00     0.014 A 
HETATM    7  C13 UNL     1      21.805   3.190  48.470  1.00  0.00    -0.004 A 
HETATM    8  C14 UNL     1      20.873   3.695  49.335  1.00  0.00     0.086 A 
HETATM    9  C15 UNL     1      20.205   2.775  50.086  1.00  0.00     0.036 A 
HETATM   10  C16 UNL     1      22.603   4.166  47.759  1.00  0.00     0.062 C 
HETATM   11  N5  UNL     1      23.460   4.119  48.756  1.00  0.00    -0.309 NA
HETATM   12  C17 UNL     1      23.201   3.253  49.862  1.00  0.00     0.260 C 
HETATM   13  C18 UNL     1      23.255   2.623  51.013  1.00  0.00     0.047 C 
ENDROOT
BRANCH   1  14
HETATM   14  N1  UNL     1      22.797   0.954  52.774  1.00  0.00    -0.337 N 
HETATM   15  C7  UNL     1      22.081   0.227  53.822  1.00  0.00     0.158 C 
BRANCH  14  16
HETATM   16  C6  UNL     1      24.213   1.034  53.083  1.00  0.00     0.037 A 
HETATM   17  C5  UNL     1      24.839   2.183  53.491  1.00  0.00     0.031 A 
HETATM   18  C4  UNL     1      26.204   2.166  53.766  1.00  0.00     0.018 A 
HETATM   19  C3  UNL     1      26.983   1.037  53.653  1.00  0.00     0.018 A 
HETATM   20  C2  UNL     1      28.321   0.703  53.846  1.00  0.00     0.039 A 
HETATM   21  C20 UNL     1      26.343  -0.111  53.244  1.00  0.00     0.091 A 
HETATM   22  C1  UNL     1      29.333   1.711  54.299  1.00  0.00     0.071 C 
HETATM   23  N7  UNL     1      28.445  -0.602  53.555  1.00  0.00    -0.277 N 
HETATM   24  N6  UNL     1      27.275  -1.089  53.198  1.00  0.00    -0.172 NA
HETATM   25  C21 UNL     1      29.780  -1.197  53.685  1.00  0.00     0.179 C 
HETATM   26  C19 UNL     1      25.000  -0.115  52.967  1.00  0.00     0.064 A 
ENDBRANCH  14  16
ENDBRANCH   1  14
BRANCH   3  27
HETATM   27  N3  UNL     1      19.099   1.005  51.449  1.00  0.00     0.107 N 
HETATM   28  H10 UNL     1      18.233   0.711  50.931  1.00  0.00     0.316 HD
HETATM   29  H11 UNL     1      19.097   0.708  52.452  1.00  0.00     0.316 HD
ENDBRANCH   3  27
BRANCH   8  30
HETATM   30  S1  UNL     1      20.528   5.389  49.503  1.00  0.00     0.240 S 
HETATM   31  O1  UNL     1      20.604   6.033  48.159  1.00  0.00    -0.206 OA
HETATM   32  O2  UNL     1      19.131   5.594  50.077  1.00  0.00    -0.206 OA
BRANCH  30  33
HETATM   33  N4  UNL     1      21.608   6.111  50.639  1.00  0.00    -0.225 NA
HETATM   34  H14 UNL     1      22.523   6.339  50.233  1.00  0.00     0.136 HD
HETATM   35  H15 UNL     1      21.153   6.842  51.192  1.00  0.00     0.136 HD
ENDBRANCH  30  33
ENDBRANCH   8  30
TORSDOF 5
ENDMDL
MODEL 6
REMARK VINA RESULT:      -8.3      2.146      2.909
REMARK  5 active torsions:
REMARK  status: ('A' for Active; 'I' for Inactive)
REMARK    1  A    between atoms: C6_6  and  N1_7 
REMARK    2  A    between atoms: N1_7  and  C8_9 
REMARK    3  A    between atoms: C9_11  and  N3_12 
REMARK    4  A    between atoms: C14_17  and  S1_18 
REMARK    5  A    between atoms: S1_18  and  N4_19 
ROOT
HETATM    1  C8  UNL     1      23.225   2.420  51.393  1.00  0.00     0.125 C 
HETATM    2  N2  UNL     1      22.046   1.891  51.423  1.00  0.00    -0.232 NA
HETATM    3  C9  UNL     1      20.919   2.354  50.600  1.00  0.00     0.374 C 
HETATM    4  C10 UNL     1      21.617   3.433  49.789  1.00  0.00    -0.003 A 
HETATM    5  C11 UNL     1      22.134   2.648  48.783  1.00  0.00     0.012 A 
HETATM    6  C12 UNL     1      22.998   3.592  48.297  1.00  0.00     0.014 A 
HETATM    7  C13 UNL     1      23.112   4.872  48.848  1.00  0.00    -0.004 A 
HETATM    8  C14 UNL     1      22.417   5.394  49.905  1.00  0.00     0.086 A 
HETATM    9  C15 UNL     1      21.515   4.557  50.490  1.00  0.00     0.036 A 
HETATM   10  C16 UNL     1      24.155   5.711  48.301  1.00  0.00     0.062 C 
HETATM   11  N5  UNL     1      24.985   5.157  49.157  1.00  0.00    -0.309 NA
HETATM   12  C17 UNL     1      24.499   4.155  50.053  1.00  0.00     0.260 C 
HETATM   13  C18 UNL     1      24.386   3.265  51.013  1.00  0.00     0.047 C 
ENDROOT
BRANCH   1  14
HETATM   14  N1  UNL     1      23.477   1.418  52.377  1.00  0.00    -0.337 N 
HETATM   15  C7  UNL     1      22.591   0.597  53.200  1.00  0.00     0.158 C 
BRANCH  14  16
HETATM   16  C6  UNL     1      24.867   1.108  52.656  1.00  0.00     0.037 A 
HETATM   17  C5  UNL     1      25.465  -0.078  52.317  1.00  0.00     0.031 A 
HETATM   18  C4  UNL     1      26.807  -0.288  52.625  1.00  0.00     0.018 A 
HETATM   19  C3  UNL     1      27.590   0.646  53.265  1.00  0.00     0.018 A 
HETATM   20  C2  UNL     1      28.910   0.738  53.698  1.00  0.00     0.039 A 
HETATM   21  C20 UNL     1      26.979   1.833  53.600  1.00  0.00     0.091 A 
HETATM   22  C1  UNL     1      29.890  -0.378  53.502  1.00  0.00     0.071 C 
HETATM   23  N7  UNL     1      29.052   1.947  54.266  1.00  0.00    -0.277 N 
HETATM   24  N6  UNL     1      27.909   2.599  54.210  1.00  0.00    -0.172 NA
HETATM   25  C21 UNL     1      30.373   2.286  54.807  1.00  0.00     0.179 C 
HETATM   26  C19 UNL     1      25.658   2.059  53.306  1.00  0.00     0.064 A 
ENDBRANCH  14  16
ENDBRANCH   1  14
BRANCH   3  27
HETATM   27  N3  UNL     1      19.948   2.914  51.517  1.00  0.00     0.107 N 
HETATM   28  H10 UNL     1      19.945   3.964  51.459  1.00  0.00     0.316 HD
HETATM   29  H11 UNL     1      18.995   2.495  51.411  1.00  0.00     0.316 HD
ENDBRANCH   3  27
BRANCH   8  30
HETATM   30  S1  UNL     1      22.634   7.012  50.500  1.00  0.00     0.240 S 
HETATM   31  O1  UNL     1      22.839   7.930  49.340  1.00  0.00    -0.206 OA
HETATM   32  O2  UNL     1      21.406   7.462  51.283  1.00  0.00    -0.206 OA
BRANCH  30  33
HETATM   33  N4  UNL     1      23.946   7.067  51.620  1.00  0.00    -0.225 NA
HETATM   34  H14 UNL     1      24.222   6.138  51.959  1.00  0.00     0.136 HD
HETATM   35  H15 UNL     1      24.697   7.685  51.303  1.00  0.00     0.136 HD
ENDBRANCH  30  33
ENDBRANCH   8  30
TORSDOF 5
ENDMDL
MODEL 7
REMARK VINA RESULT:      -8.3      2.006      3.079
REMARK  5 active torsions:
REMARK  status: ('A' for Active; 'I' for Inactive)
REMARK    1  A    between atoms: C6_6  and  N1_7 
REMARK    2  A    between atoms: N1_7  and  C8_9 
REMARK    3  A    between atoms: C9_11  and  N3_12 
REMARK    4  A    between atoms: C14_17  and  S1_18 
REMARK    5  A    between atoms: S1_18  and  N4_19 
ROOT
HETATM    1  C8  UNL     1      23.435   3.736  51.198  1.00  0.00     0.125 C 
HETATM    2  N2  UNL     1      23.539   2.789  50.325  1.00  0.00    -0.232 NA
HETATM    3  C9  UNL     1      23.769   3.019  48.890  1.00  0.00     0.374 C 
HETATM    4  C10 UNL     1      23.904   4.533  48.890  1.00  0.00    -0.003 A 
HETATM    5  C11 UNL     1      25.243   4.630  49.202  1.00  0.00     0.012 A 
HETATM    6  C12 UNL     1      25.219   5.965  49.508  1.00  0.00     0.014 A 
HETATM    7  C13 UNL     1      24.057   6.739  49.439  1.00  0.00    -0.004 A 
HETATM    8  C14 UNL     1      22.804   6.338  49.066  1.00  0.00     0.086 A 
HETATM    9  C15 UNL     1      22.680   5.023  48.732  1.00  0.00     0.036 A 
HETATM   10  C16 UNL     1      24.170   8.102  49.911  1.00  0.00     0.062 C 
HETATM   11  N5  UNL     1      23.923   7.653  51.122  1.00  0.00    -0.309 NA
HETATM   12  C17 UNL     1      23.705   6.254  51.318  1.00  0.00     0.260 C 
HETATM   13  C18 UNL     1      23.427   5.078  51.834  1.00  0.00     0.047 C 
ENDROOT
BRANCH   1  14
HETATM   14  N1  UNL     1      23.256   2.627  52.078  1.00  0.00    -0.337 N 
HETATM   15  C7  UNL     1      22.063   1.957  52.592  1.00  0.00     0.158 C 
BRANCH  14  16
HETATM   16  C6  UNL     1      24.458   1.998  52.594  1.00  0.00     0.037 A 
HETATM   17  C5  UNL     1      25.299   2.591  53.499  1.00  0.00     0.031 A 
HETATM   18  C4  UNL     1      26.431   1.910  53.939  1.00  0.00     0.018 A 
HETATM   19  C3  UNL     1      26.766   0.646  53.511  1.00  0.00     0.018 A 
HETATM   20  C2  UNL     1      27.788  -0.269  53.750  1.00  0.00     0.039 A 
HETATM   21  C20 UNL     1      25.914   0.060  52.603  1.00  0.00     0.091 A 
HETATM   22  C1  UNL     1      28.911   0.024  54.698  1.00  0.00     0.071 C 
HETATM   23  N7  UNL     1      27.528  -1.351  52.999  1.00  0.00    -0.277 N 
HETATM   24  N6  UNL     1      26.418  -1.160  52.317  1.00  0.00    -0.172 NA
HETATM   25  C21 UNL     1      28.474  -2.470  53.078  1.00  0.00     0.179 C 
HETATM   26  C19 UNL     1      24.794   0.714  52.156  1.00  0.00     0.064 A 
ENDBRANCH  14  16
ENDBRANCH   1  14
BRANCH   3  27
HETATM   27  N3  UNL     1      22.565   2.588  48.211  1.00  0.00     0.107 N 
HETATM   28  H10 UNL     1      21.759   2.530  48.884  1.00  0.00     0.316 HD
HETATM   29  H11 UNL     1      22.348   3.158  47.362  1.00  0.00     0.316 HD
ENDBRANCH   3  27
BRANCH   8  30
HETATM   30  S1  UNL     1      21.427   7.396  49.006  1.00  0.00     0.240 S 
HETATM   31  O1  UNL     1      21.773   8.591  48.181  1.00  0.00    -0.206 OA
HETATM   32  O2  UNL     1      20.234   6.685  48.379  1.00  0.00    -0.206 OA
BRANCH  30  33
HETATM   33  N4  UNL     1      20.929   7.822  50.603  1.00  0.00    -0.225 NA
HETATM   34  H14 UNL     1      20.942   7.026  51.251  1.00  0.00     0.136 HD
HETATM   35  H15 UNL     1      21.369   8.688  50.925  1.00  0.00     0.136 HD
ENDBRANCH  30  33
ENDBRANCH   8  30
TORSDOF 5
ENDMDL
MODEL 8
REMARK VINA RESULT:      -8.2      3.533      5.905
REMARK  5 active torsions:
REMARK  status: ('A' for Active; 'I' for Inactive)
REMARK    1  A    between atoms: C6_6  and  N1_7 
REMARK    2  A    between atoms: N1_7  and  C8_9 
REMARK    3  A    between atoms: C9_11  and  N3_12 
REMARK    4  A    between atoms: C14_17  and  S1_18 
REMARK    5  A    between atoms: S1_18  and  N4_19 
ROOT
HETATM    1  C8  UNL     1      24.033   3.355  50.496  1.00  0.00     0.125 C 
HETATM    2  N2  UNL     1      24.412   3.725  51.675  1.00  0.00    -0.232 NA
HETATM    3  C9  UNL     1      23.486   4.086  52.759  1.00  0.00     0.374 C 
HETATM    4  C10 UNL     1      22.160   3.800  52.071  1.00  0.00    -0.003 A 
HETATM    5  C11 UNL     1      22.068   2.450  52.333  1.00  0.00     0.012 A 
HETATM    6  C12 UNL     1      21.067   2.201  51.432  1.00  0.00     0.014 A 
HETATM    7  C13 UNL     1      20.503   3.196  50.628  1.00  0.00    -0.004 A 
HETATM    8  C14 UNL     1      20.819   4.527  50.598  1.00  0.00     0.086 A 
HETATM    9  C15 UNL     1      21.807   4.919  51.450  1.00  0.00     0.036 A 
HETATM   10  C16 UNL     1      19.542   2.752  49.643  1.00  0.00     0.062 C 
HETATM   11  N5  UNL     1      20.552   2.523  48.831  1.00  0.00    -0.309 NA
HETATM   12  C17 UNL     1      21.882   2.790  49.278  1.00  0.00     0.260 C 
HETATM   13  C18 UNL     1      23.184   2.955  49.345  1.00  0.00     0.047 C 
ENDROOT
BRANCH   1  14
HETATM   14  N1  UNL     1      25.442   3.273  50.291  1.00  0.00    -0.337 N 
HETATM   15  C7  UNL     1      26.438   2.272  50.670  1.00  0.00     0.158 C 
BRANCH  14  16
HETATM   16  C6  UNL     1      26.065   4.367  49.569  1.00  0.00     0.037 A 
HETATM   17  C5  UNL     1      25.403   5.506  49.194  1.00  0.00     0.031 A 
HETATM   18  C4  UNL     1      26.083   6.505  48.502  1.00  0.00     0.018 A 
HETATM   19  C3  UNL     1      27.415   6.418  48.165  1.00  0.00     0.018 A 
HETATM   20  C2  UNL     1      28.349   7.211  47.504  1.00  0.00     0.039 A 
HETATM   21  C20 UNL     1      28.070   5.270  48.549  1.00  0.00     0.091 A 
HETATM   22  C1  UNL     1      27.994   8.553  46.940  1.00  0.00     0.071 C 
HETATM   23  N7  UNL     1      29.509   6.535  47.508  1.00  0.00    -0.277 N 
HETATM   24  N6  UNL     1      29.348   5.384  48.127  1.00  0.00    -0.172 NA
HETATM   25  C21 UNL     1      30.662   7.172  46.862  1.00  0.00     0.179 C 
HETATM   26  C19 UNL     1      27.418   4.273  49.229  1.00  0.00     0.064 A 
ENDBRANCH  14  16
ENDBRANCH   1  14
BRANCH   3  27
HETATM   27  N3  UNL     1      23.671   5.502  52.999  1.00  0.00     0.107 N 
HETATM   28  H10 UNL     1      23.517   5.730  54.013  1.00  0.00     0.316 HD
HETATM   29  H11 UNL     1      24.582   5.862  52.632  1.00  0.00     0.316 HD
ENDBRANCH   3  27
BRANCH   8  30
HETATM   30  S1  UNL     1      20.040   5.682  49.560  1.00  0.00     0.240 S 
HETATM   31  O1  UNL     1      18.561   5.512  49.672  1.00  0.00    -0.206 OA
HETATM   32  O2  UNL     1      20.412   7.103  49.968  1.00  0.00    -0.206 OA
BRANCH  30  33
HETATM   33  N4  UNL     1      20.600   5.503  47.937  1.00  0.00    -0.225 NA
HETATM   34  H14 UNL     1      21.601   5.282  47.882  1.00  0.00     0.136 HD
HETATM   35  H15 UNL     1      19.969   4.928  47.374  1.00  0.00     0.136 HD
ENDBRANCH  30  33
ENDBRANCH   8  30
TORSDOF 5
ENDMDL
MODEL 9
REMARK VINA RESULT:      -8.2      2.467      5.118
REMARK  5 active torsions:
REMARK  status: ('A' for Active; 'I' for Inactive)
REMARK    1  A    between atoms: C6_6  and  N1_7 
REMARK    2  A    between atoms: N1_7  and  C8_9 
REMARK    3  A    between atoms: C9_11  and  N3_12 
REMARK    4  A    between atoms: C14_17  and  S1_18 
REMARK    5  A    between atoms: S1_18  and  N4_19 
ROOT
HETATM    1  C8  UNL     1      23.280   3.026  51.268  1.00  0.00     0.125 C 
HETATM    2  N2  UNL     1      23.068   3.439  52.474  1.00  0.00    -0.232 NA
HETATM    3  C9  UNL     1      22.835   4.846  52.830  1.00  0.00     0.374 C 
HETATM    4  C10 UNL     1      22.847   5.468  51.443  1.00  0.00    -0.003 A 
HETATM    5  C11 UNL     1      21.530   5.254  51.099  1.00  0.00     0.012 A 
HETATM    6  C12 UNL     1      21.689   5.519  49.765  1.00  0.00     0.014 A 
HETATM    7  C13 UNL     1      22.919   5.872  49.201  1.00  0.00    -0.004 A 
HETATM    8  C14 UNL     1      24.120   6.020  49.839  1.00  0.00     0.086 A 
HETATM    9  C15 UNL     1      24.110   5.785  51.180  1.00  0.00     0.036 A 
HETATM   10  C16 UNL     1      22.946   6.001  47.761  1.00  0.00     0.062 C 
HETATM   11  N5  UNL     1      23.172   4.707  47.697  1.00  0.00    -0.309 NA
HETATM   12  C17 UNL     1      23.257   3.952  48.907  1.00  0.00     0.260 C 
HETATM   13  C18 UNL     1      23.429   2.994  49.790  1.00  0.00     0.047 C 
ENDROOT
BRANCH   1  14
HETATM   14  N1  UNL     1      23.367   1.766  51.932  1.00  0.00    -0.337 N 
HETATM   15  C7  UNL     1      24.499   0.998  52.447  1.00  0.00     0.158 C 
BRANCH  14  16
HETATM   16  C6  UNL     1      22.121   1.064  52.174  1.00  0.00     0.037 A 
HETATM   17  C5  UNL     1      21.901   0.255  53.258  1.00  0.00     0.031 A 
HETATM   18  C4  UNL     1      20.670  -0.379  53.409  1.00  0.00     0.018 A 
HETATM   19  C3  UNL     1      19.634  -0.241  52.513  1.00  0.00     0.018 A 
HETATM   20  C2  UNL     1      18.334  -0.720  52.383  1.00  0.00     0.039 A 
HETATM   21  C20 UNL     1      19.866   0.575  51.429  1.00  0.00     0.091 A 
HETATM   22  C1  UNL     1      17.724  -1.647  53.391  1.00  0.00     0.071 C 
HETATM   23  N7  UNL     1      17.834  -0.194  51.254  1.00  0.00    -0.277 N 
HETATM   24  N6  UNL     1      18.739   0.574  50.685  1.00  0.00    -0.172 NA
HETATM   25  C21 UNL     1      16.457  -0.555  50.894  1.00  0.00     0.179 C 
HETATM   26  C19 UNL     1      21.071   1.209  51.262  1.00  0.00     0.064 A 
ENDBRANCH  14  16
ENDBRANCH   1  14
BRANCH   3  27
HETATM   27  N3  UNL     1      23.979   5.263  53.614  1.00  0.00     0.107 N 
HETATM   28  H10 UNL     1      24.454   6.088  53.169  1.00  0.00     0.316 HD
HETATM   29  H11 UNL     1      23.749   5.418  54.623  1.00  0.00     0.316 HD
ENDBRANCH   3  27
BRANCH   8  30
HETATM   30  S1  UNL     1      25.591   6.477  49.034  1.00  0.00     0.240 S 
HETATM   31  O1  UNL     1      26.318   5.241  48.620  1.00  0.00    -0.206 OA
HETATM   32  O2  UNL     1      25.285   7.315  47.799  1.00  0.00    -0.206 OA
BRANCH  30  33
HETATM   33  N4  UNL     1      26.544   7.488  50.059  1.00  0.00    -0.225 NA
HETATM   34  H14 UNL     1      26.334   7.359  51.055  1.00  0.00     0.136 HD
HETATM   35  H15 UNL     1      27.531   7.485  49.791  1.00  0.00     0.136 HD
ENDBRANCH  30  33
ENDBRANCH   8  30
TORSDOF 5
ENDMDL
