MODEL 1
REMARK VINA RESULT:      -7.5      0.000      0.000
REMARK  3 active torsions:
REMARK  status: ('A' for Active; 'I' for Inactive)
REMARK    1  A    between atoms: N1_2  and  C2_3 
REMARK    2  A    between atoms: C7_10  and  N3_11 
REMARK    3  A    between atoms: N3_11  and  C8_12 
ROOT
HETATM    1  C2  UNL     1      26.633   1.797  52.470  1.00  0.00     0.121 C 
HETATM    2  C3  UNL     1      27.717   2.488  52.780  1.00  0.00     0.027 C 
HETATM    3  C4  UNL     1      28.849   1.756  53.452  1.00  0.00     0.033 C 
HETATM    4  C5  UNL     1      29.387   0.609  53.971  1.00  0.00     0.197 C 
HETATM    5  O1  UNL     1      29.055  -0.764  54.171  1.00  0.00    -0.310 OA
HETATM    6  C6  UNL     1      28.129  -1.445  53.344  1.00  0.00     0.268 C 
HETATM    7  N2  UNL     1      27.338  -0.879  54.234  1.00  0.00    -0.190 NA
HETATM    8  C7  UNL     1      26.092  -0.700  53.516  1.00  0.00     0.246 C 
HETATM    9  C14 UNL     1      26.006  -1.997  52.842  1.00  0.00     0.173 C 
HETATM   10  N4  UNL     1      27.238  -2.146  52.483  1.00  0.00    -0.217 NA
HETATM   11  N5  UNL     1      26.319   0.429  52.636  1.00  0.00    -0.325 N 
HETATM   12  H12 UNL     1      26.218   0.167  51.622  1.00  0.00     0.166 HD
ENDROOT
BRANCH   8  13
HETATM   13  N3  UNL     1      24.987  -0.425  54.393  1.00  0.00    -0.340 N 
HETATM   14  H6  UNL     1      25.234  -0.104  55.372  1.00  0.00     0.164 HD
BRANCH  13  15
HETATM   15  C8  UNL     1      23.637  -0.547  54.060  1.00  0.00     0.032 A 
HETATM   16  C9  UNL     1      22.718  -1.210  54.843  1.00  0.00     0.029 A 
HETATM   17  C10 UNL     1      21.375  -1.332  54.509  1.00  0.00     0.004 A 
HETATM   18  C11 UNL     1      20.921  -0.763  53.331  1.00  0.00     0.019 A 
HETATM   19  C12 UNL     1      21.807  -0.088  52.514  1.00  0.00     0.013 A 
HETATM   20 BR1  UNL     1      21.204   0.704  50.883  1.00  0.00    -0.051 Br
HETATM   21  C13 UNL     1      23.119  -0.007  52.906  1.00  0.00     0.048 A 
ENDBRANCH  13  15
ENDBRANCH   8  13
BRANCH   1  22
HETATM   22  N1  UNL     1      25.702   2.689  51.850  1.00  0.00    -0.255 NA
HETATM   23  C1  UNL     1      25.872   3.186  50.681  1.00  0.00     0.151 C 
ENDBRANCH   1  22
TORSDOF 3
ENDMDL
MODEL 2
REMARK VINA RESULT:      -7.1      2.266      5.063
REMARK  3 active torsions:
REMARK  status: ('A' for Active; 'I' for Inactive)
REMARK    1  A    between atoms: N1_2  and  C2_3 
REMARK    2  A    between atoms: C7_10  and  N3_11 
REMARK    3  A    between atoms: N3_11  and  C8_12 
ROOT
HETATM    1  C2  UNL     1      24.112   3.135  52.965  1.00  0.00     0.121 C 
HETATM    2  C3  UNL     1      23.104   2.279  52.989  1.00  0.00     0.027 C 
HETATM    3  C4  UNL     1      23.431   0.809  53.006  1.00  0.00     0.033 C 
HETATM    4  C5  UNL     1      24.345  -0.211  53.004  1.00  0.00     0.197 C 
HETATM    5  O1  UNL     1      25.756  -0.417  52.975  1.00  0.00    -0.310 OA
HETATM    6  C6  UNL     1      26.669   0.545  53.472  1.00  0.00     0.268 C 
HETATM    7  N2  UNL     1      26.469   0.969  52.241  1.00  0.00    -0.190 NA
HETATM    8  C7  UNL     1      26.696   2.398  52.333  1.00  0.00     0.246 C 
HETATM    9  C14 UNL     1      27.901   2.403  53.166  1.00  0.00     0.173 C 
HETATM   10  N4  UNL     1      27.587   1.485  54.020  1.00  0.00    -0.217 NA
HETATM   11  N5  UNL     1      25.511   2.931  52.974  1.00  0.00    -0.325 N 
HETATM   12  H12 UNL     1      25.732   3.402  53.888  1.00  0.00     0.166 HD
ENDROOT
BRANCH   8  13
HETATM   13  N3  UNL     1      26.876   3.009  51.045  1.00  0.00    -0.340 N 
HETATM   14  H6  UNL     1      27.861   2.994  50.653  1.00  0.00     0.164 HD
BRANCH  13  15
HETATM   15  C8  UNL     1      25.872   3.610  50.284  1.00  0.00     0.032 A 
HETATM   16  C9  UNL     1      25.829   4.959  50.013  1.00  0.00     0.029 A 
HETATM   17  C10 UNL     1      24.828   5.556  49.256  1.00  0.00     0.004 A 
HETATM   18  C11 UNL     1      23.813   4.767  48.743  1.00  0.00     0.019 A 
HETATM   19  C12 UNL     1      23.814   3.408  48.990  1.00  0.00     0.013 A 
HETATM   20 BR1  UNL     1      22.424   2.298  48.292  1.00  0.00    -0.051 Br
HETATM   21  C13 UNL     1      24.834   2.886  49.744  1.00  0.00     0.048 A 
ENDBRANCH  13  15
ENDBRANCH   8  13
BRANCH   1  22
HETATM   22  N1  UNL     1      23.568   4.458  52.950  1.00  0.00    -0.255 NA
HETATM   23  C1  UNL     1      22.507   4.778  52.305  1.00  0.00     0.151 C 
ENDBRANCH   1  22
TORSDOF 3
ENDMDL
MODEL 3
REMARK VINA RESULT:      -7.1      3.100      5.672
REMARK  3 active torsions:
REMARK  status: ('A' for Active; 'I' for Inactive)
REMARK    1  A    between atoms: N1_2  and  C2_3 
REMARK    2  A    between atoms: C7_10  and  N3_11 
REMARK    3  A    between atoms: N3_11  and  C8_12 
ROOT
HETATM    1  C2  UNL     1      23.120   2.006  52.886  1.00  0.00     0.121 C 
HETATM    2  C3  UNL     1      21.943   2.267  52.343  1.00  0.00     0.027 C 
HETATM    3  C4  UNL     1      20.880   1.204  52.425  1.00  0.00     0.033 C 
HETATM    4  C5  UNL     1      20.465  -0.042  52.815  1.00  0.00     0.197 C 
HETATM    5  O1  UNL     1      20.957  -1.200  53.487  1.00  0.00    -0.310 OA
HETATM    6  C6  UNL     1      22.004  -1.133  54.438  1.00  0.00     0.268 C 
HETATM    7  N2  UNL     1      22.669  -1.218  53.304  1.00  0.00    -0.190 NA
HETATM    8  C7  UNL     1      23.918  -0.541  53.592  1.00  0.00     0.246 C 
HETATM    9  C14 UNL     1      24.202  -1.099  54.916  1.00  0.00     0.173 C 
HETATM   10  N4  UNL     1      23.019  -1.062  55.434  1.00  0.00    -0.217 NA
HETATM   11  N5  UNL     1      23.596   0.872  53.583  1.00  0.00    -0.325 N 
HETATM   12  H12 UNL     1      23.782   1.327  54.514  1.00  0.00     0.166 HD
ENDROOT
BRANCH   8  13
HETATM   13  N3  UNL     1      24.933  -0.820  52.613  1.00  0.00    -0.340 N 
HETATM   14  H6  UNL     1      24.597  -0.971  51.619  1.00  0.00     0.164 HD
BRANCH  13  15
HETATM   15  C8  UNL     1      26.303  -0.907  52.866  1.00  0.00     0.032 A 
HETATM   16  C9  UNL     1      27.033  -2.063  52.706  1.00  0.00     0.029 A 
HETATM   17  C10 UNL     1      28.397  -2.148  52.959  1.00  0.00     0.004 A 
HETATM   18  C11 UNL     1      29.069  -1.020  53.398  1.00  0.00     0.019 A 
HETATM   19  C12 UNL     1      28.378   0.162  53.574  1.00  0.00     0.013 A 
HETATM   20 BR1  UNL     1      29.285   1.731  54.180  1.00  0.00    -0.051 Br
HETATM   21  C13 UNL     1      27.033   0.174  53.304  1.00  0.00     0.048 A 
ENDBRANCH  13  15
ENDBRANCH   8  13
BRANCH   1  22
HETATM   22  N1  UNL     1      23.962   3.146  52.687  1.00  0.00    -0.255 NA
HETATM   23  C1  UNL     1      23.513   4.337  52.539  1.00  0.00     0.151 C 
ENDBRANCH   1  22
TORSDOF 3
ENDMDL
MODEL 4
REMARK VINA RESULT:      -7.1      3.153      6.268
REMARK  3 active torsions:
REMARK  status: ('A' for Active; 'I' for Inactive)
REMARK    1  A    between atoms: N1_2  and  C2_3 
REMARK    2  A    between atoms: C7_10  and  N3_11 
REMARK    3  A    between atoms: N3_11  and  C8_12 
ROOT
HETATM    1  C2  UNL     1      22.779   1.018  52.439  1.00  0.00     0.121 C 
HETATM    2  C3  UNL     1      21.547   1.404  52.726  1.00  0.00     0.027 C 
HETATM    3  C4  UNL     1      21.166   2.827  52.415  1.00  0.00     0.033 C 
HETATM    4  C5  UNL     1      21.484   4.071  51.937  1.00  0.00     0.197 C 
HETATM    5  O1  UNL     1      22.587   4.780  51.376  1.00  0.00    -0.310 OA
HETATM    6  C6  UNL     1      23.623   4.125  50.666  1.00  0.00     0.268 C 
HETATM    7  N2  UNL     1      24.029   4.007  51.914  1.00  0.00    -0.190 NA
HETATM    8  C7  UNL     1      24.822   2.793  51.898  1.00  0.00     0.246 C 
HETATM    9  C14 UNL     1      25.575   3.005  50.660  1.00  0.00     0.173 C 
HETATM   10  N4  UNL     1      24.637   3.476  49.905  1.00  0.00    -0.217 NA
HETATM   11  N5  UNL     1      23.861   1.711  51.849  1.00  0.00    -0.325 N 
HETATM   12  H12 UNL     1      23.968   1.125  50.982  1.00  0.00     0.166 HD
ENDROOT
BRANCH   8  13
HETATM   13  N3  UNL     1      25.650   2.664  53.067  1.00  0.00    -0.340 N 
HETATM   14  H6  UNL     1      25.396   3.278  53.892  1.00  0.00     0.164 HD
BRANCH  13  15
HETATM   15  C8  UNL     1      26.745   1.807  53.195  1.00  0.00     0.032 A 
HETATM   16  C9  UNL     1      28.000   2.230  53.570  1.00  0.00     0.029 A 
HETATM   17  C10 UNL     1      29.089   1.376  53.696  1.00  0.00     0.004 A 
HETATM   18  C11 UNL     1      28.919   0.027  53.432  1.00  0.00     0.019 A 
HETATM   19  C12 UNL     1      27.677  -0.443  53.051  1.00  0.00     0.013 A 
HETATM   20 BR1  UNL     1      27.418  -2.299  52.682  1.00  0.00    -0.051 Br
HETATM   21  C13 UNL     1      26.647   0.457  52.948  1.00  0.00     0.048 A 
ENDBRANCH  13  15
ENDBRANCH   8  13
BRANCH   1  22
HETATM   22  N1  UNL     1      22.912  -0.355  52.819  1.00  0.00    -0.255 NA
HETATM   23  C1  UNL     1      23.118  -0.737  54.025  1.00  0.00     0.151 C 
ENDBRANCH   1  22
TORSDOF 3
ENDMDL
MODEL 5
REMARK VINA RESULT:      -7.1      3.214      5.150
REMARK  3 active torsions:
REMARK  status: ('A' for Active; 'I' for Inactive)
REMARK    1  A    between atoms: N1_2  and  C2_3 
REMARK    2  A    between atoms: C7_10  and  N3_11 
REMARK    3  A    between atoms: N3_11  and  C8_12 
ROOT
HETATM    1  C2  UNL     1      26.213   3.139  50.968  1.00  0.00     0.121 C 
HETATM    2  C3  UNL     1      26.753   3.725  49.912  1.00  0.00     0.027 C 
HETATM    3  C4  UNL     1      25.911   4.711  49.147  1.00  0.00     0.033 C 
HETATM    4  C5  UNL     1      24.732   5.384  48.963  1.00  0.00     0.197 C 
HETATM    5  O1  UNL     1      23.433   5.498  49.542  1.00  0.00    -0.310 OA
HETATM    6  C6  UNL     1      23.192   5.233  50.912  1.00  0.00     0.268 C 
HETATM    7  N2  UNL     1      23.108   4.029  50.381  1.00  0.00    -0.190 NA
HETATM    8  C7  UNL     1      23.498   3.152  51.467  1.00  0.00     0.246 C 
HETATM    9  C14 UNL     1      22.751   3.770  52.565  1.00  0.00     0.173 C 
HETATM   10  N4  UNL     1      22.956   5.019  52.299  1.00  0.00    -0.217 NA
HETATM   11  N5  UNL     1      24.938   3.279  51.562  1.00  0.00    -0.325 N 
HETATM   12  H12 UNL     1      25.242   3.652  52.498  1.00  0.00     0.166 HD
ENDROOT
BRANCH   8  13
HETATM   13  N3  UNL     1      23.140   1.781  51.221  1.00  0.00    -0.340 N 
HETATM   14  H6  UNL     1      23.288   1.429  50.232  1.00  0.00     0.164 HD
BRANCH  13  15
HETATM   15  C8  UNL     1      22.622   0.895  52.167  1.00  0.00     0.032 A 
HETATM   16  C9  UNL     1      23.386   0.295  53.143  1.00  0.00     0.029 A 
HETATM   17  C10 UNL     1      22.870  -0.587  54.084  1.00  0.00     0.004 A 
HETATM   18  C11 UNL     1      21.519  -0.891  54.050  1.00  0.00     0.019 A 
HETATM   19  C12 UNL     1      20.714  -0.313  53.088  1.00  0.00     0.013 A 
HETATM   20 BR1  UNL     1      18.847  -0.716  53.021  1.00  0.00    -0.051 Br
HETATM   21  C13 UNL     1      21.291   0.550  52.191  1.00  0.00     0.048 A 
ENDBRANCH  13  15
ENDBRANCH   8  13
BRANCH   1  22
HETATM   22  N1  UNL     1      27.185   2.252  51.528  1.00  0.00    -0.255 NA
HETATM   23  C1  UNL     1      26.886   1.134  52.079  1.00  0.00     0.151 C 
ENDBRANCH   1  22
TORSDOF 3
ENDMDL
MODEL 6
REMARK VINA RESULT:      -7.1      3.488      5.524
REMARK  3 active torsions:
REMARK  status: ('A' for Active; 'I' for Inactive)
REMARK    1  A    between atoms: N1_2  and  C2_3 
REMARK    2  A    between atoms: C7_10  and  N3_11 
REMARK    3  A    between atoms: N3_11  and  C8_12 
ROOT
HETATM    1  C2  UNL     1      26.200   3.427  50.702  1.00  0.00     0.121 C 
HETATM    2  C3  UNL     1      26.772   4.031  49.674  1.00  0.00     0.027 C 
HETATM    3  C4  UNL     1      25.984   5.094  48.954  1.00  0.00     0.033 C 
HETATM    4  C5  UNL     1      24.842   5.834  48.801  1.00  0.00     0.197 C 
HETATM    5  O1  UNL     1      23.550   5.989  49.385  1.00  0.00    -0.310 OA
HETATM    6  C6  UNL     1      23.293   5.676  50.741  1.00  0.00     0.268 C 
HETATM    7  N2  UNL     1      23.148   4.504  50.157  1.00  0.00    -0.190 NA
HETATM    8  C7  UNL     1      23.488   3.559  51.203  1.00  0.00     0.246 C 
HETATM    9  C14 UNL     1      22.773   4.166  52.327  1.00  0.00     0.173 C 
HETATM   10  N4  UNL     1      23.043   5.413  52.118  1.00  0.00    -0.217 NA
HETATM   11  N5  UNL     1      24.933   3.607  51.303  1.00  0.00    -0.325 N 
HETATM   12  H12 UNL     1      25.254   3.921  52.255  1.00  0.00     0.166 HD
ENDROOT
BRANCH   8  13
HETATM   13  N3  UNL     1      23.060   2.222  50.895  1.00  0.00    -0.340 N 
HETATM   14  H6  UNL     1      22.887   2.009  49.871  1.00  0.00     0.164 HD
BRANCH  13  15
HETATM   15  C8  UNL     1      22.859   1.200  51.825  1.00  0.00     0.032 A 
HETATM   16  C9  UNL     1      21.652   0.561  52.001  1.00  0.00     0.029 A 
HETATM   17  C10 UNL     1      21.453  -0.455  52.928  1.00  0.00     0.004 A 
HETATM   18  C11 UNL     1      22.513  -0.855  53.724  1.00  0.00     0.019 A 
HETATM   19  C12 UNL     1      23.743  -0.242  53.582  1.00  0.00     0.013 A 
HETATM   20 BR1  UNL     1      25.220  -0.777  54.670  1.00  0.00    -0.051 Br
HETATM   21  C13 UNL     1      23.868   0.754  52.647  1.00  0.00     0.048 A 
ENDBRANCH  13  15
ENDBRANCH   8  13
BRANCH   1  22
HETATM   22  N1  UNL     1      27.124   2.467  51.221  1.00  0.00    -0.255 NA
HETATM   23  C1  UNL     1      27.184   2.143  52.460  1.00  0.00     0.151 C 
ENDBRANCH   1  22
TORSDOF 3
ENDMDL
MODEL 7
REMARK VINA RESULT:      -6.9      3.198      6.214
REMARK  3 active torsions:
REMARK  status: ('A' for Active; 'I' for Inactive)
REMARK    1  A    between atoms: N1_2  and  C2_3 
REMARK    2  A    between atoms: C7_10  and  N3_11 
REMARK    3  A    between atoms: N3_11  and  C8_12 
ROOT
HETATM    1  C2  UNL     1      24.107  -0.394  53.499  1.00  0.00     0.121 C 
HETATM    2  C3  UNL     1      23.634  -0.897  54.627  1.00  0.00     0.027 C 
HETATM    3  C4  UNL     1      22.158  -0.762  54.894  1.00  0.00     0.033 C 
HETATM    4  C5  UNL     1      20.913  -0.329  54.523  1.00  0.00     0.197 C 
HETATM    5  O1  UNL     1      20.267   0.366  53.457  1.00  0.00    -0.310 OA
HETATM    6  C6  UNL     1      20.778   0.366  52.137  1.00  0.00     0.268 C 
HETATM    7  N2  UNL     1      21.450   1.356  52.691  1.00  0.00    -0.190 NA
HETATM    8  C7  UNL     1      22.688   1.388  51.938  1.00  0.00     0.246 C 
HETATM    9  C14 UNL     1      22.158   1.228  50.582  1.00  0.00     0.173 C 
HETATM   10  N4  UNL     1      21.259   0.324  50.798  1.00  0.00    -0.217 NA
HETATM   11  N5  UNL     1      23.460   0.263  52.427  1.00  0.00    -0.325 N 
HETATM   12  H12 UNL     1      23.669  -0.435  51.667  1.00  0.00     0.166 HD
ENDROOT
BRANCH   8  13
HETATM   13  N3  UNL     1      23.420   2.609  52.136  1.00  0.00    -0.340 N 
HETATM   14  H6  UNL     1      23.217   3.137  53.033  1.00  0.00     0.164 HD
BRANCH  13  15
HETATM   15  C8  UNL     1      24.360   3.145  51.253  1.00  0.00     0.032 A 
HETATM   16  C9  UNL     1      25.622   2.624  51.081  1.00  0.00     0.029 A 
HETATM   17  C10 UNL     1      26.557   3.158  50.203  1.00  0.00     0.004 A 
HETATM   18  C11 UNL     1      26.216   4.273  49.456  1.00  0.00     0.019 A 
HETATM   19  C12 UNL     1      24.960   4.831  49.596  1.00  0.00     0.013 A 
HETATM   20 BR1  UNL     1      24.467   6.370  48.577  1.00  0.00    -0.051 Br
HETATM   21  C13 UNL     1      24.088   4.250  50.482  1.00  0.00     0.048 A 
ENDBRANCH  13  15
ENDBRANCH   8  13
BRANCH   1  22
HETATM   22  N1  UNL     1      25.516  -0.635  53.463  1.00  0.00    -0.255 NA
HETATM   23  C1  UNL     1      26.383   0.182  53.937  1.00  0.00     0.151 C 
ENDBRANCH   1  22
TORSDOF 3
ENDMDL
MODEL 8
REMARK VINA RESULT:      -6.9      2.894      5.763
REMARK  3 active torsions:
REMARK  status: ('A' for Active; 'I' for Inactive)
REMARK    1  A    between atoms: N1_2  and  C2_3 
REMARK    2  A    between atoms: C7_10  and  N3_11 
REMARK    3  A    between atoms: N3_11  and  C8_12 
ROOT
HETATM    1  C2  UNL     1      23.439   2.214  52.696  1.00  0.00     0.121 C 
HETATM    2  C3  UNL     1      22.668   1.212  53.087  1.00  0.00     0.027 C 
HETATM    3  C4  UNL     1      23.339  -0.073  53.494  1.00  0.00     0.033 C 
HETATM    4  C5  UNL     1      24.470  -0.822  53.682  1.00  0.00     0.197 C 
HETATM    5  O1  UNL     1      25.887  -0.719  53.549  1.00  0.00    -0.310 OA
HETATM    6  C6  UNL     1      26.564   0.521  53.634  1.00  0.00     0.268 C 
HETATM    7  N2  UNL     1      26.211   0.487  52.365  1.00  0.00    -0.190 NA
HETATM    8  C7  UNL     1      26.093   1.888  52.008  1.00  0.00     0.246 C 
HETATM    9  C14 UNL     1      27.298   2.410  52.655  1.00  0.00     0.173 C 
HETATM   10  N4  UNL     1      27.254   1.759  53.771  1.00  0.00    -0.217 NA
HETATM   11  N5  UNL     1      24.845   2.327  52.599  1.00  0.00    -0.325 N 
HETATM   12  H12 UNL     1      24.989   3.095  53.304  1.00  0.00     0.166 HD
ENDROOT
BRANCH   8  13
HETATM   13  N3  UNL     1      26.062   2.091  50.586  1.00  0.00    -0.340 N 
HETATM   14  H6  UNL     1      26.123   1.220  49.986  1.00  0.00     0.164 HD
BRANCH  13  15
HETATM   15  C8  UNL     1      25.958   3.328  49.945  1.00  0.00     0.032 A 
HETATM   16  C9  UNL     1      24.763   3.981  49.743  1.00  0.00     0.029 A 
HETATM   17  C10 UNL     1      24.662   5.211  49.104  1.00  0.00     0.004 A 
HETATM   18  C11 UNL     1      25.813   5.823  48.640  1.00  0.00     0.019 A 
HETATM   19  C12 UNL     1      27.036   5.205  48.821  1.00  0.00     0.013 A 
HETATM   20 BR1  UNL     1      28.638   6.032  48.189  1.00  0.00    -0.051 Br
HETATM   21  C13 UNL     1      27.061   3.992  49.460  1.00  0.00     0.048 A 
ENDBRANCH  13  15
ENDBRANCH   8  13
BRANCH   1  22
HETATM   22  N1  UNL     1      22.594   3.317  52.360  1.00  0.00    -0.255 NA
HETATM   23  C1  UNL     1      21.406   3.181  51.896  1.00  0.00     0.151 C 
ENDBRANCH   1  22
TORSDOF 3
ENDMDL
MODEL 9
REMARK VINA RESULT:      -6.8      3.935      6.196
REMARK  3 active torsions:
REMARK  status: ('A' for Active; 'I' for Inactive)
REMARK    1  A    between atoms: N1_2  and  C2_3 
REMARK    2  A    between atoms: C7_10  and  N3_11 
REMARK    3  A    between atoms: N3_11  and  C8_12 
ROOT
HETATM    1  C2  UNL     1      23.169   3.206  48.947  1.00  0.00     0.121 C 
HETATM    2  C3  UNL     1      22.370   4.086  48.366  1.00  0.00     0.027 C 
HETATM    3  C4  UNL     1      22.889   5.486  48.172  1.00  0.00     0.033 C 
HETATM    4  C5  UNL     1      23.879   6.423  48.313  1.00  0.00     0.197 C 
HETATM    5  O1  UNL     1      25.201   6.550  48.833  1.00  0.00    -0.310 OA
HETATM    6  C6  UNL     1      26.083   5.447  48.930  1.00  0.00     0.268 C 
HETATM    7  N2  UNL     1      25.398   5.349  50.051  1.00  0.00    -0.190 NA
HETATM    8  C7  UNL     1      25.435   3.930  50.348  1.00  0.00     0.246 C 
HETATM    9  C14 UNL     1      26.843   3.653  50.058  1.00  0.00     0.173 C 
HETATM   10  N4  UNL     1      26.991   4.351  48.979  1.00  0.00    -0.217 NA
HETATM   11  N5  UNL     1      24.493   3.323  49.430  1.00  0.00    -0.325 N 
HETATM   12  H12 UNL     1      24.956   2.631  48.787  1.00  0.00     0.166 HD
ENDROOT
BRANCH   8  13
HETATM   13  N3  UNL     1      25.054   3.643  51.705  1.00  0.00    -0.340 N 
HETATM   14  H6  UNL     1      25.032   4.468  52.370  1.00  0.00     0.164 HD
BRANCH  13  15
HETATM   15  C8  UNL     1      24.717   2.384  52.204  1.00  0.00     0.032 A 
HETATM   16  C9  UNL     1      23.458   2.059  52.659  1.00  0.00     0.029 A 
HETATM   17  C10 UNL     1      23.124   0.806  53.156  1.00  0.00     0.004 A 
HETATM   18  C11 UNL     1      24.097  -0.178  53.204  1.00  0.00     0.019 A 
HETATM   19  C12 UNL     1      25.375   0.102  52.759  1.00  0.00     0.013 A 
HETATM   20 BR1  UNL     1      26.733  -1.241  52.816  1.00  0.00    -0.051 Br
HETATM   21  C13 UNL     1      25.633   1.361  52.280  1.00  0.00     0.048 A 
ENDBRANCH  13  15
ENDBRANCH   8  13
BRANCH   1  22
HETATM   22  N1  UNL     1      22.472   1.960  49.026  1.00  0.00    -0.255 NA
HETATM   23  C1  UNL     1      21.452   1.675  48.304  1.00  0.00     0.151 C 
ENDBRANCH   1  22
TORSDOF 3
ENDMDL
