MODEL 1
REMARK VINA RESULT:      -8.1      0.000      0.000
REMARK  7 active torsions:
REMARK  status: ('A' for Active; 'I' for Inactive)
REMARK    1  A    between atoms: C7_7  and  N1_8 
REMARK    2  A    between atoms: N1_8  and  C8_9 
REMARK    3  A    between atoms: C12_15  and  O1_16 
REMARK    4  A    between atoms: C14_18  and  O2_19 
REMARK    5  A    between atoms: O2_19  and  C15_20 
REMARK    6  A    between atoms: C15_20  and  C16_21 
REMARK    7  A    between atoms: C16_21  and  O3_22 
ROOT
HETATM    1  C1  UNL     1      30.190  -2.025  53.657  1.00  0.00     0.018 C 
HETATM    2  C2  UNL     1      29.384  -1.125  53.493  1.00  0.00    -0.078 C 
HETATM    3  C3  UNL     1      28.448  -0.048  53.307  1.00  0.00     0.019 A 
HETATM    4  C4  UNL     1      28.846   1.285  53.419  1.00  0.00     0.021 A 
HETATM    5  C5  UNL     1      27.925   2.321  53.234  1.00  0.00     0.004 A 
HETATM    6  C6  UNL     1      26.598   2.012  52.936  1.00  0.00     0.029 A 
HETATM    7  C7  UNL     1      26.176   0.698  52.820  1.00  0.00     0.035 A 
HETATM    8  C20 UNL     1      27.116  -0.316  53.009  1.00  0.00     0.050 A 
ENDROOT
BRANCH   7   9
HETATM    9  N1  UNL     1      24.829   0.386  52.517  1.00  0.00    -0.340 N 
HETATM   10  H5  UNL     1      24.453   0.620  51.573  1.00  0.00     0.167 HD
BRANCH   9  11
HETATM   11  C8  UNL     1      24.013  -0.232  53.479  1.00  0.00     0.142 A 
HETATM   12  N2  UNL     1      24.679  -0.728  54.559  1.00  0.00    -0.224 NA
HETATM   13  C9  UNL     1      24.058  -1.354  55.580  1.00  0.00     0.236 A 
HETATM   14  N3  UNL     1      22.722  -1.503  55.544  1.00  0.00    -0.241 NA
HETATM   15  C10 UNL     1      22.000  -1.040  54.509  1.00  0.00     0.075 A 
HETATM   16  C11 UNL     1      20.630  -1.162  54.412  1.00  0.00     0.072 A 
HETATM   17  C19 UNL     1      22.647  -0.401  53.471  1.00  0.00     0.042 A 
HETATM   18  C12 UNL     1      19.966  -0.656  53.309  1.00  0.00     0.103 A 
HETATM   19  C14 UNL     1      20.638  -0.020  52.284  1.00  0.00     0.103 A 
HETATM   20  C18 UNL     1      22.020   0.118  52.355  1.00  0.00     0.057 A 
BRANCH  18  21
HETATM   21  O1  UNL     1      18.591  -0.803  53.257  1.00  0.00    -0.353 OA
HETATM   22  C13 UNL     1      18.007  -2.070  53.504  1.00  0.00     0.210 C 
ENDBRANCH  18  21
BRANCH  19  23
HETATM   23  O2  UNL     1      19.872   0.447  51.228  1.00  0.00    -0.346 OA
BRANCH  23  24
HETATM   24  C15 UNL     1      19.924   1.791  50.838  1.00  0.00     0.201 C 
BRANCH  24  25
HETATM   25  C16 UNL     1      18.908   2.627  51.615  1.00  0.00     0.193 C 
BRANCH  25  26
HETATM   26  O3  UNL     1      19.619   3.376  52.533  1.00  0.00    -0.394 OA
HETATM   27  C17 UNL     1      20.797   3.890  51.969  1.00  0.00     0.201 C 
ENDBRANCH  25  26
ENDBRANCH  24  25
ENDBRANCH  23  24
ENDBRANCH  19  23
ENDBRANCH   9  11
ENDBRANCH   7   9
TORSDOF 7
ENDMDL
MODEL 2
REMARK VINA RESULT:      -7.9      2.185      4.175
REMARK  7 active torsions:
REMARK  status: ('A' for Active; 'I' for Inactive)
REMARK    1  A    between atoms: C7_7  and  N1_8 
REMARK    2  A    between atoms: N1_8  and  C8_9 
REMARK    3  A    between atoms: C12_15  and  O1_16 
REMARK    4  A    between atoms: C14_18  and  O2_19 
REMARK    5  A    between atoms: O2_19  and  C15_20 
REMARK    6  A    between atoms: C15_20  and  C16_21 
REMARK    7  A    between atoms: C16_21  and  O3_22 
ROOT
HETATM    1  C1  UNL     1      27.893  -2.756  52.753  1.00  0.00     0.018 C 
HETATM    2  C2  UNL     1      27.877  -1.555  52.963  1.00  0.00    -0.078 C 
HETATM    3  C3  UNL     1      27.879  -0.139  53.218  1.00  0.00     0.019 A 
HETATM    4  C4  UNL     1      29.041   0.522  53.622  1.00  0.00     0.021 A 
HETATM    5  C5  UNL     1      29.028   1.900  53.866  1.00  0.00     0.004 A 
HETATM    6  C6  UNL     1      27.840   2.612  53.701  1.00  0.00     0.029 A 
HETATM    7  C7  UNL     1      26.675   1.982  53.302  1.00  0.00     0.035 A 
HETATM    8  C20 UNL     1      26.715   0.607  53.065  1.00  0.00     0.050 A 
ENDROOT
BRANCH   7   9
HETATM    9  N1  UNL     1      25.470   2.706  53.134  1.00  0.00    -0.340 N 
HETATM   10  H5  UNL     1      25.066   3.217  53.948  1.00  0.00     0.167 HD
BRANCH   9  11
HETATM   11  C8  UNL     1      24.831   2.736  51.884  1.00  0.00     0.142 A 
HETATM   12  N2  UNL     1      25.530   3.368  50.900  1.00  0.00    -0.224 NA
HETATM   13  C9  UNL     1      25.071   3.493  49.637  1.00  0.00     0.236 A 
HETATM   14  N3  UNL     1      23.871   2.976  49.321  1.00  0.00    -0.241 NA
HETATM   15  C10 UNL     1      23.125   2.340  50.241  1.00  0.00     0.075 A 
HETATM   16  C11 UNL     1      21.888   1.789  49.981  1.00  0.00     0.072 A 
HETATM   17  C19 UNL     1      23.606   2.218  51.528  1.00  0.00     0.042 A 
HETATM   18  C12 UNL     1      21.187   1.152  50.989  1.00  0.00     0.103 A 
HETATM   19  C14 UNL     1      21.692   1.044  52.269  1.00  0.00     0.103 A 
HETATM   20  C18 UNL     1      22.938   1.589  52.561  1.00  0.00     0.057 A 
BRANCH  18  21
HETATM   21  O1  UNL     1      19.950   0.617  50.679  1.00  0.00    -0.353 OA
HETATM   22  C13 UNL     1      18.860   1.475  50.394  1.00  0.00     0.210 C 
ENDBRANCH  18  21
BRANCH  19  23
HETATM   23  O2  UNL     1      20.904   0.385  53.199  1.00  0.00    -0.346 OA
BRANCH  23  24
HETATM   24  C15 UNL     1      21.446  -0.079  54.404  1.00  0.00     0.201 C 
BRANCH  24  25
HETATM   25  C16 UNL     1      21.397  -1.604  54.475  1.00  0.00     0.193 C 
BRANCH  25  26
HETATM   26  O3  UNL     1      22.329  -1.995  55.417  1.00  0.00    -0.394 OA
HETATM   27  C17 UNL     1      23.501  -1.228  55.324  1.00  0.00     0.201 C 
ENDBRANCH  25  26
ENDBRANCH  24  25
ENDBRANCH  23  24
ENDBRANCH  19  23
ENDBRANCH   9  11
ENDBRANCH   7   9
TORSDOF 7
ENDMDL
MODEL 3
REMARK VINA RESULT:      -7.6      3.396      5.402
REMARK  7 active torsions:
REMARK  status: ('A' for Active; 'I' for Inactive)
REMARK    1  A    between atoms: C7_7  and  N1_8 
REMARK    2  A    between atoms: N1_8  and  C8_9 
REMARK    3  A    between atoms: C12_15  and  O1_16 
REMARK    4  A    between atoms: C14_18  and  O2_19 
REMARK    5  A    between atoms: O2_19  and  C15_20 
REMARK    6  A    between atoms: C15_20  and  C16_21 
REMARK    7  A    between atoms: C16_21  and  O3_22 
ROOT
HETATM    1  C1  UNL     1      23.381   7.916  50.557  1.00  0.00     0.018 C 
HETATM    2  C2  UNL     1      24.287   7.203  50.160  1.00  0.00    -0.078 C 
HETATM    3  C3  UNL     1      25.365   6.379  49.680  1.00  0.00     0.019 A 
HETATM    4  C4  UNL     1      26.412   6.920  48.932  1.00  0.00     0.021 A 
HETATM    5  C5  UNL     1      27.454   6.107  48.473  1.00  0.00     0.004 A 
HETATM    6  C6  UNL     1      27.438   4.744  48.769  1.00  0.00     0.029 A 
HETATM    7  C7  UNL     1      26.412   4.182  49.509  1.00  0.00     0.035 A 
HETATM    8  C20 UNL     1      25.386   5.015  49.955  1.00  0.00     0.050 A 
ENDROOT
BRANCH   7   9
HETATM    9  N1  UNL     1      26.399   2.799  49.809  1.00  0.00    -0.340 N 
HETATM   10  H5  UNL     1      26.409   2.108  49.029  1.00  0.00     0.167 HD
BRANCH   9  11
HETATM   11  C8  UNL     1      26.373   2.366  51.146  1.00  0.00     0.142 A 
HETATM   12  N2  UNL     1      27.555   2.497  51.811  1.00  0.00    -0.224 NA
HETATM   13  C9  UNL     1      27.717   2.133  53.100  1.00  0.00     0.236 A 
HETATM   14  N3  UNL     1      26.674   1.615  53.771  1.00  0.00    -0.241 NA
HETATM   15  C10 UNL     1      25.477   1.454  53.178  1.00  0.00     0.075 A 
HETATM   16  C11 UNL     1      24.370   0.929  53.810  1.00  0.00     0.072 A 
HETATM   17  C19 UNL     1      25.325   1.831  51.860  1.00  0.00     0.042 A 
HETATM   18  C12 UNL     1      23.177   0.798  53.123  1.00  0.00     0.103 A 
HETATM   19  C14 UNL     1      23.052   1.184  51.804  1.00  0.00     0.103 A 
HETATM   20  C18 UNL     1      24.151   1.718  51.140  1.00  0.00     0.057 A 
BRANCH  18  21
HETATM   21  O1  UNL     1      22.095   0.265  53.801  1.00  0.00    -0.353 OA
HETATM   22  C13 UNL     1      22.269  -0.876  54.622  1.00  0.00     0.210 C 
ENDBRANCH  18  21
BRANCH  19  23
HETATM   23  O2  UNL     1      21.810   1.008  51.215  1.00  0.00    -0.346 OA
BRANCH  23  24
HETATM   24  C15 UNL     1      21.066   2.102  50.759  1.00  0.00     0.201 C 
BRANCH  24  25
HETATM   25  C16 UNL     1      20.476   2.889  51.929  1.00  0.00     0.193 C 
BRANCH  25  26
HETATM   26  O3  UNL     1      20.624   4.230  51.629  1.00  0.00    -0.394 OA
HETATM   27  C17 UNL     1      21.906   4.690  51.965  1.00  0.00     0.201 C 
ENDBRANCH  25  26
ENDBRANCH  24  25
ENDBRANCH  23  24
ENDBRANCH  19  23
ENDBRANCH   9  11
ENDBRANCH   7   9
TORSDOF 7
ENDMDL
MODEL 4
REMARK VINA RESULT:      -7.5      4.237      6.449
REMARK  7 active torsions:
REMARK  status: ('A' for Active; 'I' for Inactive)
REMARK    1  A    between atoms: C7_7  and  N1_8 
REMARK    2  A    between atoms: N1_8  and  C8_9 
REMARK    3  A    between atoms: C12_15  and  O1_16 
REMARK    4  A    between atoms: C14_18  and  O2_19 
REMARK    5  A    between atoms: O2_19  and  C15_20 
REMARK    6  A    between atoms: C15_20  and  C16_21 
REMARK    7  A    between atoms: C16_21  and  O3_22 
ROOT
HETATM    1  C1  UNL     1      26.994   8.290  47.749  1.00  0.00     0.018 C 
HETATM    2  C2  UNL     1      26.755   7.241  48.325  1.00  0.00    -0.078 C 
HETATM    3  C3  UNL     1      26.487   5.994  48.991  1.00  0.00     0.019 A 
HETATM    4  C4  UNL     1      27.190   4.834  48.664  1.00  0.00     0.021 A 
HETATM    5  C5  UNL     1      26.919   3.628  49.320  1.00  0.00     0.004 A 
HETATM    6  C6  UNL     1      25.935   3.594  50.308  1.00  0.00     0.029 A 
HETATM    7  C7  UNL     1      25.223   4.730  50.651  1.00  0.00     0.035 A 
HETATM    8  C20 UNL     1      25.513   5.919  49.981  1.00  0.00     0.050 A 
ENDROOT
BRANCH   7   9
HETATM    9  N1  UNL     1      24.225   4.694  51.655  1.00  0.00    -0.340 N 
HETATM   10  H5  UNL     1      24.324   5.307  52.492  1.00  0.00     0.167 HD
BRANCH   9  11
HETATM   11  C8  UNL     1      23.118   3.840  51.521  1.00  0.00     0.142 A 
HETATM   12  N2  UNL     1      22.072   4.367  50.825  1.00  0.00    -0.224 NA
HETATM   13  C9  UNL     1      20.926   3.692  50.598  1.00  0.00     0.236 A 
HETATM   14  N3  UNL     1      20.795   2.442  51.075  1.00  0.00    -0.241 NA
HETATM   15  C10 UNL     1      21.786   1.858  51.772  1.00  0.00     0.075 A 
HETATM   16  C11 UNL     1      21.714   0.582  52.288  1.00  0.00     0.072 A 
HETATM   17  C19 UNL     1      22.952   2.559  51.996  1.00  0.00     0.042 A 
HETATM   18  C12 UNL     1      22.781   0.059  52.995  1.00  0.00     0.103 A 
HETATM   19  C14 UNL     1      23.938   0.782  53.205  1.00  0.00     0.103 A 
HETATM   20  C18 UNL     1      24.040   2.072  52.696  1.00  0.00     0.057 A 
BRANCH  18  21
HETATM   21  O1  UNL     1      22.661  -1.226  53.494  1.00  0.00    -0.353 OA
HETATM   22  C13 UNL     1      21.447  -1.638  54.096  1.00  0.00     0.210 C 
ENDBRANCH  18  21
BRANCH  19  23
HETATM   23  O2  UNL     1      24.943   0.159  53.927  1.00  0.00    -0.346 OA
BRANCH  23  24
HETATM   24  C15 UNL     1      26.250   0.086  53.430  1.00  0.00     0.201 C 
BRANCH  24  25
HETATM   25  C16 UNL     1      27.251   0.648  54.439  1.00  0.00     0.193 C 
BRANCH  25  26
HETATM   26  O3  UNL     1      28.036  -0.409  54.860  1.00  0.00    -0.394 OA
HETATM   27  C17 UNL     1      29.101  -0.638  53.975  1.00  0.00     0.201 C 
ENDBRANCH  25  26
ENDBRANCH  24  25
ENDBRANCH  23  24
ENDBRANCH  19  23
ENDBRANCH   9  11
ENDBRANCH   7   9
TORSDOF 7
ENDMDL
MODEL 5
REMARK VINA RESULT:      -7.5      3.556      4.944
REMARK  7 active torsions:
REMARK  status: ('A' for Active; 'I' for Inactive)
REMARK    1  A    between atoms: C7_7  and  N1_8 
REMARK    2  A    between atoms: N1_8  and  C8_9 
REMARK    3  A    between atoms: C12_15  and  O1_16 
REMARK    4  A    between atoms: C14_18  and  O2_19 
REMARK    5  A    between atoms: O2_19  and  C15_20 
REMARK    6  A    between atoms: C15_20  and  C16_21 
REMARK    7  A    between atoms: C16_21  and  O3_22 
ROOT
HETATM    1  C1  UNL     1      30.400   5.531  47.841  1.00  0.00     0.018 C 
HETATM    2  C2  UNL     1      29.231   5.510  48.187  1.00  0.00    -0.078 C 
HETATM    3  C3  UNL     1      27.850   5.508  48.594  1.00  0.00     0.019 A 
HETATM    4  C4  UNL     1      27.101   6.685  48.616  1.00  0.00     0.021 A 
HETATM    5  C5  UNL     1      25.759   6.667  49.013  1.00  0.00     0.004 A 
HETATM    6  C6  UNL     1      25.174   5.459  49.390  1.00  0.00     0.029 A 
HETATM    7  C7  UNL     1      25.895   4.277  49.378  1.00  0.00     0.035 A 
HETATM    8  C20 UNL     1      27.231   4.323  48.977  1.00  0.00     0.050 A 
ENDROOT
BRANCH   7   9
HETATM    9  N1  UNL     1      25.299   3.052  49.760  1.00  0.00    -0.340 N 
HETATM   10  H5  UNL     1      24.616   2.596  49.117  1.00  0.00     0.167 HD
BRANCH   9  11
HETATM   11  C8  UNL     1      25.626   2.459  50.991  1.00  0.00     0.142 A 
HETATM   12  N2  UNL     1      26.915   2.649  51.390  1.00  0.00    -0.224 NA
HETATM   13  C9  UNL     1      27.406   2.151  52.544  1.00  0.00     0.236 A 
HETATM   14  N3  UNL     1      26.600   1.434  53.346  1.00  0.00    -0.241 NA
HETATM   15  C10 UNL     1      25.316   1.206  53.015  1.00  0.00     0.075 A 
HETATM   16  C11 UNL     1      24.440   0.479  53.792  1.00  0.00     0.072 A 
HETATM   17  C19 UNL     1      24.826   1.720  51.833  1.00  0.00     0.042 A 
HETATM   18  C12 UNL     1      23.134   0.292  53.374  1.00  0.00     0.103 A 
HETATM   19  C14 UNL     1      22.669   0.818  52.186  1.00  0.00     0.103 A 
HETATM   20  C18 UNL     1      23.530   1.556  51.382  1.00  0.00     0.057 A 
BRANCH  18  21
HETATM   21  O1  UNL     1      22.293  -0.446  54.188  1.00  0.00    -0.353 OA
HETATM   22  C13 UNL     1      22.838  -1.366  55.117  1.00  0.00     0.210 C 
ENDBRANCH  18  21
BRANCH  19  23
HETATM   23  O2  UNL     1      21.345   0.568  51.867  1.00  0.00    -0.346 OA
BRANCH  23  24
HETATM   24  C15 UNL     1      20.566   1.529  51.211  1.00  0.00     0.201 C 
BRANCH  24  25
HETATM   25  C16 UNL     1      19.469   2.065  52.130  1.00  0.00     0.193 C 
BRANCH  25  26
HETATM   26  O3  UNL     1      19.842   3.343  52.502  1.00  0.00    -0.394 OA
HETATM   27  C17 UNL     1      20.353   4.063  51.411  1.00  0.00     0.201 C 
ENDBRANCH  25  26
ENDBRANCH  24  25
ENDBRANCH  23  24
ENDBRANCH  19  23
ENDBRANCH   9  11
ENDBRANCH   7   9
TORSDOF 7
ENDMDL
MODEL 6
REMARK VINA RESULT:      -7.3      3.549      5.931
REMARK  7 active torsions:
REMARK  status: ('A' for Active; 'I' for Inactive)
REMARK    1  A    between atoms: C7_7  and  N1_8 
REMARK    2  A    between atoms: N1_8  and  C8_9 
REMARK    3  A    between atoms: C12_15  and  O1_16 
REMARK    4  A    between atoms: C14_18  and  O2_19 
REMARK    5  A    between atoms: O2_19  and  C15_20 
REMARK    6  A    between atoms: C15_20  and  C16_21 
REMARK    7  A    between atoms: C16_21  and  O3_22 
ROOT
HETATM    1  C1  UNL     1      27.168   4.733  48.925  1.00  0.00     0.018 C 
HETATM    2  C2  UNL     1      26.089   4.515  49.450  1.00  0.00    -0.078 C 
HETATM    3  C3  UNL     1      24.817   4.277  50.080  1.00  0.00     0.019 A 
HETATM    4  C4  UNL     1      24.181   5.271  50.824  1.00  0.00     0.021 A 
HETATM    5  C5  UNL     1      22.944   5.026  51.430  1.00  0.00     0.004 A 
HETATM    6  C6  UNL     1      22.348   3.773  51.284  1.00  0.00     0.029 A 
HETATM    7  C7  UNL     1      22.958   2.769  50.552  1.00  0.00     0.035 A 
HETATM    8  C20 UNL     1      24.191   3.040  49.958  1.00  0.00     0.050 A 
ENDROOT
BRANCH   7   9
HETATM    9  N1  UNL     1      22.351   1.499  50.404  1.00  0.00    -0.340 N 
HETATM   10  H5  UNL     1      22.248   1.092  49.450  1.00  0.00     0.167 HD
BRANCH   9  11
HETATM   11  C8  UNL     1      21.895   0.797  51.533  1.00  0.00     0.142 A 
HETATM   12  N2  UNL     1      20.541   0.681  51.624  1.00  0.00    -0.224 NA
HETATM   13  C9  UNL     1      19.926   0.041  52.640  1.00  0.00     0.236 A 
HETATM   14  N3  UNL     1      20.669  -0.512  53.614  1.00  0.00    -0.241 NA
HETATM   15  C10 UNL     1      22.011  -0.435  53.591  1.00  0.00     0.075 A 
HETATM   16  C11 UNL     1      22.830  -0.978  54.558  1.00  0.00     0.072 A 
HETATM   17  C19 UNL     1      22.628   0.222  52.546  1.00  0.00     0.042 A 
HETATM   18  C12 UNL     1      24.203  -0.851  54.456  1.00  0.00     0.103 A 
HETATM   19  C14 UNL     1      24.795  -0.189  53.399  1.00  0.00     0.103 A 
HETATM   20  C18 UNL     1      23.996   0.369  52.408  1.00  0.00     0.057 A 
BRANCH  18  21
HETATM   21  O1  UNL     1      24.981  -1.413  55.452  1.00  0.00    -0.353 OA
HETATM   22  C13 UNL     1      25.062  -0.789  56.721  1.00  0.00     0.210 C 
ENDBRANCH  18  21
BRANCH  19  23
HETATM   23  O2  UNL     1      26.179  -0.123  53.398  1.00  0.00    -0.346 OA
BRANCH  23  24
HETATM   24  C15 UNL     1      26.856   0.818  52.612  1.00  0.00     0.201 C 
BRANCH  24  25
HETATM   25  C16 UNL     1      27.462   1.921  53.479  1.00  0.00     0.193 C 
BRANCH  25  26
HETATM   26  O3  UNL     1      28.035   1.304  54.575  1.00  0.00    -0.394 OA
HETATM   27  C17 UNL     1      29.349   0.897  54.302  1.00  0.00     0.201 C 
ENDBRANCH  25  26
ENDBRANCH  24  25
ENDBRANCH  23  24
ENDBRANCH  19  23
ENDBRANCH   9  11
ENDBRANCH   7   9
TORSDOF 7
ENDMDL
MODEL 7
REMARK VINA RESULT:      -7.2      8.444     11.193
REMARK  7 active torsions:
REMARK  status: ('A' for Active; 'I' for Inactive)
REMARK    1  A    between atoms: C7_7  and  N1_8 
REMARK    2  A    between atoms: N1_8  and  C8_9 
REMARK    3  A    between atoms: C12_15  and  O1_16 
REMARK    4  A    between atoms: C14_18  and  O2_19 
REMARK    5  A    between atoms: O2_19  and  C15_20 
REMARK    6  A    between atoms: C15_20  and  C16_21 
REMARK    7  A    between atoms: C16_21  and  O3_22 
ROOT
HETATM    1  C1  UNL     1      33.443   5.051  42.458  1.00  0.00     0.018 C 
HETATM    2  C2  UNL     1      33.594   4.753  43.631  1.00  0.00    -0.078 C 
HETATM    3  C3  UNL     1      33.790   4.390  45.010  1.00  0.00     0.019 A 
HETATM    4  C4  UNL     1      34.936   3.711  45.424  1.00  0.00     0.021 A 
HETATM    5  C5  UNL     1      35.113   3.365  46.768  1.00  0.00     0.004 A 
HETATM    6  C6  UNL     1      34.130   3.706  47.696  1.00  0.00     0.029 A 
HETATM    7  C7  UNL     1      32.983   4.379  47.313  1.00  0.00     0.035 A 
HETATM    8  C20 UNL     1      32.832   4.712  45.966  1.00  0.00     0.050 A 
ENDROOT
BRANCH   7   9
HETATM    9  N1  UNL     1      31.987   4.725  48.257  1.00  0.00    -0.340 N 
HETATM   10  H5  UNL     1      31.529   3.972  48.813  1.00  0.00     0.167 HD
BRANCH   9  11
HETATM   11  C8  UNL     1      31.622   6.070  48.439  1.00  0.00     0.142 A 
HETATM   12  N2  UNL     1      32.669   6.931  48.574  1.00  0.00    -0.224 NA
HETATM   13  C9  UNL     1      32.508   8.258  48.758  1.00  0.00     0.236 A 
HETATM   14  N3  UNL     1      31.265   8.768  48.813  1.00  0.00    -0.241 NA
HETATM   15  C10 UNL     1      30.185   7.977  48.689  1.00  0.00     0.075 A 
HETATM   16  C11 UNL     1      28.886   8.437  48.737  1.00  0.00     0.072 A 
HETATM   17  C19 UNL     1      30.363   6.622  48.501  1.00  0.00     0.042 A 
HETATM   18  C12 UNL     1      27.832   7.551  48.601  1.00  0.00     0.103 A 
HETATM   19  C14 UNL     1      28.038   6.199  48.414  1.00  0.00     0.103 A 
HETATM   20  C18 UNL     1      29.337   5.706  48.360  1.00  0.00     0.057 A 
BRANCH  18  21
HETATM   21  O1  UNL     1      26.547   8.060  48.658  1.00  0.00    -0.353 OA
HETATM   22  C13 UNL     1      26.056   8.605  49.869  1.00  0.00     0.210 C 
ENDBRANCH  18  21
BRANCH  19  23
HETATM   23  O2  UNL     1      26.909   5.405  48.290  1.00  0.00    -0.346 OA
BRANCH  23  24
HETATM   24  C15 UNL     1      26.229   4.937  49.421  1.00  0.00     0.201 C 
BRANCH  24  25
HETATM   25  C16 UNL     1      26.369   3.421  49.555  1.00  0.00     0.193 C 
BRANCH  25  26
HETATM   26  O3  UNL     1      27.068   3.182  50.724  1.00  0.00    -0.394 OA
HETATM   27  C17 UNL     1      26.591   2.036  51.377  1.00  0.00     0.201 C 
ENDBRANCH  25  26
ENDBRANCH  24  25
ENDBRANCH  23  24
ENDBRANCH  19  23
ENDBRANCH   9  11
ENDBRANCH   7   9
TORSDOF 7
ENDMDL
MODEL 8
REMARK VINA RESULT:      -7.2      1.749      2.671
REMARK  7 active torsions:
REMARK  status: ('A' for Active; 'I' for Inactive)
REMARK    1  A    between atoms: C7_7  and  N1_8 
REMARK    2  A    between atoms: N1_8  and  C8_9 
REMARK    3  A    between atoms: C12_15  and  O1_16 
REMARK    4  A    between atoms: C14_18  and  O2_19 
REMARK    5  A    between atoms: O2_19  and  C15_20 
REMARK    6  A    between atoms: C15_20  and  C16_21 
REMARK    7  A    between atoms: C16_21  and  O3_22 
ROOT
HETATM    1  C1  UNL     1      26.588   3.963  49.556  1.00  0.00     0.018 C 
HETATM    2  C2  UNL     1      26.661   3.179  50.488  1.00  0.00    -0.078 C 
HETATM    3  C3  UNL     1      26.764   2.264  51.594  1.00  0.00     0.019 A 
HETATM    4  C4  UNL     1      27.692   2.467  52.617  1.00  0.00     0.021 A 
HETATM    5  C5  UNL     1      27.780   1.570  53.686  1.00  0.00     0.004 A 
HETATM    6  C6  UNL     1      26.931   0.464  53.723  1.00  0.00     0.029 A 
HETATM    7  C7  UNL     1      26.003   0.239  52.721  1.00  0.00     0.035 A 
HETATM    8  C20 UNL     1      25.935   1.149  51.666  1.00  0.00     0.050 A 
ENDROOT
BRANCH   7   9
HETATM    9  N1  UNL     1      25.141  -0.884  52.761  1.00  0.00    -0.340 N 
HETATM   10  H5  UNL     1      25.368  -1.721  52.183  1.00  0.00     0.167 HD
BRANCH   9  11
HETATM   11  C8  UNL     1      23.993  -0.866  53.571  1.00  0.00     0.142 A 
HETATM   12  N2  UNL     1      24.195  -1.276  54.855  1.00  0.00    -0.224 NA
HETATM   13  C9  UNL     1      23.208  -1.324  55.773  1.00  0.00     0.236 A 
HETATM   14  N3  UNL     1      21.964  -0.955  55.421  1.00  0.00    -0.241 NA
HETATM   15  C10 UNL     1      21.691  -0.541  54.171  1.00  0.00     0.075 A 
HETATM   16  C11 UNL     1      20.439  -0.151  53.747  1.00  0.00     0.072 A 
HETATM   17  C19 UNL     1      22.709  -0.495  53.242  1.00  0.00     0.042 A 
HETATM   18  C12 UNL     1      20.246   0.261  52.441  1.00  0.00     0.103 A 
HETATM   19  C14 UNL     1      21.283   0.298  51.530  1.00  0.00     0.103 A 
HETATM   20  C18 UNL     1      22.558  -0.089  51.929  1.00  0.00     0.057 A 
BRANCH  18  21
HETATM   21  O1  UNL     1      18.971   0.642  52.063  1.00  0.00    -0.353 OA
HETATM   22  C13 UNL     1      18.019  -0.341  51.699  1.00  0.00     0.210 C 
ENDBRANCH  18  21
BRANCH  19  23
HETATM   23  O2  UNL     1      20.976   0.727  50.249  1.00  0.00    -0.346 OA
BRANCH  23  24
HETATM   24  C15 UNL     1      21.878   1.506  49.514  1.00  0.00     0.201 C 
BRANCH  24  25
HETATM   25  C16 UNL     1      21.849   2.961  49.980  1.00  0.00     0.193 C 
BRANCH  25  26
HETATM   26  O3  UNL     1      23.112   3.258  50.455  1.00  0.00    -0.394 OA
HETATM   27  C17 UNL     1      23.076   3.615  51.811  1.00  0.00     0.201 C 
ENDBRANCH  25  26
ENDBRANCH  24  25
ENDBRANCH  23  24
ENDBRANCH  19  23
ENDBRANCH   9  11
ENDBRANCH   7   9
TORSDOF 7
ENDMDL
MODEL 9
REMARK VINA RESULT:      -7.1      4.008      6.430
REMARK  7 active torsions:
REMARK  status: ('A' for Active; 'I' for Inactive)
REMARK    1  A    between atoms: C7_7  and  N1_8 
REMARK    2  A    between atoms: N1_8  and  C8_9 
REMARK    3  A    between atoms: C12_15  and  O1_16 
REMARK    4  A    between atoms: C14_18  and  O2_19 
REMARK    5  A    between atoms: O2_19  and  C15_20 
REMARK    6  A    between atoms: C15_20  and  C16_21 
REMARK    7  A    between atoms: C16_21  and  O3_22 
ROOT
HETATM    1  C1  UNL     1      27.276   8.539  49.670  1.00  0.00     0.018 C 
HETATM    2  C2  UNL     1      26.349   7.791  49.932  1.00  0.00    -0.078 C 
HETATM    3  C3  UNL     1      25.245   6.924  50.251  1.00  0.00     0.019 A 
HETATM    4  C4  UNL     1      24.084   7.421  50.845  1.00  0.00     0.021 A 
HETATM    5  C5  UNL     1      23.018   6.567  51.149  1.00  0.00     0.004 A 
HETATM    6  C6  UNL     1      23.125   5.209  50.853  1.00  0.00     0.029 A 
HETATM    7  C7  UNL     1      24.265   4.690  50.264  1.00  0.00     0.035 A 
HETATM    8  C20 UNL     1      25.313   5.563  49.972  1.00  0.00     0.050 A 
ENDROOT
BRANCH   7   9
HETATM    9  N1  UNL     1      24.371   3.311  49.964  1.00  0.00    -0.340 N 
HETATM   10  H5  UNL     1      25.266   2.941  49.577  1.00  0.00     0.167 HD
BRANCH   9  11
HETATM   11  C8  UNL     1      23.281   2.452  50.185  1.00  0.00     0.142 A 
HETATM   12  N2  UNL     1      22.272   2.567  49.277  1.00  0.00    -0.224 NA
HETATM   13  C9  UNL     1      21.147   1.824  49.332  1.00  0.00     0.236 A 
HETATM   14  N3  UNL     1      21.001   0.926  50.322  1.00  0.00    -0.241 NA
HETATM   15  C10 UNL     1      21.956   0.760  51.254  1.00  0.00     0.075 A 
HETATM   16  C11 UNL     1      21.866  -0.142  52.293  1.00  0.00     0.072 A 
HETATM   17  C19 UNL     1      23.101   1.525  51.186  1.00  0.00     0.042 A 
HETATM   18  C12 UNL     1      22.897  -0.247  53.210  1.00  0.00     0.103 A 
HETATM   19  C14 UNL     1      24.034   0.532  53.118  1.00  0.00     0.103 A 
HETATM   20  C18 UNL     1      24.152   1.449  52.080  1.00  0.00     0.057 A 
BRANCH  18  21
HETATM   21  O1  UNL     1      22.760  -1.165  54.235  1.00  0.00    -0.353 OA
HETATM   22  C13 UNL     1      21.476  -1.650  54.582  1.00  0.00     0.210 C 
ENDBRANCH  18  21
BRANCH  19  23
HETATM   23  O2  UNL     1      25.002   0.342  54.091  1.00  0.00    -0.346 OA
BRANCH  23  24
HETATM   24  C15 UNL     1      26.227  -0.262  53.782  1.00  0.00     0.201 C 
BRANCH  24  25
HETATM   25  C16 UNL     1      27.365   0.368  54.583  1.00  0.00     0.193 C 
BRANCH  25  26
HETATM   26  O3  UNL     1      27.297   1.733  54.376  1.00  0.00    -0.394 OA
HETATM   27  C17 UNL     1      28.016   2.112  53.233  1.00  0.00     0.201 C 
ENDBRANCH  25  26
ENDBRANCH  24  25
ENDBRANCH  23  24
ENDBRANCH  19  23
ENDBRANCH   9  11
ENDBRANCH   7   9
TORSDOF 7
ENDMDL
