MODEL 1
REMARK VINA RESULT:      -8.1      0.000      0.000
REMARK  7 active torsions:
REMARK  status: ('A' for Active; 'I' for Inactive)
REMARK    1  A    between atoms: O1_1  and  C1_2 
REMARK    2  A    between atoms: C1_2  and  C2_3 
REMARK    3  A    between atoms: C2_3  and  N1_4 
REMARK    4  A    between atoms: C2_3  and  C18_23 
REMARK    5  A    between atoms: N1_4  and  C3_5 
REMARK    6  A    between atoms: C6_10  and  C7_11 
REMARK    7  A    between atoms: C7_11  and  C12_17 
ROOT
HETATM    1  C3  UNL     1      22.462   3.087  50.254  1.00  0.00     0.138 A 
HETATM    2  N2  UNL     1      22.055   3.482  49.047  1.00  0.00    -0.224 NA
HETATM    3  C4  UNL     1      21.500   2.715  48.110  1.00  0.00     0.234 A 
HETATM    4  N3  UNL     1      21.356   1.428  48.456  1.00  0.00    -0.253 NA
HETATM    5  C5  UNL     1      21.744   0.958  49.654  1.00  0.00     0.134 A 
HETATM    6  C6  UNL     1      22.315   1.761  50.609  1.00  0.00     0.041 A 
ENDROOT
BRANCH   1   7
HETATM    7  N1  UNL     1      22.946   4.187  51.011  1.00  0.00    -0.363 N 
HETATM    8  H5  UNL     1      22.317   4.230  51.869  1.00  0.00     0.162 HD
BRANCH   7   9
HETATM    9  C2  UNL     1      23.895   5.243  51.048  1.00  0.00     0.140 C 
BRANCH   9  10
HETATM   10  C1  UNL     1      23.231   6.586  50.845  1.00  0.00     0.194 C 
BRANCH  10  11
HETATM   11  O1  UNL     1      22.068   6.576  51.607  1.00  0.00    -0.399 OA
HETATM   12  H1  UNL     1      21.312   6.340  51.017  1.00  0.00     0.209 HD
ENDBRANCH  10  11
ENDBRANCH   9  10
BRANCH   9  13
HETATM   13  C18 UNL     1      25.104   5.088  50.238  1.00  0.00    -0.034 A 
HETATM   14  C19 UNL     1      25.539   6.260  49.604  1.00  0.00     0.009 A 
HETATM   15  C20 UNL     1      26.673   6.298  48.824  1.00  0.00     0.001 A 
HETATM   16  C21 UNL     1      27.442   5.155  48.630  1.00  0.00     0.000 A 
HETATM   17  C22 UNL     1      27.042   3.991  49.237  1.00  0.00     0.001 A 
HETATM   18  C23 UNL     1      25.903   3.996  50.011  1.00  0.00     0.009 A 
ENDBRANCH   9  13
ENDBRANCH   7   9
ENDBRANCH   1   7
BRANCH   6  19
HETATM   19  C7  UNL     1      22.835   1.366  51.912  1.00  0.00     0.023 C 
HETATM   20  C8  UNL     1      21.966   0.717  52.718  1.00  0.00     0.081 A 
HETATM   21  C9  UNL     1      22.250   0.228  54.057  1.00  0.00     0.036 A 
HETATM   22  O2  UNL     1      20.636   0.373  52.474  1.00  0.00    -0.347 OA
HETATM   23  C10 UNL     1      21.213  -0.363  54.600  1.00  0.00     0.002 A 
HETATM   24  C11 UNL     1      20.131  -0.291  53.593  1.00  0.00     0.203 A 
BRANCH  19  25
HETATM   25  C12 UNL     1      24.203   1.574  52.365  1.00  0.00    -0.022 A 
HETATM   26  C13 UNL     1      24.737   2.407  53.318  1.00  0.00     0.012 A 
HETATM   27  C14 UNL     1      26.081   2.493  53.588  1.00  0.00     0.001 A 
HETATM   28  C15 UNL     1      26.976   1.713  52.879  1.00  0.00     0.000 A 
HETATM   29  C16 UNL     1      26.462   0.854  51.901  1.00  0.00     0.001 A 
HETATM   30  C17 UNL     1      25.105   0.782  51.643  1.00  0.00     0.012 A 
ENDBRANCH  19  25
ENDBRANCH   6  19
TORSDOF 7
ENDMDL
MODEL 2
REMARK VINA RESULT:      -7.9      2.485      4.592
REMARK  7 active torsions:
REMARK  status: ('A' for Active; 'I' for Inactive)
REMARK    1  A    between atoms: O1_1  and  C1_2 
REMARK    2  A    between atoms: C1_2  and  C2_3 
REMARK    3  A    between atoms: C2_3  and  N1_4 
REMARK    4  A    between atoms: C2_3  and  C18_23 
REMARK    5  A    between atoms: N1_4  and  C3_5 
REMARK    6  A    between atoms: C6_10  and  C7_11 
REMARK    7  A    between atoms: C7_11  and  C12_17 
ROOT
HETATM    1  C3  UNL     1      26.031   2.331  51.853  1.00  0.00     0.138 A 
HETATM    2  N2  UNL     1      27.355   2.404  51.992  1.00  0.00    -0.224 NA
HETATM    3  C4  UNL     1      28.038   2.276  53.128  1.00  0.00     0.234 A 
HETATM    4  N3  UNL     1      27.282   2.052  54.212  1.00  0.00    -0.253 NA
HETATM    5  C5  UNL     1      25.942   1.967  54.148  1.00  0.00     0.134 A 
HETATM    6  C6  UNL     1      25.252   2.103  52.971  1.00  0.00     0.041 A 
ENDROOT
BRANCH   1   7
HETATM    7  N1  UNL     1      25.656   2.451  50.488  1.00  0.00    -0.363 N 
HETATM    8  H5  UNL     1      25.466   1.455  50.164  1.00  0.00     0.162 HD
BRANCH   7   9
HETATM    9  C2  UNL     1      25.476   3.359  49.410  1.00  0.00     0.140 C 
BRANCH   9  10
HETATM   10  C1  UNL     1      26.175   4.672  49.675  1.00  0.00     0.194 C 
BRANCH  10  11
HETATM   11  O1  UNL     1      27.540   4.427  49.580  1.00  0.00    -0.399 OA
HETATM   12  H1  UNL     1      28.023   5.227  49.898  1.00  0.00     0.209 HD
ENDBRANCH  10  11
ENDBRANCH   9  10
BRANCH   9  13
HETATM   13  C18 UNL     1      24.116   3.540  48.904  1.00  0.00    -0.034 A 
HETATM   14  C19 UNL     1      23.781   4.863  48.586  1.00  0.00     0.009 A 
HETATM   15  C20 UNL     1      22.549   5.208  48.075  1.00  0.00     0.001 A 
HETATM   16  C21 UNL     1      21.574   4.240  47.853  1.00  0.00     0.000 A 
HETATM   17  C22 UNL     1      21.872   2.936  48.155  1.00  0.00     0.001 A 
HETATM   18  C23 UNL     1      23.115   2.632  48.663  1.00  0.00     0.009 A 
ENDBRANCH   9  13
ENDBRANCH   7   9
ENDBRANCH   1   7
BRANCH   6  19
HETATM   19  C7  UNL     1      23.807   2.097  52.777  1.00  0.00     0.023 C 
HETATM   20  C8  UNL     1      23.184   0.930  53.050  1.00  0.00     0.081 A 
HETATM   21  C9  UNL     1      21.757   0.679  52.932  1.00  0.00     0.036 A 
HETATM   22  O2  UNL     1      23.734  -0.274  53.491  1.00  0.00    -0.347 OA
HETATM   23  C10 UNL     1      21.440  -0.549  53.265  1.00  0.00     0.002 A 
HETATM   24  C11 UNL     1      22.709  -1.209  53.640  1.00  0.00     0.203 A 
BRANCH  19  25
HETATM   25  C12 UNL     1      23.013   3.248  52.371  1.00  0.00    -0.022 A 
HETATM   26  C13 UNL     1      21.742   3.351  51.860  1.00  0.00     0.012 A 
HETATM   27  C14 UNL     1      21.162   4.542  51.495  1.00  0.00     0.001 A 
HETATM   28  C15 UNL     1      21.867   5.723  51.639  1.00  0.00     0.000 A 
HETATM   29  C16 UNL     1      23.166   5.649  52.158  1.00  0.00     0.001 A 
HETATM   30  C17 UNL     1      23.733   4.441  52.518  1.00  0.00     0.012 A 
ENDBRANCH  19  25
ENDBRANCH   6  19
TORSDOF 7
ENDMDL
MODEL 3
REMARK VINA RESULT:      -7.9      2.464      5.053
REMARK  7 active torsions:
REMARK  status: ('A' for Active; 'I' for Inactive)
REMARK    1  A    between atoms: O1_1  and  C1_2 
REMARK    2  A    between atoms: C1_2  and  C2_3 
REMARK    3  A    between atoms: C2_3  and  N1_4 
REMARK    4  A    between atoms: C2_3  and  C18_23 
REMARK    5  A    between atoms: N1_4  and  C3_5 
REMARK    6  A    between atoms: C6_10  and  C7_11 
REMARK    7  A    between atoms: C7_11  and  C12_17 
ROOT
HETATM    1  C3  UNL     1      26.205   2.412  51.813  1.00  0.00     0.138 A 
HETATM    2  N2  UNL     1      27.531   2.449  51.945  1.00  0.00    -0.224 NA
HETATM    3  C4  UNL     1      28.216   2.305  53.078  1.00  0.00     0.234 A 
HETATM    4  N3  UNL     1      27.460   2.104  54.166  1.00  0.00    -0.253 NA
HETATM    5  C5  UNL     1      26.118   2.056  54.109  1.00  0.00     0.134 A 
HETATM    6  C6  UNL     1      25.426   2.208  52.935  1.00  0.00     0.041 A 
ENDROOT
BRANCH   1   7
HETATM    7  N1  UNL     1      25.827   2.540  50.450  1.00  0.00    -0.363 N 
HETATM    8  H5  UNL     1      25.702   1.541  50.102  1.00  0.00     0.162 HD
BRANCH   7   9
HETATM    9  C2  UNL     1      25.592   3.458  49.392  1.00  0.00     0.140 C 
BRANCH   9  10
HETATM   10  C1  UNL     1      26.335   4.755  49.615  1.00  0.00     0.194 C 
BRANCH  10  11
HETATM   11  O1  UNL     1      27.687   4.474  49.457  1.00  0.00    -0.399 OA
HETATM   12  H1  UNL     1      28.162   5.322  49.274  1.00  0.00     0.209 HD
ENDBRANCH  10  11
ENDBRANCH   9  10
BRANCH   9  13
HETATM   13  C18 UNL     1      24.204   3.671  48.983  1.00  0.00    -0.034 A 
HETATM   14  C19 UNL     1      23.401   2.522  49.017  1.00  0.00     0.009 A 
HETATM   15  C20 UNL     1      22.064   2.548  48.686  1.00  0.00     0.001 A 
HETATM   16  C21 UNL     1      21.449   3.735  48.298  1.00  0.00     0.000 A 
HETATM   17  C22 UNL     1      22.209   4.876  48.255  1.00  0.00     0.001 A 
HETATM   18  C23 UNL     1      23.541   4.809  48.594  1.00  0.00     0.009 A 
ENDBRANCH   9  13
ENDBRANCH   7   9
ENDBRANCH   1   7
BRANCH   6  19
HETATM   19  C7  UNL     1      23.980   2.242  52.749  1.00  0.00     0.023 C 
HETATM   20  C8  UNL     1      23.453   3.454  52.468  1.00  0.00     0.081 A 
HETATM   21  C9  UNL     1      22.045   3.739  52.244  1.00  0.00     0.036 A 
HETATM   22  O2  UNL     1      24.103   4.681  52.332  1.00  0.00    -0.347 OA
HETATM   23  C10 UNL     1      21.830   5.007  51.992  1.00  0.00     0.002 A 
HETATM   24  C11 UNL     1      23.155   5.662  52.039  1.00  0.00     0.203 A 
BRANCH  19  25
HETATM   25  C12 UNL     1      23.104   1.080  52.794  1.00  0.00    -0.022 A 
HETATM   26  C13 UNL     1      22.084   0.667  51.972  1.00  0.00     0.012 A 
HETATM   27  C14 UNL     1      21.332  -0.460  52.198  1.00  0.00     0.001 A 
HETATM   28  C15 UNL     1      21.589  -1.248  53.305  1.00  0.00     0.000 A 
HETATM   29  C16 UNL     1      22.624  -0.853  54.162  1.00  0.00     0.001 A 
HETATM   30  C17 UNL     1      23.369   0.286  53.918  1.00  0.00     0.012 A 
ENDBRANCH  19  25
ENDBRANCH   6  19
TORSDOF 7
ENDMDL
MODEL 4
REMARK VINA RESULT:      -7.8      6.015      9.590
REMARK  7 active torsions:
REMARK  status: ('A' for Active; 'I' for Inactive)
REMARK    1  A    between atoms: O1_1  and  C1_2 
REMARK    2  A    between atoms: C1_2  and  C2_3 
REMARK    3  A    between atoms: C2_3  and  N1_4 
REMARK    4  A    between atoms: C2_3  and  C18_23 
REMARK    5  A    between atoms: N1_4  and  C3_5 
REMARK    6  A    between atoms: C6_10  and  C7_11 
REMARK    7  A    between atoms: C7_11  and  C12_17 
ROOT
HETATM    1  C3  UNL     1      30.837   7.367  49.017  1.00  0.00     0.138 A 
HETATM    2  N2  UNL     1      32.045   7.099  49.512  1.00  0.00    -0.224 NA
HETATM    3  C4  UNL     1      32.907   6.196  49.047  1.00  0.00     0.234 A 
HETATM    4  N3  UNL     1      32.478   5.515  47.976  1.00  0.00    -0.253 NA
HETATM    5  C5  UNL     1      31.272   5.732  47.422  1.00  0.00     0.134 A 
HETATM    6  C6  UNL     1      30.394   6.664  47.914  1.00  0.00     0.041 A 
ENDROOT
BRANCH   1   7
HETATM    7  N1  UNL     1      30.222   8.433  49.727  1.00  0.00    -0.363 N 
HETATM    8  H5  UNL     1      30.189   8.108  50.740  1.00  0.00     0.162 HD
BRANCH   7   9
HETATM    9  C2  UNL     1      29.620   9.714  49.605  1.00  0.00     0.140 C 
BRANCH   9  10
HETATM   10  C1  UNL     1      28.117   9.630  49.747  1.00  0.00     0.194 C 
BRANCH  10  11
HETATM   11  O1  UNL     1      27.845   9.600  51.110  1.00  0.00    -0.399 OA
HETATM   12  H1  UNL     1      28.679   9.803  51.598  1.00  0.00     0.209 HD
ENDBRANCH  10  11
ENDBRANCH   9  10
BRANCH   9  13
HETATM   13  C18 UNL     1      30.030  10.544  48.472  1.00  0.00    -0.034 A 
HETATM   14  C19 UNL     1      28.987  11.245  47.852  1.00  0.00     0.009 A 
HETATM   15  C20 UNL     1      29.200  12.090  46.786  1.00  0.00     0.001 A 
HETATM   16  C21 UNL     1      30.480  12.284  46.275  1.00  0.00     0.000 A 
HETATM   17  C22 UNL     1      31.522  11.611  46.861  1.00  0.00     0.001 A 
HETATM   18  C23 UNL     1      31.267  10.776  47.925  1.00  0.00     0.009 A 
ENDBRANCH   9  13
ENDBRANCH   7   9
ENDBRANCH   1   7
BRANCH   6  19
HETATM   19  C7  UNL     1      29.042   6.948  47.450  1.00  0.00     0.023 C 
HETATM   20  C8  UNL     1      28.949   7.773  46.385  1.00  0.00     0.081 A 
HETATM   21  C9  UNL     1      27.715   8.202  45.746  1.00  0.00     0.036 A 
HETATM   22  O2  UNL     1      29.971   8.394  45.666  1.00  0.00    -0.347 OA
HETATM   23  C10 UNL     1      27.935   9.005  44.732  1.00  0.00     0.002 A 
HETATM   24  C11 UNL     1      29.403   9.156  44.644  1.00  0.00     0.203 A 
BRANCH  19  25
HETATM   25  C12 UNL     1      27.828   6.375  48.013  1.00  0.00    -0.022 A 
HETATM   26  C13 UNL     1      26.567   6.891  48.191  1.00  0.00     0.012 A 
HETATM   27  C14 UNL     1      25.537   6.201  48.784  1.00  0.00     0.001 A 
HETATM   28  C15 UNL     1      25.746   4.912  49.238  1.00  0.00     0.000 A 
HETATM   29  C16 UNL     1      27.021   4.358  49.070  1.00  0.00     0.001 A 
HETATM   30  C17 UNL     1      28.044   5.069  48.472  1.00  0.00     0.012 A 
ENDBRANCH  19  25
ENDBRANCH   6  19
TORSDOF 7
ENDMDL
MODEL 5
REMARK VINA RESULT:      -7.7      2.342      5.097
REMARK  7 active torsions:
REMARK  status: ('A' for Active; 'I' for Inactive)
REMARK    1  A    between atoms: O1_1  and  C1_2 
REMARK    2  A    between atoms: C1_2  and  C2_3 
REMARK    3  A    between atoms: C2_3  and  N1_4 
REMARK    4  A    between atoms: C2_3  and  C18_23 
REMARK    5  A    between atoms: N1_4  and  C3_5 
REMARK    6  A    between atoms: C6_10  and  C7_11 
REMARK    7  A    between atoms: C7_11  and  C12_17 
ROOT
HETATM    1  C3  UNL     1      25.209   4.992  50.057  1.00  0.00     0.138 A 
HETATM    2  N2  UNL     1      26.000   5.945  49.563  1.00  0.00    -0.224 NA
HETATM    3  C4  UNL     1      27.151   5.761  48.920  1.00  0.00     0.234 A 
HETATM    4  N3  UNL     1      27.512   4.479  48.777  1.00  0.00    -0.253 NA
HETATM    5  C5  UNL     1      26.766   3.465  49.250  1.00  0.00     0.134 A 
HETATM    6  C6  UNL     1      25.582   3.671  49.913  1.00  0.00     0.041 A 
ENDROOT
BRANCH   1   7
HETATM    7  N1  UNL     1      24.032   5.552  50.623  1.00  0.00    -0.363 N 
HETATM    8  H5  UNL     1      24.182   5.508  51.675  1.00  0.00     0.162 HD
BRANCH   7   9
HETATM    9  C2  UNL     1      22.753   6.099  50.334  1.00  0.00     0.140 C 
BRANCH   9  10
HETATM   10  C1  UNL     1      22.625   7.508  50.866  1.00  0.00     0.194 C 
BRANCH  10  11
HETATM   11  O1  UNL     1      23.869   7.856  51.381  1.00  0.00    -0.399 OA
HETATM   12  H1  UNL     1      23.735   8.536  52.085  1.00  0.00     0.209 HD
ENDBRANCH  10  11
ENDBRANCH   9  10
BRANCH   9  13
HETATM   13  C18 UNL     1      21.585   5.274  50.644  1.00  0.00    -0.034 A 
HETATM   14  C19 UNL     1      21.655   4.596  51.869  1.00  0.00     0.009 A 
HETATM   15  C20 UNL     1      20.632   3.796  52.326  1.00  0.00     0.001 A 
HETATM   16  C21 UNL     1      19.471   3.626  51.578  1.00  0.00     0.000 A 
HETATM   17  C22 UNL     1      19.372   4.277  50.375  1.00  0.00     0.001 A 
HETATM   18  C23 UNL     1      20.417   5.069  49.953  1.00  0.00     0.009 A 
ENDBRANCH   9  13
ENDBRANCH   7   9
ENDBRANCH   1   7
BRANCH   6  19
HETATM   19  C7  UNL     1      24.718   2.670  50.527  1.00  0.00     0.023 C 
HETATM   20  C8  UNL     1      25.132   2.193  51.721  1.00  0.00     0.081 A 
HETATM   21  C9  UNL     1      24.444   1.193  52.523  1.00  0.00     0.036 A 
HETATM   22  O2  UNL     1      26.275   2.525  52.449  1.00  0.00    -0.347 OA
HETATM   23  C10 UNL     1      25.082   0.925  53.637  1.00  0.00     0.002 A 
HETATM   24  C11 UNL     1      26.290   1.779  53.629  1.00  0.00     0.203 A 
BRANCH  19  25
HETATM   25  C12 UNL     1      23.453   2.207  49.976  1.00  0.00    -0.022 A 
HETATM   26  C13 UNL     1      22.487   1.367  50.476  1.00  0.00     0.012 A 
HETATM   27  C14 UNL     1      21.355   1.010  49.785  1.00  0.00     0.001 A 
HETATM   28  C15 UNL     1      21.142   1.506  48.512  1.00  0.00     0.000 A 
HETATM   29  C16 UNL     1      22.109   2.364  47.975  1.00  0.00     0.001 A 
HETATM   30  C17 UNL     1      23.243   2.711  48.686  1.00  0.00     0.012 A 
ENDBRANCH  19  25
ENDBRANCH   6  19
TORSDOF 7
ENDMDL
MODEL 6
REMARK VINA RESULT:      -7.6      2.484      4.760
REMARK  7 active torsions:
REMARK  status: ('A' for Active; 'I' for Inactive)
REMARK    1  A    between atoms: O1_1  and  C1_2 
REMARK    2  A    between atoms: C1_2  and  C2_3 
REMARK    3  A    between atoms: C2_3  and  N1_4 
REMARK    4  A    between atoms: C2_3  and  C18_23 
REMARK    5  A    between atoms: N1_4  and  C3_5 
REMARK    6  A    between atoms: C6_10  and  C7_11 
REMARK    7  A    between atoms: C7_11  and  C12_17 
ROOT
HETATM    1  C3  UNL     1      25.371   5.445  49.882  1.00  0.00     0.138 A 
HETATM    2  N2  UNL     1      26.052   6.480  49.389  1.00  0.00    -0.224 NA
HETATM    3  C4  UNL     1      27.197   6.421  48.711  1.00  0.00     0.234 A 
HETATM    4  N3  UNL     1      27.675   5.183  48.529  1.00  0.00    -0.253 NA
HETATM    5  C5  UNL     1      27.043   4.093  48.999  1.00  0.00     0.134 A 
HETATM    6  C6  UNL     1      25.865   4.169  49.697  1.00  0.00     0.041 A 
ENDROOT
BRANCH   1   7
HETATM    7  N1  UNL     1      24.163   5.877  50.491  1.00  0.00    -0.363 N 
HETATM    8  H5  UNL     1      24.316   5.744  51.536  1.00  0.00     0.162 HD
BRANCH   7   9
HETATM    9  C2  UNL     1      22.852   6.370  50.249  1.00  0.00     0.140 C 
BRANCH   9  10
HETATM   10  C1  UNL     1      22.695   7.784  50.758  1.00  0.00     0.194 C 
BRANCH  10  11
HETATM   11  O1  UNL     1      23.912   8.144  51.325  1.00  0.00    -0.399 OA
HETATM   12  H1  UNL     1      24.235   8.961  50.875  1.00  0.00     0.209 HD
ENDBRANCH  10  11
ENDBRANCH   9  10
BRANCH   9  13
HETATM   13  C18 UNL     1      21.731   5.510  50.626  1.00  0.00    -0.034 A 
HETATM   14  C19 UNL     1      21.940   4.749  51.784  1.00  0.00     0.009 A 
HETATM   15  C20 UNL     1      20.979   3.904  52.294  1.00  0.00     0.001 A 
HETATM   16  C21 UNL     1      19.744   3.771  51.667  1.00  0.00     0.000 A 
HETATM   17  C22 UNL     1      19.509   4.502  50.531  1.00  0.00     0.001 A 
HETATM   18  C23 UNL     1      20.495   5.336  50.055  1.00  0.00     0.009 A 
ENDBRANCH   9  13
ENDBRANCH   7   9
ENDBRANCH   1   7
BRANCH   6  19
HETATM   19  C7  UNL     1      25.120   3.078  50.311  1.00  0.00     0.023 C 
HETATM   20  C8  UNL     1      23.959   2.747  49.705  1.00  0.00     0.081 A 
HETATM   21  C9  UNL     1      23.045   1.699  50.130  1.00  0.00     0.036 A 
HETATM   22  O2  UNL     1      23.373   3.308  48.569  1.00  0.00    -0.347 OA
HETATM   23  C10 UNL     1      21.997   1.606  49.347  1.00  0.00     0.002 A 
HETATM   24  C11 UNL     1      22.173   2.644  48.308  1.00  0.00     0.203 A 
BRANCH  19  25
HETATM   25  C12 UNL     1      25.559   2.314  51.470  1.00  0.00    -0.022 A 
HETATM   26  C13 UNL     1      26.355   1.200  51.586  1.00  0.00     0.012 A 
HETATM   27  C14 UNL     1      26.637   0.585  52.783  1.00  0.00     0.001 A 
HETATM   28  C15 UNL     1      26.106   1.090  53.955  1.00  0.00     0.000 A 
HETATM   29  C16 UNL     1      25.290   2.225  53.869  1.00  0.00     0.001 A 
HETATM   30  C17 UNL     1      25.018   2.828  52.655  1.00  0.00     0.012 A 
ENDBRANCH  19  25
ENDBRANCH   6  19
TORSDOF 7
ENDMDL
MODEL 7
REMARK VINA RESULT:      -7.5      2.512      5.054
REMARK  7 active torsions:
REMARK  status: ('A' for Active; 'I' for Inactive)
REMARK    1  A    between atoms: O1_1  and  C1_2 
REMARK    2  A    between atoms: C1_2  and  C2_3 
REMARK    3  A    between atoms: C2_3  and  N1_4 
REMARK    4  A    between atoms: C2_3  and  C18_23 
REMARK    5  A    between atoms: N1_4  and  C3_5 
REMARK    6  A    between atoms: C6_10  and  C7_11 
REMARK    7  A    between atoms: C7_11  and  C12_17 
ROOT
HETATM    1  C3  UNL     1      22.971   2.534  51.403  1.00  0.00     0.138 A 
HETATM    2  N2  UNL     1      22.609   3.716  50.904  1.00  0.00    -0.224 NA
HETATM    3  C4  UNL     1      22.855   4.909  51.442  1.00  0.00     0.234 A 
HETATM    4  N3  UNL     1      23.534   4.872  52.596  1.00  0.00    -0.253 NA
HETATM    5  C5  UNL     1      23.931   3.717  53.159  1.00  0.00     0.134 A 
HETATM    6  C6  UNL     1      23.669   2.495  52.593  1.00  0.00     0.041 A 
ENDROOT
BRANCH   1   7
HETATM    7  N1  UNL     1      22.596   1.478  50.529  1.00  0.00    -0.363 N 
HETATM    8  H5  UNL     1      23.454   0.851  50.468  1.00  0.00     0.162 HD
BRANCH   7   9
HETATM    9  C2  UNL     1      21.559   0.969  49.702  1.00  0.00     0.140 C 
BRANCH   9  10
HETATM   10  C1  UNL     1      21.814   1.282  48.246  1.00  0.00     0.194 C 
BRANCH  10  11
HETATM   11  O1  UNL     1      22.586   2.438  48.214  1.00  0.00    -0.399 OA
HETATM   12  H1  UNL     1      22.835   2.619  47.275  1.00  0.00     0.209 HD
ENDBRANCH  10  11
ENDBRANCH   9  10
BRANCH   9  13
HETATM   13  C18 UNL     1      20.181   1.251  50.103  1.00  0.00    -0.034 A 
HETATM   14  C19 UNL     1      19.616   0.300  50.965  1.00  0.00     0.009 A 
HETATM   15  C20 UNL     1      18.336   0.423  51.458  1.00  0.00     0.001 A 
HETATM   16  C21 UNL     1      17.541   1.513  51.114  1.00  0.00     0.000 A 
HETATM   17  C22 UNL     1      18.066   2.460  50.272  1.00  0.00     0.001 A 
HETATM   18  C23 UNL     1      19.350   2.301  49.802  1.00  0.00     0.009 A 
ENDBRANCH   9  13
ENDBRANCH   7   9
ENDBRANCH   1   7
BRANCH   6  19
HETATM   19  C7  UNL     1      23.984   1.177  53.131  1.00  0.00     0.023 C 
HETATM   20  C8  UNL     1      22.937   0.478  53.621  1.00  0.00     0.081 A 
HETATM   21  C9  UNL     1      23.000  -0.851  54.208  1.00  0.00     0.036 A 
HETATM   22  O2  UNL     1      21.592   0.845  53.685  1.00  0.00    -0.347 OA
HETATM   23  C10 UNL     1      21.822  -1.277  54.598  1.00  0.00     0.002 A 
HETATM   24  C11 UNL     1      20.869  -0.194  54.272  1.00  0.00     0.203 A 
BRANCH  19  25
HETATM   25  C12 UNL     1      25.305   0.566  53.125  1.00  0.00    -0.022 A 
HETATM   26  C13 UNL     1      25.904  -0.318  52.260  1.00  0.00     0.012 A 
HETATM   27  C14 UNL     1      27.169  -0.821  52.440  1.00  0.00     0.001 A 
HETATM   28  C15 UNL     1      27.912  -0.437  53.541  1.00  0.00     0.000 A 
HETATM   29  C16 UNL     1      27.328   0.463  54.441  1.00  0.00     0.001 A 
HETATM   30  C17 UNL     1      26.053   0.958  54.243  1.00  0.00     0.012 A 
ENDBRANCH  19  25
ENDBRANCH   6  19
TORSDOF 7
ENDMDL
MODEL 8
REMARK VINA RESULT:      -7.5      1.755      5.202
REMARK  7 active torsions:
REMARK  status: ('A' for Active; 'I' for Inactive)
REMARK    1  A    between atoms: O1_1  and  C1_2 
REMARK    2  A    between atoms: C1_2  and  C2_3 
REMARK    3  A    between atoms: C2_3  and  N1_4 
REMARK    4  A    between atoms: C2_3  and  C18_23 
REMARK    5  A    between atoms: N1_4  and  C3_5 
REMARK    6  A    between atoms: C6_10  and  C7_11 
REMARK    7  A    between atoms: C7_11  and  C12_17 
ROOT
HETATM    1  C3  UNL     1      21.952   3.312  48.047  1.00  0.00     0.138 A 
HETATM    2  N2  UNL     1      21.049   3.063  47.099  1.00  0.00    -0.224 NA
HETATM    3  C4  UNL     1      20.642   3.909  46.154  1.00  0.00     0.234 A 
HETATM    4  N3  UNL     1      21.223   5.116  46.197  1.00  0.00    -0.253 NA
HETATM    5  C5  UNL     1      22.140   5.439  47.126  1.00  0.00     0.134 A 
HETATM    6  C6  UNL     1      22.548   4.557  48.094  1.00  0.00     0.041 A 
ENDROOT
BRANCH   1   7
HETATM    7  N1  UNL     1      22.184   2.159  48.843  1.00  0.00    -0.363 N 
HETATM    8  H5  UNL     1      23.150   1.815  48.557  1.00  0.00     0.162 HD
BRANCH   7   9
HETATM    9  C2  UNL     1      21.626   1.290  49.819  1.00  0.00     0.140 C 
BRANCH   9  10
HETATM   10  C1  UNL     1      20.200   1.672  50.142  1.00  0.00     0.194 C 
BRANCH  10  11
HETATM   11  O1  UNL     1      19.423   1.272  49.060  1.00  0.00    -0.399 OA
HETATM   12  H1  UNL     1      19.493   0.291  48.973  1.00  0.00     0.209 HD
ENDBRANCH  10  11
ENDBRANCH   9  10
BRANCH   9  13
HETATM   13  C18 UNL     1      22.422   1.028  51.018  1.00  0.00    -0.034 A 
HETATM   14  C19 UNL     1      21.815   0.172  51.947  1.00  0.00     0.009 A 
HETATM   15  C20 UNL     1      22.434  -0.200  53.120  1.00  0.00     0.001 A 
HETATM   16  C21 UNL     1      23.707   0.269  53.433  1.00  0.00     0.000 A 
HETATM   17  C22 UNL     1      24.327   1.109  52.543  1.00  0.00     0.001 A 
HETATM   18  C23 UNL     1      23.674   1.455  51.381  1.00  0.00     0.009 A 
ENDBRANCH   9  13
ENDBRANCH   7   9
ENDBRANCH   1   7
BRANCH   6  19
HETATM   19  C7  UNL     1      23.479   4.802  49.189  1.00  0.00     0.023 C 
HETATM   20  C8  UNL     1      22.940   4.803  50.427  1.00  0.00     0.081 A 
HETATM   21  C9  UNL     1      23.662   5.024  51.670  1.00  0.00     0.036 A 
HETATM   22  O2  UNL     1      21.611   4.603  50.805  1.00  0.00    -0.347 OA
HETATM   23  C10 UNL     1      22.876   4.968  52.718  1.00  0.00     0.002 A 
HETATM   24  C11 UNL     1      21.520   4.692  52.194  1.00  0.00     0.203 A 
BRANCH  19  25
HETATM   25  C12 UNL     1      24.915   4.988  49.039  1.00  0.00    -0.022 A 
HETATM   26  C13 UNL     1      25.665   6.075  48.660  1.00  0.00     0.012 A 
HETATM   27  C14 UNL     1      27.034   6.052  48.540  1.00  0.00     0.001 A 
HETATM   28  C15 UNL     1      27.728   4.888  48.809  1.00  0.00     0.000 A 
HETATM   29  C16 UNL     1      26.991   3.762  49.198  1.00  0.00     0.001 A 
HETATM   30  C17 UNL     1      25.614   3.805  49.313  1.00  0.00     0.012 A 
ENDBRANCH  19  25
ENDBRANCH   6  19
TORSDOF 7
ENDMDL
MODEL 9
REMARK VINA RESULT:      -7.4      2.603      5.848
REMARK  7 active torsions:
REMARK  status: ('A' for Active; 'I' for Inactive)
REMARK    1  A    between atoms: O1_1  and  C1_2 
REMARK    2  A    between atoms: C1_2  and  C2_3 
REMARK    3  A    between atoms: C2_3  and  N1_4 
REMARK    4  A    between atoms: C2_3  and  C18_23 
REMARK    5  A    between atoms: N1_4  and  C3_5 
REMARK    6  A    between atoms: C6_10  and  C7_11 
REMARK    7  A    between atoms: C7_11  and  C12_17 
ROOT
HETATM    1  C3  UNL     1      23.198   2.791  51.321  1.00  0.00     0.138 A 
HETATM    2  N2  UNL     1      22.989   4.064  50.982  1.00  0.00    -0.224 NA
HETATM    3  C4  UNL     1      23.292   5.136  51.712  1.00  0.00     0.234 A 
HETATM    4  N3  UNL     1      23.861   4.863  52.894  1.00  0.00    -0.253 NA
HETATM    5  C5  UNL     1      24.101   3.605  53.303  1.00  0.00     0.134 A 
HETATM    6  C6  UNL     1      23.782   2.511  52.540  1.00  0.00     0.041 A 
ENDROOT
BRANCH   1   7
HETATM    7  N1  UNL     1      22.809   1.916  50.272  1.00  0.00    -0.363 N 
HETATM    8  H5  UNL     1      23.719   1.614  49.811  1.00  0.00     0.162 HD
BRANCH   7   9
HETATM    9  C2  UNL     1      21.703   1.332  49.598  1.00  0.00     0.140 C 
BRANCH   9  10
HETATM   10  C1  UNL     1      21.653   1.762  48.150  1.00  0.00     0.194 C 
BRANCH  10  11
HETATM   11  O1  UNL     1      22.625   2.743  47.989  1.00  0.00    -0.399 OA
HETATM   12  H1  UNL     1      22.946   2.713  47.055  1.00  0.00     0.209 HD
ENDBRANCH  10  11
ENDBRANCH   9  10
BRANCH   9  13
HETATM   13  C18 UNL     1      20.397   1.416  50.253  1.00  0.00    -0.034 A 
HETATM   14  C19 UNL     1      19.818   0.178  50.563  1.00  0.00     0.009 A 
HETATM   15  C20 UNL     1      18.602   0.073  51.202  1.00  0.00     0.001 A 
HETATM   16  C21 UNL     1      17.891   1.211  51.569  1.00  0.00     0.000 A 
HETATM   17  C22 UNL     1      18.432   2.438  51.279  1.00  0.00     0.001 A 
HETATM   18  C23 UNL     1      19.650   2.500  50.641  1.00  0.00     0.009 A 
ENDBRANCH   9  13
ENDBRANCH   7   9
ENDBRANCH   1   7
BRANCH   6  19
HETATM   19  C7  UNL     1      23.930   1.104  52.893  1.00  0.00     0.023 C 
HETATM   20  C8  UNL     1      25.189   0.617  52.847  1.00  0.00     0.081 A 
HETATM   21  C9  UNL     1      25.586  -0.748  53.153  1.00  0.00     0.036 A 
HETATM   22  O2  UNL     1      26.371   1.277  52.509  1.00  0.00    -0.347 OA
HETATM   23  C10 UNL     1      26.878  -0.930  53.023  1.00  0.00     0.002 A 
HETATM   24  C11 UNL     1      27.432   0.375  52.603  1.00  0.00     0.203 A 
BRANCH  19  25
HETATM   25  C12 UNL     1      22.847   0.233  53.325  1.00  0.00    -0.022 A 
HETATM   26  C13 UNL     1      22.720  -1.135  53.342  1.00  0.00     0.012 A 
HETATM   27  C14 UNL     1      21.588  -1.792  53.761  1.00  0.00     0.001 A 
HETATM   28  C15 UNL     1      20.496  -1.066  54.199  1.00  0.00     0.000 A 
HETATM   29  C16 UNL     1      20.595   0.331  54.194  1.00  0.00     0.001 A 
HETATM   30  C17 UNL     1      21.742   0.973  53.768  1.00  0.00     0.012 A 
ENDBRANCH  19  25
ENDBRANCH   6  19
TORSDOF 7
ENDMDL
