MODEL 1
REMARK VINA RESULT:      -7.0      0.000      0.000
REMARK  6 active torsions:
REMARK  status: ('A' for Active; 'I' for Inactive)
REMARK    1  A    between atoms: C6_9  and  C7_10 
REMARK    2  A    between atoms: C8_11  and  N3_12 
REMARK       I    between atoms: N3_12  and  C9_13 
REMARK    3  A    between atoms: C9_13  and  C10_15 
REMARK    4  A    between atoms: C11_16  and  C12_17 
REMARK    5  A    between atoms: C12_17  and  N4_18 
REMARK    6  A    between atoms: C15_21  and  O3_22 
ROOT
HETATM    1  N1  UNL     1      23.964   9.476  47.424  1.00  0.00    -0.192 NA
HETATM    2  C1  UNL     1      25.050   9.197  47.756  1.00  0.00     0.097 C 
HETATM    3  C2  UNL     1      26.389   8.838  48.144  1.00  0.00     0.049 C 
HETATM    4  C3  UNL     1      26.893   9.755  48.950  1.00  0.00     0.137 C 
HETATM    5  N2  UNL     1      28.213   9.663  49.496  1.00  0.00    -0.248 NA
HETATM    6  C4  UNL     1      29.233   8.997  49.044  1.00  0.00     0.250 C 
HETATM    7  O1  UNL     1      29.224   8.221  47.904  1.00  0.00    -0.344 OA
HETATM    8  C5  UNL     1      28.270   7.808  46.977  1.00  0.00     0.190 C 
HETATM    9  C6  UNL     1      26.895   7.581  47.585  1.00  0.00     0.079 C 
ENDROOT
BRANCH   9  10
HETATM   10  C7  UNL     1      26.954   6.500  48.607  1.00  0.00     0.002 C 
HETATM   11  C8  UNL     1      27.288   5.225  48.691  1.00  0.00     0.088 C 
BRANCH  11  12
HETATM   12  N3  UNL     1      27.326   4.240  49.684  1.00  0.00    -0.334 N 
HETATM   13  C9  UNL     1      26.212   3.427  49.990  1.00  0.00     0.244 C 
HETATM   14  O2  UNL     1      25.113   3.513  49.411  1.00  0.00    -0.268 OA
HETATM   15  H8  UNL     1      28.220   4.152  50.176  1.00  0.00     0.168 HD
BRANCH  13  16
HETATM   16  C10 UNL     1      26.289   2.412  51.023  1.00  0.00     0.072 C 
HETATM   17  C11 UNL     1      25.361   1.724  51.641  1.00  0.00    -0.002 C 
BRANCH  17  18
HETATM   18  C12 UNL     1      25.116   0.700  52.655  1.00  0.00     0.144 C 
BRANCH  18  19
HETATM   19  N4  UNL     1      26.239  -0.009  53.142  1.00  0.00    -0.409 N 
HETATM   20  C13 UNL     1      26.524   0.082  54.533  1.00  0.00     0.119 C 
HETATM   21  C14 UNL     1      28.036   0.339  54.638  1.00  0.00     0.051 C 
HETATM   22  C15 UNL     1      28.694  -0.393  53.509  1.00  0.00     0.121 C 
HETATM   23  C16 UNL     1      27.950  -1.629  53.055  1.00  0.00     0.051 C 
HETATM   24  C17 UNL     1      26.561  -1.248  52.521  1.00  0.00     0.119 C 
BRANCH  22  25
HETATM   25  O3  UNL     1      29.990  -0.790  53.841  1.00  0.00    -0.395 OA
HETATM   26  H18 UNL     1      30.660  -0.381  53.235  1.00  0.00     0.210 HD
ENDBRANCH  22  25
ENDBRANCH  18  19
ENDBRANCH  17  18
ENDBRANCH  13  16
ENDBRANCH  11  12
ENDBRANCH   9  10
TORSDOF 6
ENDMDL
MODEL 2
REMARK VINA RESULT:      -7.0      2.446      3.039
REMARK  6 active torsions:
REMARK  status: ('A' for Active; 'I' for Inactive)
REMARK    1  A    between atoms: C6_9  and  C7_10 
REMARK    2  A    between atoms: C8_11  and  N3_12 
REMARK       I    between atoms: N3_12  and  C9_13 
REMARK    3  A    between atoms: C9_13  and  C10_15 
REMARK    4  A    between atoms: C11_16  and  C12_17 
REMARK    5  A    between atoms: C12_17  and  N4_18 
REMARK    6  A    between atoms: C15_21  and  O3_22 
ROOT
HETATM    1  N1  UNL     1      29.040   9.551  46.777  1.00  0.00    -0.192 NA
HETATM    2  C1  UNL     1      29.574   8.678  47.343  1.00  0.00     0.097 C 
HETATM    3  C2  UNL     1      30.229   7.590  48.020  1.00  0.00     0.049 C 
HETATM    4  C3  UNL     1      30.948   8.044  49.031  1.00  0.00     0.137 C 
HETATM    5  N2  UNL     1      31.711   7.187  49.885  1.00  0.00    -0.248 NA
HETATM    6  C4  UNL     1      32.171   5.997  49.638  1.00  0.00     0.250 C 
HETATM    7  O1  UNL     1      31.996   5.316  48.451  1.00  0.00    -0.344 OA
HETATM    8  C5  UNL     1      31.294   5.525  47.267  1.00  0.00     0.190 C 
HETATM    9  C6  UNL     1      29.975   6.256  47.467  1.00  0.00     0.079 C 
ENDROOT
BRANCH   9  10
HETATM   10  C7  UNL     1      29.067   5.457  48.335  1.00  0.00     0.002 C 
HETATM   11  C8  UNL     1      27.777   5.350  48.597  1.00  0.00     0.088 C 
BRANCH  11  12
HETATM   12  N3  UNL     1      26.963   4.576  49.431  1.00  0.00    -0.334 N 
HETATM   13  C9  UNL     1      25.558   4.731  49.477  1.00  0.00     0.244 C 
HETATM   14  O2  UNL     1      24.931   5.558  48.790  1.00  0.00    -0.268 OA
HETATM   15  H8  UNL     1      27.457   3.889  50.008  1.00  0.00     0.168 HD
BRANCH  13  16
HETATM   16  C10 UNL     1      24.745   3.907  50.351  1.00  0.00     0.072 C 
HETATM   17  C11 UNL     1      24.865   2.661  50.737  1.00  0.00    -0.002 C 
BRANCH  17  18
HETATM   18  C12 UNL     1      24.266   1.605  51.550  1.00  0.00     0.144 C 
BRANCH  18  19
HETATM   19  N4  UNL     1      24.986   1.183  52.692  1.00  0.00    -0.409 N 
HETATM   20  C13 UNL     1      25.591   2.186  53.500  1.00  0.00     0.119 C 
HETATM   21  C14 UNL     1      27.016   1.691  53.791  1.00  0.00     0.051 C 
HETATM   22  C15 UNL     1      26.960   0.198  53.894  1.00  0.00     0.121 C 
HETATM   23  C16 UNL     1      25.631  -0.340  54.374  1.00  0.00     0.051 C 
HETATM   24  C17 UNL     1      24.517   0.029  53.381  1.00  0.00     0.119 C 
BRANCH  22  25
HETATM   25  O3  UNL     1      27.940  -0.295  54.756  1.00  0.00    -0.395 OA
HETATM   26  H18 UNL     1      28.399   0.439  55.240  1.00  0.00     0.210 HD
ENDBRANCH  22  25
ENDBRANCH  18  19
ENDBRANCH  17  18
ENDBRANCH  13  16
ENDBRANCH  11  12
ENDBRANCH   9  10
TORSDOF 6
ENDMDL
MODEL 3
REMARK VINA RESULT:      -6.9      1.966      2.478
REMARK  6 active torsions:
REMARK  status: ('A' for Active; 'I' for Inactive)
REMARK    1  A    between atoms: C6_9  and  C7_10 
REMARK    2  A    between atoms: C8_11  and  N3_12 
REMARK       I    between atoms: N3_12  and  C9_13 
REMARK    3  A    between atoms: C9_13  and  C10_15 
REMARK    4  A    between atoms: C11_16  and  C12_17 
REMARK    5  A    between atoms: C12_17  and  N4_18 
REMARK    6  A    between atoms: C15_21  and  O3_22 
ROOT
HETATM    1  N1  UNL     1      27.782  11.211  49.036  1.00  0.00    -0.192 NA
HETATM    2  C1  UNL     1      28.523  10.319  48.890  1.00  0.00     0.097 C 
HETATM    3  C2  UNL     1      29.425   9.216  48.688  1.00  0.00     0.049 C 
HETATM    4  C3  UNL     1      30.526   9.388  49.397  1.00  0.00     0.137 C 
HETATM    5  N2  UNL     1      31.604   8.447  49.393  1.00  0.00    -0.248 NA
HETATM    6  C4  UNL     1      31.907   7.565  48.488  1.00  0.00     0.250 C 
HETATM    7  O1  UNL     1      31.209   7.369  47.315  1.00  0.00    -0.344 OA
HETATM    8  C5  UNL     1      30.037   7.865  46.748  1.00  0.00     0.190 C 
HETATM    9  C6  UNL     1      28.954   8.173  47.771  1.00  0.00     0.079 C 
ENDROOT
BRANCH   9  10
HETATM   10  C7  UNL     1      28.557   6.934  48.493  1.00  0.00     0.002 C 
HETATM   11  C8  UNL     1      27.910   5.807  48.257  1.00  0.00     0.088 C 
BRANCH  11  12
HETATM   12  N3  UNL     1      27.557   4.660  48.976  1.00  0.00    -0.334 N 
HETATM   13  C9  UNL     1      26.232   4.407  49.400  1.00  0.00     0.244 C 
HETATM   14  O2  UNL     1      25.276   5.172  49.175  1.00  0.00    -0.268 OA
HETATM   15  H8  UNL     1      28.327   4.016  49.176  1.00  0.00     0.168 HD
BRANCH  13  16
HETATM   16  C10 UNL     1      25.902   3.204  50.140  1.00  0.00     0.072 C 
HETATM   17  C11 UNL     1      24.794   2.812  50.718  1.00  0.00    -0.002 C 
BRANCH  17  18
HETATM   18  C12 UNL     1      24.169   1.738  51.488  1.00  0.00     0.144 C 
BRANCH  18  19
HETATM   19  N4  UNL     1      24.887   1.237  52.599  1.00  0.00    -0.409 N 
HETATM   20  C13 UNL     1      25.469   2.181  53.490  1.00  0.00     0.119 C 
HETATM   21  C14 UNL     1      26.900   1.688  53.753  1.00  0.00     0.051 C 
HETATM   22  C15 UNL     1      26.869   0.191  53.734  1.00  0.00     0.121 C 
HETATM   23  C16 UNL     1      25.546  -0.406  54.158  1.00  0.00     0.051 C 
HETATM   24  C17 UNL     1      24.433   0.024  53.188  1.00  0.00     0.119 C 
BRANCH  22  25
HETATM   25  O3  UNL     1      27.851  -0.354  54.563  1.00  0.00    -0.395 OA
HETATM   26  H18 UNL     1      27.577  -1.240  54.914  1.00  0.00     0.210 HD
ENDBRANCH  22  25
ENDBRANCH  18  19
ENDBRANCH  17  18
ENDBRANCH  13  16
ENDBRANCH  11  12
ENDBRANCH   9  10
TORSDOF 6
ENDMDL
MODEL 4
REMARK VINA RESULT:      -6.8      1.895      2.429
REMARK  6 active torsions:
REMARK  status: ('A' for Active; 'I' for Inactive)
REMARK    1  A    between atoms: C6_9  and  C7_10 
REMARK    2  A    between atoms: C8_11  and  N3_12 
REMARK       I    between atoms: N3_12  and  C9_13 
REMARK    3  A    between atoms: C9_13  and  C10_15 
REMARK    4  A    between atoms: C11_16  and  C12_17 
REMARK    5  A    between atoms: C12_17  and  N4_18 
REMARK    6  A    between atoms: C15_21  and  O3_22 
ROOT
HETATM    1  N1  UNL     1      27.615   8.693  44.347  1.00  0.00    -0.192 NA
HETATM    2  C1  UNL     1      28.148   8.683  45.387  1.00  0.00     0.097 C 
HETATM    3  C2  UNL     1      28.821   8.654  46.660  1.00  0.00     0.049 C 
HETATM    4  C3  UNL     1      28.551   9.749  47.346  1.00  0.00     0.137 C 
HETATM    5  N2  UNL     1      29.084   9.996  48.651  1.00  0.00    -0.248 NA
HETATM    6  C4  UNL     1      30.151   9.496  49.198  1.00  0.00     0.250 C 
HETATM    7  O1  UNL     1      30.999   8.593  48.591  1.00  0.00    -0.344 OA
HETATM    8  C5  UNL     1      31.018   7.882  47.393  1.00  0.00     0.190 C 
HETATM    9  C6  UNL     1      29.636   7.462  46.917  1.00  0.00     0.079 C 
ENDROOT
BRANCH   9  10
HETATM   10  C7  UNL     1      28.999   6.556  47.912  1.00  0.00     0.002 C 
HETATM   11  C8  UNL     1      27.789   6.181  48.287  1.00  0.00     0.088 C 
BRANCH  11  12
HETATM   12  N3  UNL     1      27.234   5.318  49.238  1.00  0.00    -0.334 N 
HETATM   13  C9  UNL     1      25.839   5.143  49.382  1.00  0.00     0.244 C 
HETATM   14  O2  UNL     1      24.992   5.733  48.684  1.00  0.00    -0.268 OA
HETATM   15  H8  UNL     1      27.911   4.823  49.825  1.00  0.00     0.168 HD
BRANCH  13  16
HETATM   16  C10 UNL     1      25.298   4.236  50.376  1.00  0.00     0.072 C 
HETATM   17  C11 UNL     1      25.622   3.010  50.707  1.00  0.00    -0.002 C 
BRANCH  17  18
HETATM   18  C12 UNL     1      25.306   1.896  51.597  1.00  0.00     0.144 C 
BRANCH  18  19
HETATM   19  N4  UNL     1      26.386   1.281  52.272  1.00  0.00    -0.409 N 
HETATM   20  C13 UNL     1      26.643  -0.091  51.997  1.00  0.00     0.119 C 
HETATM   21  C14 UNL     1      26.856  -0.762  53.363  1.00  0.00     0.051 C 
HETATM   22  C15 UNL     1      27.522   0.239  54.255  1.00  0.00     0.121 C 
HETATM   23  C16 UNL     1      28.384   1.243  53.524  1.00  0.00     0.051 C 
HETATM   24  C17 UNL     1      27.526   2.081  52.563  1.00  0.00     0.119 C 
BRANCH  22  25
HETATM   25  O3  UNL     1      28.330  -0.381  55.209  1.00  0.00    -0.395 OA
HETATM   26  H18 UNL     1      29.262  -0.483  54.884  1.00  0.00     0.210 HD
ENDBRANCH  22  25
ENDBRANCH  18  19
ENDBRANCH  17  18
ENDBRANCH  13  16
ENDBRANCH  11  12
ENDBRANCH   9  10
TORSDOF 6
ENDMDL
MODEL 5
REMARK VINA RESULT:      -6.8      4.277      8.229
REMARK  6 active torsions:
REMARK  status: ('A' for Active; 'I' for Inactive)
REMARK    1  A    between atoms: C6_9  and  C7_10 
REMARK    2  A    between atoms: C8_11  and  N3_12 
REMARK       I    between atoms: N3_12  and  C9_13 
REMARK    3  A    between atoms: C9_13  and  C10_15 
REMARK    4  A    between atoms: C11_16  and  C12_17 
REMARK    5  A    between atoms: C12_17  and  N4_18 
REMARK    6  A    between atoms: C15_21  and  O3_22 
ROOT
HETATM    1  N1  UNL     1      21.466   1.195  48.545  1.00  0.00    -0.192 NA
HETATM    2  C1  UNL     1      22.142   1.701  49.353  1.00  0.00     0.097 C 
HETATM    3  C2  UNL     1      22.970   2.347  50.339  1.00  0.00     0.049 C 
HETATM    4  C3  UNL     1      23.109   1.572  51.399  1.00  0.00     0.137 C 
HETATM    5  N2  UNL     1      23.881   1.955  52.541  1.00  0.00    -0.248 NA
HETATM    6  C4  UNL     1      24.204   3.150  52.938  1.00  0.00     0.250 C 
HETATM    7  O1  UNL     1      23.844   4.316  52.296  1.00  0.00    -0.344 OA
HETATM    8  C5  UNL     1      23.191   4.652  51.112  1.00  0.00     0.190 C 
HETATM    9  C6  UNL     1      23.463   3.679  49.975  1.00  0.00     0.079 C 
ENDROOT
BRANCH   9  10
HETATM   10  C7  UNL     1      24.914   3.664  49.643  1.00  0.00     0.002 C 
HETATM   11  C8  UNL     1      25.922   4.511  49.543  1.00  0.00     0.088 C 
BRANCH  11  12
HETATM   12  N3  UNL     1      27.283   4.450  49.223  1.00  0.00    -0.334 N 
HETATM   13  C9  UNL     1      27.934   5.457  48.475  1.00  0.00     0.244 C 
HETATM   14  O2  UNL     1      27.361   6.473  48.039  1.00  0.00    -0.268 OA
HETATM   15  H8  UNL     1      27.775   3.621  49.569  1.00  0.00     0.168 HD
BRANCH  13  16
HETATM   16  C10 UNL     1      29.348   5.362  48.166  1.00  0.00     0.072 C 
HETATM   17  C11 UNL     1      30.374   6.081  48.548  1.00  0.00    -0.002 C 
BRANCH  17  18
HETATM   18  C12 UNL     1      31.822   6.242  48.433  1.00  0.00     0.144 C 
BRANCH  18  19
HETATM   19  N4  UNL     1      32.473   5.522  47.404  1.00  0.00    -0.409 N 
HETATM   20  C13 UNL     1      32.506   4.104  47.510  1.00  0.00     0.119 C 
HETATM   21  C14 UNL     1      33.952   3.691  47.191  1.00  0.00     0.051 C 
HETATM   22  C15 UNL     1      34.475   4.648  46.165  1.00  0.00     0.121 C 
HETATM   23  C16 UNL     1      33.412   5.229  45.261  1.00  0.00     0.051 C 
HETATM   24  C17 UNL     1      32.402   6.045  46.083  1.00  0.00     0.119 C 
BRANCH  22  25
HETATM   25  O3  UNL     1      35.432   4.049  45.345  1.00  0.00    -0.395 OA
HETATM   26  H18 UNL     1      35.034   3.331  44.789  1.00  0.00     0.210 HD
ENDBRANCH  22  25
ENDBRANCH  18  19
ENDBRANCH  17  18
ENDBRANCH  13  16
ENDBRANCH  11  12
ENDBRANCH   9  10
TORSDOF 6
ENDMDL
MODEL 6
REMARK VINA RESULT:      -6.6      3.813      8.317
REMARK  6 active torsions:
REMARK  status: ('A' for Active; 'I' for Inactive)
REMARK    1  A    between atoms: C6_9  and  C7_10 
REMARK    2  A    between atoms: C8_11  and  N3_12 
REMARK       I    between atoms: N3_12  and  C9_13 
REMARK    3  A    between atoms: C9_13  and  C10_15 
REMARK    4  A    between atoms: C11_16  and  C12_17 
REMARK    5  A    between atoms: C12_17  and  N4_18 
REMARK    6  A    between atoms: C15_21  and  O3_22 
ROOT
HETATM    1  N1  UNL     1      25.915   0.522  52.869  1.00  0.00    -0.192 NA
HETATM    2  C1  UNL     1      25.378   1.501  52.522  1.00  0.00     0.097 C 
HETATM    3  C2  UNL     1      24.712   2.695  52.071  1.00  0.00     0.049 C 
HETATM    4  C3  UNL     1      24.225   3.364  53.101  1.00  0.00     0.137 C 
HETATM    5  N2  UNL     1      23.511   4.596  52.955  1.00  0.00    -0.248 NA
HETATM    6  C4  UNL     1      22.877   5.047  51.914  1.00  0.00     0.250 C 
HETATM    7  O1  UNL     1      22.777   4.388  50.706  1.00  0.00    -0.344 OA
HETATM    8  C5  UNL     1      23.300   3.223  50.151  1.00  0.00     0.190 C 
HETATM    9  C6  UNL     1      24.713   2.911  50.621  1.00  0.00     0.079 C 
ENDROOT
BRANCH   9  10
HETATM   10  C7  UNL     1      25.644   4.001  50.220  1.00  0.00     0.002 C 
HETATM   11  C8  UNL     1      25.794   4.873  49.240  1.00  0.00     0.088 C 
BRANCH  11  12
HETATM   12  N3  UNL     1      26.696   5.888  48.902  1.00  0.00    -0.334 N 
HETATM   13  C9  UNL     1      28.018   5.620  48.479  1.00  0.00     0.244 C 
HETATM   14  O2  UNL     1      28.490   4.473  48.371  1.00  0.00    -0.268 OA
HETATM   15  H8  UNL     1      26.330   6.841  48.985  1.00  0.00     0.168 HD
BRANCH  13  16
HETATM   16  C10 UNL     1      28.924   6.698  48.132  1.00  0.00     0.072 C 
HETATM   17  C11 UNL     1      30.223   6.819  48.252  1.00  0.00    -0.002 C 
BRANCH  17  18
HETATM   18  C12 UNL     1      31.362   7.703  48.019  1.00  0.00     0.144 C 
BRANCH  18  19
HETATM   19  N4  UNL     1      32.650   7.120  48.046  1.00  0.00    -0.409 N 
HETATM   20  C13 UNL     1      32.882   5.992  47.211  1.00  0.00     0.119 C 
HETATM   21  C14 UNL     1      33.613   4.962  48.086  1.00  0.00     0.051 C 
HETATM   22  C15 UNL     1      34.486   5.721  49.037  1.00  0.00     0.121 C 
HETATM   23  C16 UNL     1      34.961   7.056  48.509  1.00  0.00     0.051 C 
HETATM   24  C17 UNL     1      33.763   7.983  48.248  1.00  0.00     0.119 C 
BRANCH  22  25
HETATM   25  O3  UNL     1      35.621   4.990  49.389  1.00  0.00    -0.395 OA
HETATM   26  H18 UNL     1      36.382   5.586  49.609  1.00  0.00     0.210 HD
ENDBRANCH  22  25
ENDBRANCH  18  19
ENDBRANCH  17  18
ENDBRANCH  13  16
ENDBRANCH  11  12
ENDBRANCH   9  10
TORSDOF 6
ENDMDL
MODEL 7
REMARK VINA RESULT:      -6.5      2.743      3.437
REMARK  6 active torsions:
REMARK  status: ('A' for Active; 'I' for Inactive)
REMARK    1  A    between atoms: C6_9  and  C7_10 
REMARK    2  A    between atoms: C8_11  and  N3_12 
REMARK       I    between atoms: N3_12  and  C9_13 
REMARK    3  A    between atoms: C9_13  and  C10_15 
REMARK    4  A    between atoms: C11_16  and  C12_17 
REMARK    5  A    between atoms: C12_17  and  N4_18 
REMARK    6  A    between atoms: C15_21  and  O3_22 
ROOT
HETATM    1  N1  UNL     1      26.655  10.593  46.574  1.00  0.00    -0.192 NA
HETATM    2  C1  UNL     1      27.588  10.075  47.052  1.00  0.00     0.097 C 
HETATM    3  C2  UNL     1      28.745   9.431  47.617  1.00  0.00     0.049 C 
HETATM    4  C3  UNL     1      29.023   9.945  48.801  1.00  0.00     0.137 C 
HETATM    5  N2  UNL     1      30.123   9.499  49.600  1.00  0.00    -0.248 NA
HETATM    6  C4  UNL     1      31.208   8.894  49.219  1.00  0.00     0.250 C 
HETATM    7  O1  UNL     1      31.505   8.556  47.915  1.00  0.00    -0.344 OA
HETATM    8  C5  UNL     1      30.850   8.614  46.688  1.00  0.00     0.190 C 
HETATM    9  C6  UNL     1      29.350   8.380  46.793  1.00  0.00     0.079 C 
ENDROOT
BRANCH   9  10
HETATM   10  C7  UNL     1      29.075   7.021  47.332  1.00  0.00     0.002 C 
HETATM   11  C8  UNL     1      28.406   6.458  48.322  1.00  0.00     0.088 C 
BRANCH  11  12
HETATM   12  N3  UNL     1      28.174   5.162  48.795  1.00  0.00    -0.334 N 
HETATM   13  C9  UNL     1      26.877   4.677  49.079  1.00  0.00     0.244 C 
HETATM   14  O2  UNL     1      25.840   5.352  48.936  1.00  0.00    -0.268 OA
HETATM   15  H8  UNL     1      29.013   4.588  48.923  1.00  0.00     0.168 HD
BRANCH  13  16
HETATM   16  C10 UNL     1      26.674   3.325  49.563  1.00  0.00     0.072 C 
HETATM   17  C11 UNL     1      26.527   2.845  50.773  1.00  0.00    -0.002 C 
BRANCH  17  18
HETATM   18  C12 UNL     1      26.319   1.626  51.552  1.00  0.00     0.144 C 
BRANCH  18  19
HETATM   19  N4  UNL     1      25.059   1.463  52.173  1.00  0.00    -0.409 N 
HETATM   20  C13 UNL     1      25.011   0.728  53.390  1.00  0.00     0.119 C 
HETATM   21  C14 UNL     1      23.826  -0.240  53.252  1.00  0.00     0.051 C 
HETATM   22  C15 UNL     1      22.775   0.451  52.440  1.00  0.00     0.121 C 
HETATM   23  C16 UNL     1      22.786   1.958  52.566  1.00  0.00     0.051 C 
HETATM   24  C17 UNL     1      24.119   2.525  52.052  1.00  0.00     0.119 C 
BRANCH  22  25
HETATM   25  O3  UNL     1      21.493   0.018  52.782  1.00  0.00    -0.395 OA
HETATM   26  H18 UNL     1      21.228   0.345  53.680  1.00  0.00     0.210 HD
ENDBRANCH  22  25
ENDBRANCH  18  19
ENDBRANCH  17  18
ENDBRANCH  13  16
ENDBRANCH  11  12
ENDBRANCH   9  10
TORSDOF 6
ENDMDL
MODEL 8
REMARK VINA RESULT:      -6.4      4.502      7.406
REMARK  6 active torsions:
REMARK  status: ('A' for Active; 'I' for Inactive)
REMARK    1  A    between atoms: C6_9  and  C7_10 
REMARK    2  A    between atoms: C8_11  and  N3_12 
REMARK       I    between atoms: N3_12  and  C9_13 
REMARK    3  A    between atoms: C9_13  and  C10_15 
REMARK    4  A    between atoms: C11_16  and  C12_17 
REMARK    5  A    between atoms: C12_17  and  N4_18 
REMARK    6  A    between atoms: C15_21  and  O3_22 
ROOT
HETATM    1  N1  UNL     1      21.741   4.568  46.551  1.00  0.00    -0.192 NA
HETATM    2  C1  UNL     1      22.318   4.544  47.568  1.00  0.00     0.097 C 
HETATM    3  C2  UNL     1      23.030   4.539  48.819  1.00  0.00     0.049 C 
HETATM    4  C3  UNL     1      22.778   3.428  49.486  1.00  0.00     0.137 C 
HETATM    5  N2  UNL     1      23.350   3.148  50.767  1.00  0.00    -0.248 NA
HETATM    6  C4  UNL     1      23.819   3.982  51.646  1.00  0.00     0.250 C 
HETATM    7  O1  UNL     1      23.852   5.352  51.491  1.00  0.00    -0.344 OA
HETATM    8  C5  UNL     1      23.551   6.256  50.475  1.00  0.00     0.190 C 
HETATM    9  C6  UNL     1      23.853   5.724  49.083  1.00  0.00     0.079 C 
ENDROOT
BRANCH   9  10
HETATM   10  C7  UNL     1      25.307   5.434  48.944  1.00  0.00     0.002 C 
HETATM   11  C8  UNL     1      26.464   6.057  49.076  1.00  0.00     0.088 C 
BRANCH  11  12
HETATM   12  N3  UNL     1      27.819   5.740  48.933  1.00  0.00    -0.334 N 
HETATM   13  C9  UNL     1      28.649   6.369  47.977  1.00  0.00     0.244 C 
HETATM   14  O2  UNL     1      28.253   7.248  47.189  1.00  0.00    -0.268 OA
HETATM   15  H8  UNL     1      28.168   5.017  49.569  1.00  0.00     0.168 HD
BRANCH  13  16
HETATM   16  C10 UNL     1      30.052   6.018  47.859  1.00  0.00     0.072 C 
HETATM   17  C11 UNL     1      30.985   6.419  47.032  1.00  0.00    -0.002 C 
BRANCH  17  18
HETATM   18  C12 UNL     1      32.393   6.277  46.668  1.00  0.00     0.144 C 
BRANCH  18  19
HETATM   19  N4  UNL     1      32.998   5.021  46.905  1.00  0.00    -0.409 N 
HETATM   20  C13 UNL     1      32.767   3.986  45.956  1.00  0.00     0.119 C 
HETATM   21  C14 UNL     1      32.428   2.731  46.774  1.00  0.00     0.051 C 
HETATM   22  C15 UNL     1      33.227   2.791  48.039  1.00  0.00     0.121 C 
HETATM   23  C16 UNL     1      34.534   3.540  47.911  1.00  0.00     0.051 C 
HETATM   24  C17 UNL     1      34.272   5.008  47.539  1.00  0.00     0.119 C 
BRANCH  22  25
HETATM   25  O3  UNL     1      33.528   1.515  48.518  1.00  0.00    -0.395 OA
HETATM   26  H18 UNL     1      34.230   1.079  47.969  1.00  0.00     0.210 HD
ENDBRANCH  22  25
ENDBRANCH  18  19
ENDBRANCH  17  18
ENDBRANCH  13  16
ENDBRANCH  11  12
ENDBRANCH   9  10
TORSDOF 6
ENDMDL
MODEL 9
REMARK VINA RESULT:      -6.2     10.057     12.582
REMARK  6 active torsions:
REMARK  status: ('A' for Active; 'I' for Inactive)
REMARK    1  A    between atoms: C6_9  and  C7_10 
REMARK    2  A    between atoms: C8_11  and  N3_12 
REMARK       I    between atoms: N3_12  and  C9_13 
REMARK    3  A    between atoms: C9_13  and  C10_15 
REMARK    4  A    between atoms: C11_16  and  C12_17 
REMARK    5  A    between atoms: C12_17  and  N4_18 
REMARK    6  A    between atoms: C15_21  and  O3_22 
ROOT
HETATM    1  N1  UNL     1      11.283   1.735  56.314  1.00  0.00    -0.192 NA
HETATM    2  C1  UNL     1      11.698   2.157  55.306  1.00  0.00     0.097 C 
HETATM    3  C2  UNL     1      12.200   2.658  54.052  1.00  0.00     0.049 C 
HETATM    4  C3  UNL     1      12.365   3.967  54.115  1.00  0.00     0.137 C 
HETATM    5  N2  UNL     1      12.853   4.739  53.014  1.00  0.00    -0.248 NA
HETATM    6  C4  UNL     1      12.826   4.451  51.747  1.00  0.00     0.250 C 
HETATM    7  O1  UNL     1      12.297   3.294  51.213  1.00  0.00    -0.344 OA
HETATM    8  C5  UNL     1      11.760   2.111  51.714  1.00  0.00     0.190 C 
HETATM    9  C6  UNL     1      12.413   1.651  53.009  1.00  0.00     0.079 C 
ENDROOT
BRANCH   9  10
HETATM   10  C7  UNL     1      13.859   1.374  52.789  1.00  0.00     0.002 C 
HETATM   11  C8  UNL     1      14.623   0.612  52.027  1.00  0.00     0.088 C 
BRANCH  11  12
HETATM   12  N3  UNL     1      15.992   0.383  51.855  1.00  0.00    -0.334 N 
HETATM   13  C9  UNL     1      16.582   0.233  50.579  1.00  0.00     0.244 C 
HETATM   14  O2  UNL     1      15.945   0.290  49.511  1.00  0.00    -0.268 OA
HETATM   15  H8  UNL     1      16.538   0.329  52.720  1.00  0.00     0.168 HD
BRANCH  13  16
HETATM   16  C10 UNL     1      18.007   0.001  50.438  1.00  0.00     0.072 C 
HETATM   17  C11 UNL     1      19.041   0.528  51.046  1.00  0.00    -0.002 C 
BRANCH  17  18
HETATM   18  C12 UNL     1      20.500   0.518  51.136  1.00  0.00     0.144 C 
BRANCH  18  19
HETATM   19  N4  UNL     1      21.067   0.278  52.409  1.00  0.00    -0.409 N 
HETATM   20  C13 UNL     1      22.472   0.448  52.549  1.00  0.00     0.119 C 
HETATM   21  C14 UNL     1      22.971  -0.781  53.325  1.00  0.00     0.051 C 
HETATM   22  C15 UNL     1      21.892  -1.170  54.288  1.00  0.00     0.121 C 
HETATM   23  C16 UNL     1      21.027  -0.018  54.749  1.00  0.00     0.051 C 
HETATM   24  C17 UNL     1      20.285   0.601  53.554  1.00  0.00     0.119 C 
BRANCH  22  25
HETATM   25  O3  UNL     1      22.417  -1.774  55.431  1.00  0.00    -0.395 OA
HETATM   26  H18 UNL     1      23.369  -2.020  55.306  1.00  0.00     0.210 HD
ENDBRANCH  22  25
ENDBRANCH  18  19
ENDBRANCH  17  18
ENDBRANCH  13  16
ENDBRANCH  11  12
ENDBRANCH   9  10
TORSDOF 6
ENDMDL
