MODEL 1
REMARK VINA RESULT:      -8.7      0.000      0.000
REMARK  2 active torsions:
REMARK  status: ('A' for Active; 'I' for Inactive)
REMARK    1  A    between atoms: N4_14  and  C11_15 
REMARK    2  A    between atoms: C11_15  and  C12_16 
ROOT
HETATM    1  C1  UNL     1      17.349  -0.878  52.784  1.00  0.00     0.016 C 
HETATM    2  C2  UNL     1      18.558  -0.454  52.504  1.00  0.00     0.020 C 
HETATM    3  C3  UNL     1      19.893   0.046  52.093  1.00  0.00     0.028 C 
HETATM    4  C4  UNL     1      20.757  -0.055  53.131  1.00  0.00     0.033 C 
HETATM    5  C5  UNL     1      22.159   0.234  53.393  1.00  0.00     0.054 C 
HETATM    6  C6  UNL     1      23.246   0.700  52.737  1.00  0.00     0.141 C 
HETATM    7  N1  UNL     1      23.883   1.200  51.508  1.00  0.00    -0.263 NA
HETATM    8  C7  UNL     1      23.034   1.644  50.624  1.00  0.00     0.073 C 
HETATM    9  C8  UNL     1      21.803   1.560  51.103  1.00  0.00     0.148 A 
HETATM   10  C9  UNL     1      22.114   2.697  51.935  1.00  0.00     0.031 A 
HETATM   11  N2  UNL     1      22.820   3.446  52.663  1.00  0.00    -0.248 NA
HETATM   12  C10 UNL     1      24.173   3.266  53.044  1.00  0.00     0.255 C 
HETATM   13  N3  UNL     1      25.021   2.311  53.407  1.00  0.00    -0.164 NA
HETATM   14  N4  UNL     1      24.445   0.993  53.448  1.00  0.00    -0.247 N 
HETATM   15  C18 UNL     1      20.681   2.767  51.775  1.00  0.00     0.085 A 
HETATM   16  C19 UNL     1      19.873   1.868  51.280  1.00  0.00     0.072 C 
HETATM   17  N5  UNL     1      19.862   0.571  50.735  1.00  0.00    -0.369 N 
HETATM   18  H17 UNL     1      19.842  -0.071  49.981  1.00  0.00     0.165 HD
ENDROOT
BRANCH  14  19
HETATM   19  C11 UNL     1      24.939  -0.135  54.154  1.00  0.00     0.191 C 
BRANCH  19  20
HETATM   20  C12 UNL     1      26.398  -0.348  53.990  1.00  0.00    -0.038 A 
HETATM   21  C13 UNL     1      26.821  -1.174  52.990  1.00  0.00     0.009 A 
HETATM   22  C14 UNL     1      28.165  -1.415  52.774  1.00  0.00     0.001 A 
HETATM   23  C15 UNL     1      29.107  -0.813  53.580  1.00  0.00     0.000 A 
HETATM   24  C16 UNL     1      28.661   0.028  54.596  1.00  0.00     0.001 A 
HETATM   25  C17 UNL     1      27.320   0.263  54.806  1.00  0.00     0.009 A 
ENDBRANCH  19  20
ENDBRANCH  14  19
TORSDOF 2
ENDMDL
MODEL 2
REMARK VINA RESULT:      -8.6      2.502      4.992
REMARK  2 active torsions:
REMARK  status: ('A' for Active; 'I' for Inactive)
REMARK    1  A    between atoms: N4_14  and  C11_15 
REMARK    2  A    between atoms: C11_15  and  C12_16 
ROOT
HETATM    1  C1  UNL     1      27.963   5.455  48.201  1.00  0.00     0.016 C 
HETATM    2  C2  UNL     1      27.093   4.989  49.065  1.00  0.00     0.020 C 
HETATM    3  C3  UNL     1      26.049   4.539  50.018  1.00  0.00     0.028 C 
HETATM    4  C4  UNL     1      26.462   3.415  50.649  1.00  0.00     0.033 C 
HETATM    5  C5  UNL     1      25.952   2.504  51.663  1.00  0.00     0.054 C 
HETATM    6  C6  UNL     1      24.866   2.366  52.458  1.00  0.00     0.141 C 
HETATM    7  N1  UNL     1      23.561   2.845  52.938  1.00  0.00    -0.263 NA
HETATM    8  C7  UNL     1      22.982   3.684  52.125  1.00  0.00     0.073 C 
HETATM    9  C8  UNL     1      23.728   3.846  51.043  1.00  0.00     0.148 A 
HETATM   10  C9  UNL     1      23.287   2.540  50.618  1.00  0.00     0.031 A 
HETATM   11  N2  UNL     1      22.941   1.334  50.738  1.00  0.00    -0.248 NA
HETATM   12  C10 UNL     1      22.862   0.565  51.926  1.00  0.00     0.255 C 
HETATM   13  N3  UNL     1      23.506   0.372  53.071  1.00  0.00    -0.164 NA
HETATM   14  N4  UNL     1      24.686   1.181  53.230  1.00  0.00    -0.247 N 
HETATM   15  C18 UNL     1      23.604   3.218  49.383  1.00  0.00     0.085 A 
HETATM   16  C19 UNL     1      24.232   4.351  49.215  1.00  0.00     0.072 C 
HETATM   17  N5  UNL     1      24.865   5.382  49.934  1.00  0.00    -0.369 N 
HETATM   18  H17 UNL     1      24.894   6.280  50.350  1.00  0.00     0.165 HD
ENDROOT
BRANCH  14  19
HETATM   19  C11 UNL     1      25.776   0.941  54.107  1.00  0.00     0.191 C 
BRANCH  19  20
HETATM   20  C12 UNL     1      26.695  -0.124  53.637  1.00  0.00    -0.038 A 
HETATM   21  C13 UNL     1      28.020  -0.013  53.938  1.00  0.00     0.009 A 
HETATM   22  C14 UNL     1      28.934  -0.971  53.538  1.00  0.00     0.001 A 
HETATM   23  C15 UNL     1      28.507  -2.067  52.819  1.00  0.00     0.000 A 
HETATM   24  C16 UNL     1      27.151  -2.168  52.520  1.00  0.00     0.001 A 
HETATM   25  C17 UNL     1      26.247  -1.209  52.921  1.00  0.00     0.009 A 
ENDBRANCH  19  20
ENDBRANCH  14  19
TORSDOF 2
ENDMDL
MODEL 3
REMARK VINA RESULT:      -8.5      3.178      6.446
REMARK  2 active torsions:
REMARK  status: ('A' for Active; 'I' for Inactive)
REMARK    1  A    between atoms: N4_14  and  C11_15 
REMARK    2  A    between atoms: C11_15  and  C12_16 
ROOT
HETATM    1  C1  UNL     1      29.545  -1.670  53.391  1.00  0.00     0.016 C 
HETATM    2  C2  UNL     1      28.416  -1.061  53.115  1.00  0.00     0.020 C 
HETATM    3  C3  UNL     1      27.093  -0.440  52.861  1.00  0.00     0.028 C 
HETATM    4  C4  UNL     1      27.237   0.613  52.023  1.00  0.00     0.033 C 
HETATM    5  C5  UNL     1      26.383   1.607  51.390  1.00  0.00     0.054 C 
HETATM    6  C6  UNL     1      25.070   1.925  51.314  1.00  0.00     0.141 C 
HETATM    7  N1  UNL     1      23.667   1.664  51.670  1.00  0.00    -0.263 NA
HETATM    8  C7  UNL     1      23.527   0.916  52.728  1.00  0.00     0.073 C 
HETATM    9  C8  UNL     1      24.716   0.624  53.230  1.00  0.00     0.148 A 
HETATM   10  C9  UNL     1      24.771   1.978  53.727  1.00  0.00     0.031 A 
HETATM   11  N2  UNL     1      24.588   3.224  53.724  1.00  0.00    -0.248 NA
HETATM   12  C10 UNL     1      23.971   4.012  52.721  1.00  0.00     0.255 C 
HETATM   13  N3  UNL     1      23.890   4.116  51.399  1.00  0.00    -0.164 NA
HETATM   14  N4  UNL     1      24.659   3.134  50.681  1.00  0.00    -0.247 N 
HETATM   15  C18 UNL     1      25.623   1.242  54.632  1.00  0.00     0.085 A 
HETATM   16  C19 UNL     1      26.074   0.022  54.513  1.00  0.00     0.072 C 
HETATM   17  N5  UNL     1      26.052  -1.086  53.646  1.00  0.00    -0.369 N 
HETATM   18  H17 UNL     1      25.720  -1.972  53.353  1.00  0.00     0.165 HD
ENDROOT
BRANCH  14  19
HETATM   19  C11 UNL     1      25.099   3.210  49.334  1.00  0.00     0.191 C 
BRANCH  19  20
HETATM   20  C12 UNL     1      25.910   4.417  49.041  1.00  0.00    -0.038 A 
HETATM   21  C13 UNL     1      27.259   4.271  48.899  1.00  0.00     0.009 A 
HETATM   22  C14 UNL     1      28.076   5.349  48.620  1.00  0.00     0.001 A 
HETATM   23  C15 UNL     1      27.528   6.606  48.479  1.00  0.00     0.000 A 
HETATM   24  C16 UNL     1      26.150   6.742  48.626  1.00  0.00     0.001 A 
HETATM   25  C17 UNL     1      25.342   5.661  48.905  1.00  0.00     0.009 A 
ENDBRANCH  19  20
ENDBRANCH  14  19
TORSDOF 2
ENDMDL
MODEL 4
REMARK VINA RESULT:      -8.3      3.039      6.018
REMARK  2 active torsions:
REMARK  status: ('A' for Active; 'I' for Inactive)
REMARK    1  A    between atoms: N4_14  and  C11_15 
REMARK    2  A    between atoms: C11_15  and  C12_16 
ROOT
HETATM    1  C1  UNL     1      27.539   5.046  48.579  1.00  0.00     0.016 C 
HETATM    2  C2  UNL     1      26.435   4.812  49.247  1.00  0.00     0.020 C 
HETATM    3  C3  UNL     1      25.205   4.630  50.056  1.00  0.00     0.028 C 
HETATM    4  C4  UNL     1      24.566   3.502  49.667  1.00  0.00     0.033 C 
HETATM    5  C5  UNL     1      23.365   2.767  50.035  1.00  0.00     0.054 C 
HETATM    6  C6  UNL     1      22.357   2.841  50.935  1.00  0.00     0.141 C 
HETATM    7  N1  UNL     1      21.699   3.511  52.067  1.00  0.00    -0.263 NA
HETATM    8  C7  UNL     1      22.064   4.752  52.223  1.00  0.00     0.073 C 
HETATM    9  C8  UNL     1      22.917   5.092  51.270  1.00  0.00     0.148 A 
HETATM   10  C9  UNL     1      21.794   5.137  50.365  1.00  0.00     0.031 A 
HETATM   11  N2  UNL     1      20.689   4.791  49.866  1.00  0.00    -0.248 NA
HETATM   12  C10 UNL     1      19.844   3.729  50.271  1.00  0.00     0.255 C 
HETATM   13  N3  UNL     1      19.905   2.476  50.708  1.00  0.00    -0.164 NA
HETATM   14  N4  UNL     1      21.242   1.959  50.840  1.00  0.00    -0.247 N 
HETATM   15  C18 UNL     1      22.748   6.049  49.779  1.00  0.00     0.085 A 
HETATM   16  C19 UNL     1      24.004   6.223  50.091  1.00  0.00     0.072 C 
HETATM   17  N5  UNL     1      25.003   5.752  50.962  1.00  0.00    -0.369 N 
HETATM   18  H17 UNL     1      25.561   5.806  51.778  1.00  0.00     0.165 HD
ENDROOT
BRANCH  14  19
HETATM   19  C11 UNL     1      21.631   0.595  50.886  1.00  0.00     0.191 C 
BRANCH  19  20
HETATM   20  C12 UNL     1      21.836   0.082  52.263  1.00  0.00    -0.038 A 
HETATM   21  C13 UNL     1      20.737  -0.169  53.030  1.00  0.00     0.009 A 
HETATM   22  C14 UNL     1      20.851  -0.653  54.319  1.00  0.00     0.001 A 
HETATM   23  C15 UNL     1      22.099  -0.893  54.852  1.00  0.00     0.000 A 
HETATM   24  C16 UNL     1      23.214  -0.634  54.058  1.00  0.00     0.001 A 
HETATM   25  C17 UNL     1      23.091  -0.150  52.774  1.00  0.00     0.009 A 
ENDBRANCH  19  20
ENDBRANCH  14  19
TORSDOF 2
ENDMDL
MODEL 5
REMARK VINA RESULT:      -8.2      3.206      5.230
REMARK  2 active torsions:
REMARK  status: ('A' for Active; 'I' for Inactive)
REMARK    1  A    between atoms: N4_14  and  C11_15 
REMARK    2  A    between atoms: C11_15  and  C12_16 
ROOT
HETATM    1  C1  UNL     1      18.884  -0.127  51.325  1.00  0.00     0.016 C 
HETATM    2  C2  UNL     1      20.023   0.482  51.556  1.00  0.00     0.020 C 
HETATM    3  C3  UNL     1      21.289   1.167  51.915  1.00  0.00     0.028 C 
HETATM    4  C4  UNL     1      21.988   1.451  50.791  1.00  0.00     0.033 C 
HETATM    5  C5  UNL     1      23.247   2.093  50.443  1.00  0.00     0.054 C 
HETATM    6  C6  UNL     1      24.277   2.721  51.055  1.00  0.00     0.141 C 
HETATM    7  N1  UNL     1      24.926   3.223  52.276  1.00  0.00    -0.263 NA
HETATM    8  C7  UNL     1      24.485   2.666  53.369  1.00  0.00     0.073 C 
HETATM    9  C8  UNL     1      23.579   1.748  53.069  1.00  0.00     0.148 A 
HETATM   10  C9  UNL     1      24.667   0.908  52.628  1.00  0.00     0.031 A 
HETATM   11  N2  UNL     1      25.774   0.624  52.099  1.00  0.00    -0.248 NA
HETATM   12  C10 UNL     1      26.701   1.507  51.491  1.00  0.00     0.255 C 
HETATM   13  N3  UNL     1      26.739   2.584  50.714  1.00  0.00    -0.164 NA
HETATM   14  N4  UNL     1      25.445   3.074  50.318  1.00  0.00    -0.247 N 
HETATM   15  C18 UNL     1      23.635  -0.030  53.005  1.00  0.00     0.085 A 
HETATM   16  C19 UNL     1      22.381   0.209  53.281  1.00  0.00     0.072 C 
HETATM   17  N5  UNL     1      21.445   1.256  53.359  1.00  0.00    -0.369 N 
HETATM   18  H17 UNL     1      20.912   1.930  53.851  1.00  0.00     0.165 HD
ENDROOT
BRANCH  14  19
HETATM   19  C11 UNL     1      25.149   3.915  49.215  1.00  0.00     0.191 C 
BRANCH  19  20
HETATM   20  C12 UNL     1      25.750   5.267  49.320  1.00  0.00    -0.038 A 
HETATM   21  C13 UNL     1      26.863   5.539  48.580  1.00  0.00     0.009 A 
HETATM   22  C14 UNL     1      27.474   6.778  48.623  1.00  0.00     0.001 A 
HETATM   23  C15 UNL     1      26.954   7.770  49.428  1.00  0.00     0.000 A 
HETATM   24  C16 UNL     1      25.817   7.480  50.177  1.00  0.00     0.001 A 
HETATM   25  C17 UNL     1      25.215   6.241  50.129  1.00  0.00     0.009 A 
ENDBRANCH  19  20
ENDBRANCH  14  19
TORSDOF 2
ENDMDL
MODEL 6
REMARK VINA RESULT:      -8.2      3.856      6.902
REMARK  2 active torsions:
REMARK  status: ('A' for Active; 'I' for Inactive)
REMARK    1  A    between atoms: N4_14  and  C11_15 
REMARK    2  A    between atoms: C11_15  and  C12_16 
ROOT
HETATM    1  C1  UNL     1      28.037   7.347  47.462  1.00  0.00     0.016 C 
HETATM    2  C2  UNL     1      27.147   6.923  48.327  1.00  0.00     0.020 C 
HETATM    3  C3  UNL     1      26.172   6.514  49.369  1.00  0.00     0.028 C 
HETATM    4  C4  UNL     1      25.445   5.463  48.924  1.00  0.00     0.033 C 
HETATM    5  C5  UNL     1      24.377   4.608  49.423  1.00  0.00     0.054 C 
HETATM    6  C6  UNL     1      23.644   4.441  50.547  1.00  0.00     0.141 C 
HETATM    7  N1  UNL     1      23.313   4.824  51.929  1.00  0.00    -0.263 NA
HETATM    8  C7  UNL     1      23.716   6.022  52.250  1.00  0.00     0.073 C 
HETATM    9  C8  UNL     1      24.290   6.596  51.204  1.00  0.00     0.148 A 
HETATM   10  C9  UNL     1      22.968   6.775  50.654  1.00  0.00     0.031 A 
HETATM   11  N2  UNL     1      21.768   6.488  50.396  1.00  0.00    -0.248 NA
HETATM   12  C10 UNL     1      21.052   5.323  50.767  1.00  0.00     0.255 C 
HETATM   13  N3  UNL     1      21.216   4.011  50.892  1.00  0.00    -0.164 NA
HETATM   14  N4  UNL     1      22.536   3.545  50.557  1.00  0.00    -0.247 N 
HETATM   15  C18 UNL     1      23.741   7.836  50.052  1.00  0.00     0.085 A 
HETATM   16  C19 UNL     1      25.036   8.003  50.057  1.00  0.00     0.072 C 
HETATM   17  N5  UNL     1      26.226   7.408  50.516  1.00  0.00    -0.369 N 
HETATM   18  H17 UNL     1      26.980   7.317  51.151  1.00  0.00     0.165 HD
ENDROOT
BRANCH  14  19
HETATM   19  C11 UNL     1      22.913   2.223  50.205  1.00  0.00     0.191 C 
BRANCH  19  20
HETATM   20  C12 UNL     1      22.848   1.265  51.335  1.00  0.00    -0.038 A 
HETATM   21  C13 UNL     1      23.951   1.122  52.125  1.00  0.00     0.009 A 
HETATM   22  C14 UNL     1      23.962   0.252  53.199  1.00  0.00     0.001 A 
HETATM   23  C15 UNL     1      22.839  -0.493  53.489  1.00  0.00     0.000 A 
HETATM   24  C16 UNL     1      21.720  -0.337  52.675  1.00  0.00     0.001 A 
HETATM   25  C17 UNL     1      21.717   0.532  51.606  1.00  0.00     0.009 A 
ENDBRANCH  19  20
ENDBRANCH  14  19
TORSDOF 2
ENDMDL
MODEL 7
REMARK VINA RESULT:      -8.1      5.445      8.652
REMARK  2 active torsions:
REMARK  status: ('A' for Active; 'I' for Inactive)
REMARK    1  A    between atoms: N4_14  and  C11_15 
REMARK    2  A    between atoms: C11_15  and  C12_16 
ROOT
HETATM    1  C1  UNL     1      31.208   5.182  47.313  1.00  0.00     0.016 C 
HETATM    2  C2  UNL     1      30.079   5.512  47.892  1.00  0.00     0.020 C 
HETATM    3  C3  UNL     1      28.842   5.977  48.567  1.00  0.00     0.028 C 
HETATM    4  C4  UNL     1      27.922   4.983  48.567  1.00  0.00     0.033 C 
HETATM    5  C5  UNL     1      26.565   4.776  49.049  1.00  0.00     0.054 C 
HETATM    6  C6  UNL     1      25.611   5.447  49.735  1.00  0.00     0.141 C 
HETATM    7  N1  UNL     1      25.155   6.650  50.449  1.00  0.00    -0.263 NA
HETATM    8  C7  UNL     1      25.843   7.719  50.162  1.00  0.00     0.073 C 
HETATM    9  C8  UNL     1      26.761   7.431  49.253  1.00  0.00     0.148 A 
HETATM   10  C9  UNL     1      25.696   7.393  48.279  1.00  0.00     0.031 A 
HETATM   11  N2  UNL     1      24.541   7.164  47.829  1.00  0.00    -0.248 NA
HETATM   12  C10 UNL     1      23.437   6.593  48.510  1.00  0.00     0.255 C 
HETATM   13  N3  UNL     1      23.153   5.643  49.393  1.00  0.00    -0.164 NA
HETATM   14  N4  UNL     1      24.299   4.906  49.859  1.00  0.00    -0.247 N 
HETATM   15  C18 UNL     1      26.864   7.731  47.502  1.00  0.00     0.085 A 
HETATM   16  C19 UNL     1      28.119   7.697  47.862  1.00  0.00     0.072 C 
HETATM   17  N5  UNL     1      28.949   7.376  48.952  1.00  0.00    -0.369 N 
HETATM   18  H17 UNL     1      29.497   7.608  49.744  1.00  0.00     0.165 HD
ENDROOT
BRANCH  14  19
HETATM   19  C11 UNL     1      24.303   3.622  50.461  1.00  0.00     0.191 C 
BRANCH  19  20
HETATM   20  C12 UNL     1      23.283   2.699  49.903  1.00  0.00    -0.038 A 
HETATM   21  C13 UNL     1      23.111   2.668  48.551  1.00  0.00     0.009 A 
HETATM   22  C14 UNL     1      22.184   1.831  47.960  1.00  0.00     0.001 A 
HETATM   23  C15 UNL     1      21.411   1.003  48.746  1.00  0.00     0.000 A 
HETATM   24  C16 UNL     1      21.597   1.043  50.125  1.00  0.00     0.001 A 
HETATM   25  C17 UNL     1      22.523   1.882  50.706  1.00  0.00     0.009 A 
ENDBRANCH  19  20
ENDBRANCH  14  19
TORSDOF 2
ENDMDL
MODEL 8
REMARK VINA RESULT:      -8.1      2.630      4.554
REMARK  2 active torsions:
REMARK  status: ('A' for Active; 'I' for Inactive)
REMARK    1  A    between atoms: N4_14  and  C11_15 
REMARK    2  A    between atoms: C11_15  and  C12_16 
ROOT
HETATM    1  C1  UNL     1      23.460   6.988  47.246  1.00  0.00     0.016 C 
HETATM    2  C2  UNL     1      23.608   6.311  48.360  1.00  0.00     0.020 C 
HETATM    3  C3  UNL     1      23.741   5.626  49.669  1.00  0.00     0.028 C 
HETATM    4  C4  UNL     1      24.237   4.381  49.483  1.00  0.00     0.033 C 
HETATM    5  C5  UNL     1      24.605   3.237  50.306  1.00  0.00     0.054 C 
HETATM    6  C6  UNL     1      24.653   2.893  51.613  1.00  0.00     0.141 C 
HETATM    7  N1  UNL     1      24.457   3.226  53.033  1.00  0.00    -0.263 NA
HETATM    8  C7  UNL     1      23.663   4.241  53.226  1.00  0.00     0.073 C 
HETATM    9  C8  UNL     1      23.205   4.680  52.064  1.00  0.00     0.148 A 
HETATM   10  C9  UNL     1      22.342   3.523  52.037  1.00  0.00     0.031 A 
HETATM   11  N2  UNL     1      22.000   2.324  52.222  1.00  0.00    -0.248 NA
HETATM   12  C10 UNL     1      22.769   1.276  52.787  1.00  0.00     0.255 C 
HETATM   13  N3  UNL     1      24.009   0.801  52.799  1.00  0.00    -0.164 NA
HETATM   14  N4  UNL     1      24.937   1.549  51.993  1.00  0.00    -0.247 N 
HETATM   15  C18 UNL     1      21.642   4.496  51.232  1.00  0.00     0.085 A 
HETATM   16  C19 UNL     1      22.079   5.638  50.773  1.00  0.00     0.072 C 
HETATM   17  N5  UNL     1      23.225   6.455  50.749  1.00  0.00    -0.369 N 
HETATM   18  H17 UNL     1      23.773   7.217  51.064  1.00  0.00     0.165 HD
ENDROOT
BRANCH  14  19
HETATM   19  C11 UNL     1      26.183   1.100  51.483  1.00  0.00     0.191 C 
BRANCH  19  20
HETATM   20  C12 UNL     1      27.238   0.973  52.518  1.00  0.00    -0.038 A 
HETATM   21  C13 UNL     1      27.547  -0.274  52.976  1.00  0.00     0.009 A 
HETATM   22  C14 UNL     1      28.523  -0.469  53.935  1.00  0.00     0.001 A 
HETATM   23  C15 UNL     1      29.206   0.613  54.448  1.00  0.00     0.000 A 
HETATM   24  C16 UNL     1      28.882   1.880  53.971  1.00  0.00     0.001 A 
HETATM   25  C17 UNL     1      27.907   2.066  53.015  1.00  0.00     0.009 A 
ENDBRANCH  19  20
ENDBRANCH  14  19
TORSDOF 2
ENDMDL
MODEL 9
REMARK VINA RESULT:      -7.9      9.090     10.762
REMARK  2 active torsions:
REMARK  status: ('A' for Active; 'I' for Inactive)
REMARK    1  A    between atoms: N4_14  and  C11_15 
REMARK    2  A    between atoms: C11_15  and  C12_16 
ROOT
HETATM    1  C1  UNL     1      24.314   6.785  48.483  1.00  0.00     0.016 C 
HETATM    2  C2  UNL     1      25.575   6.997  48.192  1.00  0.00     0.020 C 
HETATM    3  C3  UNL     1      26.974   7.325  47.821  1.00  0.00     0.028 C 
HETATM    4  C4  UNL     1      27.794   6.318  48.203  1.00  0.00     0.033 C 
HETATM    5  C5  UNL     1      29.214   6.007  48.138  1.00  0.00     0.054 C 
HETATM    6  C6  UNL     1      30.356   6.545  47.652  1.00  0.00     0.141 C 
HETATM    7  N1  UNL     1      31.062   7.619  46.935  1.00  0.00    -0.263 NA
HETATM    8  C7  UNL     1      30.394   8.736  46.879  1.00  0.00     0.073 C 
HETATM    9  C8  UNL     1      29.251   8.608  47.536  1.00  0.00     0.148 A 
HETATM   10  C9  UNL     1      30.017   8.684  48.758  1.00  0.00     0.031 A 
HETATM   11  N2  UNL     1      30.994   8.493  49.530  1.00  0.00    -0.248 NA
HETATM   12  C10 UNL     1      32.199   7.800  49.255  1.00  0.00     0.255 C 
HETATM   13  N3  UNL     1      32.644   6.724  48.617  1.00  0.00    -0.164 NA
HETATM   14  N4  UNL     1      31.617   5.957  47.962  1.00  0.00    -0.247 N 
HETATM   15  C18 UNL     1      28.709   9.164  49.138  1.00  0.00     0.085 A 
HETATM   16  C19 UNL     1      27.594   9.110  48.459  1.00  0.00     0.072 C 
HETATM   17  N5  UNL     1      27.063   8.656  47.238  1.00  0.00    -0.369 N 
HETATM   18  H17 UNL     1      26.759   8.784  46.305  1.00  0.00     0.165 HD
ENDROOT
BRANCH  14  19
HETATM   19  C11 UNL     1      31.690   4.600  47.558  1.00  0.00     0.191 C 
BRANCH  19  20
HETATM   20  C12 UNL     1      32.911   4.274  46.782  1.00  0.00    -0.038 A 
HETATM   21  C13 UNL     1      33.021   4.762  45.514  1.00  0.00     0.009 A 
HETATM   22  C14 UNL     1      34.133   4.504  44.734  1.00  0.00     0.001 A 
HETATM   23  C15 UNL     1      35.161   3.737  45.240  1.00  0.00     0.000 A 
HETATM   24  C16 UNL     1      35.036   3.245  46.537  1.00  0.00     0.001 A 
HETATM   25  C17 UNL     1      33.924   3.506  47.307  1.00  0.00     0.009 A 
ENDBRANCH  19  20
ENDBRANCH  14  19
TORSDOF 2
ENDMDL
