MODEL 1
REMARK VINA RESULT:      -7.1      0.000      0.000
REMARK  7 active torsions:
REMARK  status: ('A' for Active; 'I' for Inactive)
REMARK    1  A    between atoms: C1_2  and  C2_3 
REMARK       I    between atoms: C1_2  and  N1_14 
REMARK    2  A    between atoms: C2_3  and  C3_4 
REMARK    3  A    between atoms: C3_4  and  C4_5 
REMARK    4  A    between atoms: C9_11  and  O3_12 
REMARK    5  A    between atoms: N1_14  and  C11_15 
REMARK    6  A    between atoms: C11_15  and  C14_19 
REMARK    7  A    between atoms: C12_16  and  C13_17 
ROOT
HETATM    1  C2  UNL     1      24.806   2.822  51.118  1.00  0.00     0.107 C 
ENDROOT
BRANCH   1   2
HETATM    2  C1  UNL     1      23.954   2.187  52.100  1.00  0.00     0.222 C 
HETATM    3  O1  UNL     1      24.164   2.995  53.073  1.00  0.00    -0.273 OA
HETATM    4  N1  UNL     1      23.108   1.090  52.194  1.00  0.00    -0.330 N 
HETATM    5  H12 UNL     1      23.119   0.595  51.253  1.00  0.00     0.168 HD
BRANCH   4   6
HETATM    6  C11 UNL     1      22.276   0.499  53.171  1.00  0.00     0.024 C 
HETATM    7  C12 UNL     1      22.958  -0.412  53.916  1.00  0.00     0.030 C 
BRANCH   7   8
HETATM    8  C13 UNL     1      22.473  -1.239  55.021  1.00  0.00     0.251 C 
HETATM    9  F1  UNL     1      21.599  -2.227  54.716  1.00  0.00    -0.251 F 
ENDBRANCH   7   8
BRANCH   6  10
HETATM   10  C14 UNL     1      20.882   0.985  53.185  1.00  0.00     0.171 C 
HETATM   11 CL1  UNL     1      19.669  -0.255  52.892  1.00  0.00    -0.124 Cl
ENDBRANCH   6  10
ENDBRANCH   4   6
ENDBRANCH   1   2
BRANCH   1  12
HETATM   12  C3  UNL     1      26.259   2.446  51.339  1.00  0.00     0.037 C 
BRANCH  12  13
HETATM   13  C4  UNL     1      26.404   1.045  51.672  1.00  0.00    -0.015 C 
HETATM   14  C5  UNL     1      27.206   0.428  52.551  1.00  0.00    -0.036 C 
HETATM   15  C6  UNL     1      28.105   1.318  53.320  1.00  0.00     0.009 C 
HETATM   16  C10 UNL     1      27.124  -1.042  52.666  1.00  0.00     0.074 C 
HETATM   17  C7  UNL     1      29.284   0.888  53.813  1.00  0.00     0.000 C 
HETATM   18  C8  UNL     1      30.069  -0.363  53.834  1.00  0.00     0.205 C 
HETATM   19  O2  UNL     1      29.498  -1.449  53.178  1.00  0.00    -0.327 OA
HETATM   20  C9  UNL     1      28.182  -1.789  52.945  1.00  0.00     0.178 C 
BRANCH  20  21
HETATM   21  O3  UNL     1      27.757  -3.126  52.978  1.00  0.00    -0.341 OA
HETATM   22  H10 UNL     1      28.324  -3.826  53.393  1.00  0.00     0.220 HD
ENDBRANCH  20  21
ENDBRANCH  12  13
ENDBRANCH   1  12
TORSDOF 7
ENDMDL
MODEL 2
REMARK VINA RESULT:      -6.8      3.874      5.304
REMARK  7 active torsions:
REMARK  status: ('A' for Active; 'I' for Inactive)
REMARK    1  A    between atoms: C1_2  and  C2_3 
REMARK       I    between atoms: C1_2  and  N1_14 
REMARK    2  A    between atoms: C2_3  and  C3_4 
REMARK    3  A    between atoms: C3_4  and  C4_5 
REMARK    4  A    between atoms: C9_11  and  O3_12 
REMARK    5  A    between atoms: N1_14  and  C11_15 
REMARK    6  A    between atoms: C11_15  and  C14_19 
REMARK    7  A    between atoms: C12_16  and  C13_17 
ROOT
HETATM    1  C2  UNL     1      23.313   2.219  52.482  1.00  0.00     0.107 C 
ENDROOT
BRANCH   1   2
HETATM    2  C1  UNL     1      23.827   3.049  51.414  1.00  0.00     0.222 C 
HETATM    3  O1  UNL     1      23.383   2.367  50.424  1.00  0.00    -0.273 OA
HETATM    4  N1  UNL     1      24.562   4.218  51.262  1.00  0.00    -0.330 N 
HETATM    5  H12 UNL     1      24.803   4.574  52.233  1.00  0.00     0.168 HD
BRANCH   4   6
HETATM    6  C11 UNL     1      25.041   5.014  50.197  1.00  0.00     0.024 C 
HETATM    7  C12 UNL     1      26.252   4.576  49.759  1.00  0.00     0.030 C 
BRANCH   7   8
HETATM    8  C13 UNL     1      27.085   5.115  48.684  1.00  0.00     0.251 C 
HETATM    9  F1  UNL     1      28.228   4.448  48.394  1.00  0.00    -0.251 F 
ENDBRANCH   7   8
BRANCH   6  10
HETATM   10  C14 UNL     1      24.149   6.118  49.788  1.00  0.00     0.171 C 
HETATM   11 CL1  UNL     1      23.539   5.998  48.143  1.00  0.00    -0.124 Cl
ENDBRANCH   6  10
ENDBRANCH   4   6
ENDBRANCH   1   2
BRANCH   1  12
HETATM   12  C3  UNL     1      24.303   1.127  52.842  1.00  0.00     0.037 C 
BRANCH  12  13
HETATM   13  C4  UNL     1      25.575   1.675  53.262  1.00  0.00    -0.015 C 
HETATM   14  C5  UNL     1      26.819   1.183  53.171  1.00  0.00    -0.036 C 
HETATM   15  C6  UNL     1      26.926  -0.149  52.535  1.00  0.00     0.009 C 
HETATM   16  C10 UNL     1      27.935   1.992  53.701  1.00  0.00     0.074 C 
HETATM   17  C7  UNL     1      27.934  -0.997  52.822  1.00  0.00     0.000 C 
HETATM   18  C8  UNL     1      29.131  -1.020  53.688  1.00  0.00     0.205 C 
HETATM   19  O2  UNL     1      29.345   0.120  54.457  1.00  0.00    -0.327 OA
HETATM   20  C9  UNL     1      29.007   1.441  54.250  1.00  0.00     0.178 C 
BRANCH  20  21
HETATM   21  O3  UNL     1      29.861   2.482  54.645  1.00  0.00    -0.341 OA
HETATM   22  H10 UNL     1      30.475   2.367  55.415  1.00  0.00     0.220 HD
ENDBRANCH  20  21
ENDBRANCH  12  13
ENDBRANCH   1  12
TORSDOF 7
ENDMDL
MODEL 3
REMARK VINA RESULT:      -6.8      1.762      2.450
REMARK  7 active torsions:
REMARK  status: ('A' for Active; 'I' for Inactive)
REMARK    1  A    between atoms: C1_2  and  C2_3 
REMARK       I    between atoms: C1_2  and  N1_14 
REMARK    2  A    between atoms: C2_3  and  C3_4 
REMARK    3  A    between atoms: C3_4  and  C4_5 
REMARK    4  A    between atoms: C9_11  and  O3_12 
REMARK    5  A    between atoms: N1_14  and  C11_15 
REMARK    6  A    between atoms: C11_15  and  C14_19 
REMARK    7  A    between atoms: C12_16  and  C13_17 
ROOT
HETATM    1  C2  UNL     1      24.268   3.442  50.923  1.00  0.00     0.107 C 
ENDROOT
BRANCH   1   2
HETATM    2  C1  UNL     1      23.442   2.560  51.719  1.00  0.00     0.222 C 
HETATM    3  O1  UNL     1      22.993   3.430  52.547  1.00  0.00    -0.273 OA
HETATM    4  N1  UNL     1      23.092   1.217  51.765  1.00  0.00    -0.330 N 
HETATM    5  H12 UNL     1      23.602   0.725  50.974  1.00  0.00     0.168 HD
BRANCH   4   6
HETATM    6  C11 UNL     1      22.267   0.384  52.555  1.00  0.00     0.024 C 
HETATM    7  C12 UNL     1      22.969  -0.183  53.574  1.00  0.00     0.030 C 
BRANCH   7   8
HETATM    8  C13 UNL     1      22.496  -1.100  54.611  1.00  0.00     0.251 C 
HETATM    9  F1  UNL     1      23.304  -1.295  55.679  1.00  0.00    -0.251 F 
ENDBRANCH   7   8
BRANCH   6  10
HETATM   10  C14 UNL     1      20.856   0.310  52.126  1.00  0.00     0.171 C 
HETATM   11 CL1  UNL     1      19.924   1.773  52.413  1.00  0.00    -0.124 Cl
ENDBRANCH   6  10
ENDBRANCH   4   6
ENDBRANCH   1   2
BRANCH   1  12
HETATM   12  C3  UNL     1      25.496   2.713  50.408  1.00  0.00     0.037 C 
BRANCH  12  13
HETATM   13  C4  UNL     1      26.608   2.824  51.327  1.00  0.00    -0.015 C 
HETATM   14  C5  UNL     1      27.185   1.915  52.127  1.00  0.00    -0.036 C 
HETATM   15  C6  UNL     1      26.592   0.560  52.072  1.00  0.00     0.009 C 
HETATM   16  C10 UNL     1      28.323   2.339  52.966  1.00  0.00     0.074 C 
HETATM   17  C7  UNL     1      26.657  -0.289  53.117  1.00  0.00     0.000 C 
HETATM   18  C8  UNL     1      27.210  -0.297  54.487  1.00  0.00     0.205 C 
HETATM   19  O2  UNL     1      27.861   0.866  54.885  1.00  0.00    -0.327 OA
HETATM   20  C9  UNL     1      28.545   1.825  54.167  1.00  0.00     0.178 C 
BRANCH  20  21
HETATM   21  O3  UNL     1      29.694   2.443  54.684  1.00  0.00    -0.341 OA
HETATM   22  H10 UNL     1      29.830   3.420  54.583  1.00  0.00     0.220 HD
ENDBRANCH  20  21
ENDBRANCH  12  13
ENDBRANCH   1  12
TORSDOF 7
ENDMDL
MODEL 4
REMARK VINA RESULT:      -6.7      4.426      5.766
REMARK  7 active torsions:
REMARK  status: ('A' for Active; 'I' for Inactive)
REMARK    1  A    between atoms: C1_2  and  C2_3 
REMARK       I    between atoms: C1_2  and  N1_14 
REMARK    2  A    between atoms: C2_3  and  C3_4 
REMARK    3  A    between atoms: C3_4  and  C4_5 
REMARK    4  A    between atoms: C9_11  and  O3_12 
REMARK    5  A    between atoms: N1_14  and  C11_15 
REMARK    6  A    between atoms: C11_15  and  C14_19 
REMARK    7  A    between atoms: C12_16  and  C13_17 
ROOT
HETATM    1  C2  UNL     1      25.190   2.286  50.639  1.00  0.00     0.107 C 
ENDROOT
BRANCH   1   2
HETATM    2  C1  UNL     1      25.802   3.558  50.324  1.00  0.00     0.222 C 
HETATM    3  O1  UNL     1      27.023   3.232  50.541  1.00  0.00    -0.273 OA
HETATM    4  N1  UNL     1      25.419   4.827  49.909  1.00  0.00    -0.330 N 
HETATM    5  H12 UNL     1      24.361   4.825  49.808  1.00  0.00     0.168 HD
BRANCH   4   6
HETATM    6  C11 UNL     1      26.047   6.054  49.598  1.00  0.00     0.024 C 
HETATM    7  C12 UNL     1      26.984   5.896  48.624  1.00  0.00     0.030 C 
BRANCH   7   8
HETATM    8  C13 UNL     1      27.851   6.906  48.017  1.00  0.00     0.251 C 
HETATM    9  F1  UNL     1      28.893   6.461  47.275  1.00  0.00    -0.251 F 
ENDBRANCH   7   8
BRANCH   6  10
HETATM   10  C14 UNL     1      25.565   7.218  50.367  1.00  0.00     0.171 C 
HETATM   11 CL1  UNL     1      24.057   6.953  51.232  1.00  0.00    -0.124 Cl
ENDBRANCH   6  10
ENDBRANCH   4   6
ENDBRANCH   1   2
BRANCH   1  12
HETATM   12  C3  UNL     1      25.424   1.918  52.092  1.00  0.00     0.037 C 
BRANCH  12  13
HETATM   13  C4  UNL     1      25.901   0.558  52.230  1.00  0.00    -0.015 C 
HETATM   14  C5  UNL     1      26.933   0.052  52.920  1.00  0.00    -0.036 C 
HETATM   15  C6  UNL     1      27.733   1.042  53.674  1.00  0.00     0.009 C 
HETATM   16  C10 UNL     1      27.171  -1.404  52.861  1.00  0.00     0.074 C 
HETATM   17  C7  UNL     1      29.035   0.837  53.961  1.00  0.00     0.000 C 
HETATM   18  C8  UNL     1      30.054  -0.207  53.730  1.00  0.00     0.205 C 
HETATM   19  O2  UNL     1      29.627  -1.325  53.021  1.00  0.00    -0.327 OA
HETATM   20  C9  UNL     1      28.389  -1.923  52.912  1.00  0.00     0.178 C 
BRANCH  20  21
HETATM   21  O3  UNL     1      28.256  -3.317  52.833  1.00  0.00    -0.341 OA
HETATM   22  H10 UNL     1      28.968  -3.913  53.183  1.00  0.00     0.220 HD
ENDBRANCH  20  21
ENDBRANCH  12  13
ENDBRANCH   1  12
TORSDOF 7
ENDMDL
MODEL 5
REMARK VINA RESULT:      -6.6      3.419      6.910
REMARK  7 active torsions:
REMARK  status: ('A' for Active; 'I' for Inactive)
REMARK    1  A    between atoms: C1_2  and  C2_3 
REMARK       I    between atoms: C1_2  and  N1_14 
REMARK    2  A    between atoms: C2_3  and  C3_4 
REMARK    3  A    between atoms: C3_4  and  C4_5 
REMARK    4  A    between atoms: C9_11  and  O3_12 
REMARK    5  A    between atoms: N1_14  and  C11_15 
REMARK    6  A    between atoms: C11_15  and  C14_19 
REMARK    7  A    between atoms: C12_16  and  C13_17 
ROOT
HETATM    1  C2  UNL     1      23.492  -0.967  54.654  1.00  0.00     0.107 C 
ENDROOT
BRANCH   1   2
HETATM    2  C1  UNL     1      24.889  -0.614  54.522  1.00  0.00     0.222 C 
HETATM    3  O1  UNL     1      25.281  -0.983  55.686  1.00  0.00    -0.273 OA
HETATM    4  N1  UNL     1      25.742  -0.064  53.574  1.00  0.00    -0.330 N 
HETATM    5  H12 UNL     1      25.163   0.152  52.709  1.00  0.00     0.168 HD
BRANCH   4   6
HETATM    6  C11 UNL     1      27.114   0.260  53.472  1.00  0.00     0.024 C 
HETATM    7  C12 UNL     1      27.319   1.596  53.627  1.00  0.00     0.030 C 
BRANCH   7   8
HETATM    8  C13 UNL     1      28.580   2.337  53.593  1.00  0.00     0.251 C 
HETATM    9  F1  UNL     1      29.476   2.078  54.574  1.00  0.00    -0.251 F 
ENDBRANCH   7   8
BRANCH   6  10
HETATM   10  C14 UNL     1      28.013  -0.887  53.233  1.00  0.00     0.171 C 
HETATM   11 CL1  UNL     1      27.233  -2.296  52.527  1.00  0.00    -0.124 Cl
ENDBRANCH   6  10
ENDBRANCH   4   6
ENDBRANCH   1   2
BRANCH   1  12
HETATM   12  C3  UNL     1      22.837  -1.099  53.292  1.00  0.00     0.037 C 
BRANCH  12  13
HETATM   13  C4  UNL     1      21.786  -0.121  53.106  1.00  0.00    -0.015 C 
HETATM   14  C5  UNL     1      21.740   0.991  52.359  1.00  0.00    -0.036 C 
HETATM   15  C6  UNL     1      22.968   1.284  51.587  1.00  0.00     0.009 C 
HETATM   16  C10 UNL     1      20.505   1.799  52.379  1.00  0.00     0.074 C 
HETATM   17  C7  UNL     1      23.307   2.541  51.235  1.00  0.00     0.000 C 
HETATM   18  C8  UNL     1      22.764   3.906  51.399  1.00  0.00     0.205 C 
HETATM   19  O2  UNL     1      21.570   4.003  52.106  1.00  0.00    -0.327 OA
HETATM   20  C9  UNL     1      20.522   3.119  52.261  1.00  0.00     0.178 C 
BRANCH  20  21
HETATM   21  O3  UNL     1      19.194   3.565  52.320  1.00  0.00    -0.341 OA
HETATM   22  H10 UNL     1      18.535   3.283  51.634  1.00  0.00     0.220 HD
ENDBRANCH  20  21
ENDBRANCH  12  13
ENDBRANCH   1  12
TORSDOF 7
ENDMDL
MODEL 6
REMARK VINA RESULT:      -6.6      4.433      5.894
REMARK  7 active torsions:
REMARK  status: ('A' for Active; 'I' for Inactive)
REMARK    1  A    between atoms: C1_2  and  C2_3 
REMARK       I    between atoms: C1_2  and  N1_14 
REMARK    2  A    between atoms: C2_3  and  C3_4 
REMARK    3  A    between atoms: C3_4  and  C4_5 
REMARK    4  A    between atoms: C9_11  and  O3_12 
REMARK    5  A    between atoms: N1_14  and  C11_15 
REMARK    6  A    between atoms: C11_15  and  C14_19 
REMARK    7  A    between atoms: C12_16  and  C13_17 
ROOT
HETATM    1  C2  UNL     1      23.515   3.022  52.058  1.00  0.00     0.107 C 
ENDROOT
BRANCH   1   2
HETATM    2  C1  UNL     1      23.963   4.042  51.135  1.00  0.00     0.222 C 
HETATM    3  O1  UNL     1      23.133   3.807  50.186  1.00  0.00    -0.273 OA
HETATM    4  N1  UNL     1      24.924   5.043  51.070  1.00  0.00    -0.330 N 
HETATM    5  H12 UNL     1      25.474   5.019  51.979  1.00  0.00     0.168 HD
BRANCH   4   6
HETATM    6  C11 UNL     1      25.331   6.037  50.151  1.00  0.00     0.024 C 
HETATM    7  C12 UNL     1      24.919   7.272  50.545  1.00  0.00     0.030 C 
BRANCH   7   8
HETATM    8  C13 UNL     1      25.130   8.560  49.884  1.00  0.00     0.251 C 
HETATM    9  F1  UNL     1      24.092   9.073  49.183  1.00  0.00    -0.251 F 
ENDBRANCH   7   8
BRANCH   6  10
HETATM   10  C14 UNL     1      26.102   5.542  48.993  1.00  0.00     0.171 C 
HETATM   11 CL1  UNL     1      26.956   4.030  49.272  1.00  0.00    -0.124 Cl
ENDBRANCH   6  10
ENDBRANCH   4   6
ENDBRANCH   1   2
BRANCH   1  12
HETATM   12  C3  UNL     1      24.488   1.859  52.091  1.00  0.00     0.037 C 
BRANCH  12  13
HETATM   13  C4  UNL     1      25.755   2.236  52.681  1.00  0.00    -0.015 C 
HETATM   14  C5  UNL     1      26.902   1.555  52.816  1.00  0.00    -0.036 C 
HETATM   15  C6  UNL     1      26.886   0.178  52.274  1.00  0.00     0.009 C 
HETATM   16  C10 UNL     1      28.041   2.222  53.476  1.00  0.00     0.074 C 
HETATM   17  C7  UNL     1      27.688  -0.790  52.762  1.00  0.00     0.000 C 
HETATM   18  C8  UNL     1      28.721  -0.929  53.809  1.00  0.00     0.205 C 
HETATM   19  O2  UNL     1      28.999   0.220  54.543  1.00  0.00    -0.327 OA
HETATM   20  C9  UNL     1      28.916   1.558  54.218  1.00  0.00     0.178 C 
BRANCH  20  21
HETATM   21  O3  UNL     1      29.858   2.484  54.690  1.00  0.00    -0.341 OA
HETATM   22  H10 UNL     1      29.589   3.415  54.901  1.00  0.00     0.220 HD
ENDBRANCH  20  21
ENDBRANCH  12  13
ENDBRANCH   1  12
TORSDOF 7
ENDMDL
MODEL 7
REMARK VINA RESULT:      -6.6      3.973      5.095
REMARK  7 active torsions:
REMARK  status: ('A' for Active; 'I' for Inactive)
REMARK    1  A    between atoms: C1_2  and  C2_3 
REMARK       I    between atoms: C1_2  and  N1_14 
REMARK    2  A    between atoms: C2_3  and  C3_4 
REMARK    3  A    between atoms: C3_4  and  C4_5 
REMARK    4  A    between atoms: C9_11  and  O3_12 
REMARK    5  A    between atoms: N1_14  and  C11_15 
REMARK    6  A    between atoms: C11_15  and  C14_19 
REMARK    7  A    between atoms: C12_16  and  C13_17 
ROOT
HETATM    1  C2  UNL     1      23.898   1.826  51.874  1.00  0.00     0.107 C 
ENDROOT
BRANCH   1   2
HETATM    2  C1  UNL     1      24.026   3.033  51.086  1.00  0.00     0.222 C 
HETATM    3  O1  UNL     1      23.412   2.631  50.035  1.00  0.00    -0.273 OA
HETATM    4  N1  UNL     1      24.572   4.305  51.207  1.00  0.00    -0.330 N 
HETATM    5  H12 UNL     1      25.019   4.372  52.168  1.00  0.00     0.168 HD
BRANCH   4   6
HETATM    6  C11 UNL     1      24.671   5.473  50.417  1.00  0.00     0.024 C 
HETATM    7  C12 UNL     1      24.163   6.553  51.068  1.00  0.00     0.030 C 
BRANCH   7   8
HETATM    8  C13 UNL     1      24.075   7.940  50.609  1.00  0.00     0.251 C 
HETATM    9  F1  UNL     1      22.908   8.331  50.044  1.00  0.00    -0.251 F 
ENDBRANCH   7   8
BRANCH   6  10
HETATM   10  C14 UNL     1      25.295   5.283  49.093  1.00  0.00     0.171 C 
HETATM   11 CL1  UNL     1      26.893   4.551  49.132  1.00  0.00    -0.124 Cl
ENDBRANCH   6  10
ENDBRANCH   4   6
ENDBRANCH   1   2
BRANCH   1  12
HETATM   12  C3  UNL     1      25.067   1.676  52.829  1.00  0.00     0.037 C 
BRANCH  12  13
HETATM   13  C4  UNL     1      25.630   0.344  52.781  1.00  0.00    -0.015 C 
HETATM   14  C5  UNL     1      26.759  -0.155  53.305  1.00  0.00    -0.036 C 
HETATM   15  C6  UNL     1      27.583   0.812  54.065  1.00  0.00     0.009 C 
HETATM   16  C10 UNL     1      27.069  -1.580  53.079  1.00  0.00     0.074 C 
HETATM   17  C7  UNL     1      28.918   0.668  54.192  1.00  0.00     0.000 C 
HETATM   18  C8  UNL     1      29.961  -0.281  53.753  1.00  0.00     0.205 C 
HETATM   19  O2  UNL     1      29.520  -1.356  52.986  1.00  0.00    -0.327 OA
HETATM   20  C9  UNL     1      28.312  -2.021  52.950  1.00  0.00     0.178 C 
BRANCH  20  21
HETATM   21  O3  UNL     1      28.249  -3.408  52.748  1.00  0.00    -0.341 OA
HETATM   22  H10 UNL     1      27.595  -3.961  53.247  1.00  0.00     0.220 HD
ENDBRANCH  20  21
ENDBRANCH  12  13
ENDBRANCH   1  12
TORSDOF 7
ENDMDL
MODEL 8
REMARK VINA RESULT:      -6.5      5.346      6.644
REMARK  7 active torsions:
REMARK  status: ('A' for Active; 'I' for Inactive)
REMARK    1  A    between atoms: C1_2  and  C2_3 
REMARK       I    between atoms: C1_2  and  N1_14 
REMARK    2  A    between atoms: C2_3  and  C3_4 
REMARK    3  A    between atoms: C3_4  and  C4_5 
REMARK    4  A    between atoms: C9_11  and  O3_12 
REMARK    5  A    between atoms: N1_14  and  C11_15 
REMARK    6  A    between atoms: C11_15  and  C14_19 
REMARK    7  A    between atoms: C12_16  and  C13_17 
ROOT
HETATM    1  C2  UNL     1      26.557   3.107  49.726  1.00  0.00     0.107 C 
ENDROOT
BRANCH   1   2
HETATM    2  C1  UNL     1      26.387   4.500  49.374  1.00  0.00     0.222 C 
HETATM    3  O1  UNL     1      25.131   4.472  49.118  1.00  0.00    -0.273 OA
HETATM    4  N1  UNL     1      27.155   5.653  49.277  1.00  0.00    -0.330 N 
HETATM    5  H12 UNL     1      28.152   5.397  49.540  1.00  0.00     0.168 HD
BRANCH   4   6
HETATM    6  C11 UNL     1      26.955   7.011  48.938  1.00  0.00     0.024 C 
HETATM    7  C12 UNL     1      26.267   7.666  49.911  1.00  0.00     0.030 C 
BRANCH   7   8
HETATM    8  C13 UNL     1      25.856   9.069  49.954  1.00  0.00     0.251 C 
HETATM    9  F1  UNL     1      26.799   9.998  49.667  1.00  0.00    -0.251 F 
ENDBRANCH   7   8
BRANCH   6  10
HETATM   10  C14 UNL     1      27.525   7.424  47.641  1.00  0.00     0.171 C 
HETATM   11 CL1  UNL     1      26.370   8.150  46.530  1.00  0.00    -0.124 Cl
ENDBRANCH   6  10
ENDBRANCH   4   6
ENDBRANCH   1   2
BRANCH   1  12
HETATM   12  C3  UNL     1      26.098   2.849  51.149  1.00  0.00     0.037 C 
BRANCH  12  13
HETATM   13  C4  UNL     1      26.199   1.448  51.498  1.00  0.00    -0.015 C 
HETATM   14  C5  UNL     1      26.953   0.819  52.412  1.00  0.00    -0.036 C 
HETATM   15  C6  UNL     1      27.841   1.696  53.208  1.00  0.00     0.009 C 
HETATM   16  C10 UNL     1      26.833  -0.647  52.533  1.00  0.00     0.074 C 
HETATM   17  C7  UNL     1      28.990   1.244  53.749  1.00  0.00     0.000 C 
HETATM   18  C8  UNL     1      29.746  -0.024  53.809  1.00  0.00     0.205 C 
HETATM   19  O2  UNL     1      29.176  -1.102  53.140  1.00  0.00    -0.327 OA
HETATM   20  C9  UNL     1      27.863  -1.415  52.858  1.00  0.00     0.178 C 
BRANCH  20  21
HETATM   21  O3  UNL     1      27.408  -2.742  52.884  1.00  0.00    -0.341 OA
HETATM   22  H10 UNL     1      28.007  -3.487  52.618  1.00  0.00     0.220 HD
ENDBRANCH  20  21
ENDBRANCH  12  13
ENDBRANCH   1  12
TORSDOF 7
ENDMDL
MODEL 9
REMARK VINA RESULT:      -6.5      3.525      4.791
REMARK  7 active torsions:
REMARK  status: ('A' for Active; 'I' for Inactive)
REMARK    1  A    between atoms: C1_2  and  C2_3 
REMARK       I    between atoms: C1_2  and  N1_14 
REMARK    2  A    between atoms: C2_3  and  C3_4 
REMARK    3  A    between atoms: C3_4  and  C4_5 
REMARK    4  A    between atoms: C9_11  and  O3_12 
REMARK    5  A    between atoms: N1_14  and  C11_15 
REMARK    6  A    between atoms: C11_15  and  C14_19 
REMARK    7  A    between atoms: C12_16  and  C13_17 
ROOT
HETATM    1  C2  UNL     1      23.603   1.423  51.887  1.00  0.00     0.107 C 
ENDROOT
BRANCH   1   2
HETATM    2  C1  UNL     1      24.194   2.556  51.209  1.00  0.00     0.222 C 
HETATM    3  O1  UNL     1      24.526   3.236  52.245  1.00  0.00    -0.273 OA
HETATM    4  N1  UNL     1      24.439   2.984  49.911  1.00  0.00    -0.330 N 
HETATM    5  H12 UNL     1      24.065   2.239  49.252  1.00  0.00     0.168 HD
BRANCH   4   6
HETATM    6  C11 UNL     1      25.033   4.099  49.278  1.00  0.00     0.024 C 
HETATM    7  C12 UNL     1      26.390   4.004  49.282  1.00  0.00     0.030 C 
BRANCH   7   8
HETATM    8  C13 UNL     1      27.374   4.938  48.734  1.00  0.00     0.251 C 
HETATM    9  F1  UNL     1      27.279   6.233  49.119  1.00  0.00    -0.251 F 
ENDBRANCH   7   8
BRANCH   6  10
HETATM   10  C14 UNL     1      24.085   5.101  48.753  1.00  0.00     0.171 C 
HETATM   11 CL1  UNL     1      22.544   5.166  49.597  1.00  0.00    -0.124 Cl
ENDBRANCH   6  10
ENDBRANCH   4   6
ENDBRANCH   1   2
BRANCH   1  12
HETATM   12  C3  UNL     1      24.368   1.091  53.155  1.00  0.00     0.037 C 
BRANCH  12  13
HETATM   13  C4  UNL     1      25.147  -0.120  53.008  1.00  0.00    -0.015 C 
HETATM   14  C5  UNL     1      26.347  -0.461  53.499  1.00  0.00    -0.036 C 
HETATM   15  C6  UNL     1      27.002   0.569  54.336  1.00  0.00     0.009 C 
HETATM   16  C10 UNL     1      26.890  -1.792  53.166  1.00  0.00     0.074 C 
HETATM   17  C7  UNL     1      28.343   0.642  54.459  1.00  0.00     0.000 C 
HETATM   18  C8  UNL     1      29.527  -0.082  53.955  1.00  0.00     0.205 C 
HETATM   19  O2  UNL     1      29.268  -1.153  53.105  1.00  0.00    -0.327 OA
HETATM   20  C9  UNL     1      28.189  -2.007  53.011  1.00  0.00     0.178 C 
BRANCH  20  21
HETATM   21  O3  UNL     1      28.358  -3.365  52.702  1.00  0.00    -0.341 OA
HETATM   22  H10 UNL     1      29.264  -3.767  52.671  1.00  0.00     0.220 HD
ENDBRANCH  20  21
ENDBRANCH  12  13
ENDBRANCH   1  12
TORSDOF 7
ENDMDL
