MODEL 1
REMARK VINA RESULT:      -7.1      0.000      0.000
REMARK  5 active torsions:
REMARK  status: ('A' for Active; 'I' for Inactive)
REMARK    1  A    between atoms: O1_2  and  C2_3 
REMARK    2  A    between atoms: C2_3  and  O2_4 
REMARK    3  A    between atoms: O2_4  and  C3_5 
REMARK    4  A    between atoms: C11_16  and  O4_17 
REMARK    5  A    between atoms: O4_17  and  P1_18 
ROOT
HETATM    1  C3  UNL     1      26.060   1.483  52.938  1.00  0.00     0.100 A 
HETATM    2  C4  UNL     1      26.431   2.484  53.841  1.00  0.00     0.067 A 
HETATM    3  O3  UNL     1      27.837   2.508  53.762  1.00  0.00    -0.335 OA
HETATM    4  C5  UNL     1      28.331   1.130  54.017  1.00  0.00     0.323 C 
HETATM    5  N1  UNL     1      27.466   0.389  54.842  1.00  0.00    -0.276 NA
HETATM    6  C6  UNL     1      26.292  -0.043  54.807  1.00  0.00     0.111 C 
HETATM    7  C7  UNL     1      24.893  -0.497  54.636  1.00  0.00     0.023 C 
HETATM    8  C8  UNL     1      24.223  -0.263  53.432  1.00  0.00     0.061 A 
HETATM    9  N2  UNL     1      22.833  -0.697  53.318  1.00  0.00    -0.405 N 
HETATM   10  C9  UNL     1      22.475   0.079  52.173  1.00  0.00     0.145 C 
HETATM   11  C10 UNL     1      21.080   0.186  51.759  1.00  0.00     0.030 C 
HETATM   12  C11 UNL     1      20.946   1.532  51.826  1.00  0.00     0.076 C 
HETATM   13  C12 UNL     1      21.644   2.805  52.171  1.00  0.00    -0.032 C 
HETATM   14  C13 UNL     1      20.584   3.812  51.772  1.00  0.00     0.050 C 
HETATM   15  C14 UNL     1      22.833   3.177  52.658  1.00  0.00    -0.016 C 
HETATM   16  C15 UNL     1      24.176   3.433  53.199  1.00  0.00     0.042 C 
HETATM   17  C16 UNL     1      24.898   2.380  53.857  1.00  0.00     0.081 A 
HETATM   18  C17 UNL     1      25.022   1.017  53.295  1.00  0.00     0.111 A 
HETATM   19  C18 UNL     1      25.165   0.325  52.322  1.00  0.00     0.023 A 
HETATM   20  H10 UNL     1      22.640  -1.360  54.062  1.00  0.00     0.154 HD
ENDROOT
BRANCH   1  21
HETATM   21  O2  UNL     1      26.814   1.095  51.763  1.00  0.00    -0.351 OA
BRANCH  21  22
HETATM   22  C2  UNL     1      26.709   1.766  50.550  1.00  0.00     0.338 C 
BRANCH  22  23
HETATM   23  O1  UNL     1      27.002   3.134  50.697  1.00  0.00    -0.372 OA
HETATM   24  C1  UNL     1      26.376   3.924  49.771  1.00  0.00     0.204 C 
ENDBRANCH  22  23
ENDBRANCH  21  22
ENDBRANCH   1  21
BRANCH  12  25
HETATM   25  O4  UNL     1      19.648   1.456  51.403  1.00  0.00    -0.330 OA
BRANCH  25  26
HETATM   26  P1  UNL     1      18.518   0.167  51.525  1.00  0.00     0.009 P 
HETATM   27  H14 UNL     1      17.621   0.064  50.406  1.00  0.00     0.085 HD
HETATM   28  H15 UNL     1      17.909   0.047  52.814  1.00  0.00     0.085 HD
ENDBRANCH  25  26
ENDBRANCH  12  25
TORSDOF 5
ENDMDL
MODEL 2
REMARK VINA RESULT:      -7.0      3.171      6.263
REMARK  5 active torsions:
REMARK  status: ('A' for Active; 'I' for Inactive)
REMARK    1  A    between atoms: O1_2  and  C2_3 
REMARK    2  A    between atoms: C2_3  and  O2_4 
REMARK    3  A    between atoms: O2_4  and  C3_5 
REMARK    4  A    between atoms: C11_16  and  O4_17 
REMARK    5  A    between atoms: O4_17  and  P1_18 
ROOT
HETATM    1  C3  UNL     1      21.528   1.967  51.226  1.00  0.00     0.100 A 
HETATM    2  C4  UNL     1      20.609   1.395  52.111  1.00  0.00     0.067 A 
HETATM    3  O3  UNL     1      19.378   1.499  51.435  1.00  0.00    -0.335 OA
HETATM    4  C5  UNL     1      19.182   2.924  51.061  1.00  0.00     0.323 C 
HETATM    5  N1  UNL     1      19.828   3.808  51.943  1.00  0.00    -0.276 NA
HETATM    6  C6  UNL     1      20.996   4.070  52.308  1.00  0.00     0.111 C 
HETATM    7  C7  UNL     1      22.421   4.278  52.650  1.00  0.00     0.023 C 
HETATM    8  C8  UNL     1      23.414   3.563  51.975  1.00  0.00     0.061 A 
HETATM    9  N2  UNL     1      24.806   3.775  52.367  1.00  0.00    -0.405 N 
HETATM   10  C9  UNL     1      25.364   2.610  51.754  1.00  0.00     0.145 C 
HETATM   11  C10 UNL     1      26.739   2.213  52.039  1.00  0.00     0.030 C 
HETATM   12  C11 UNL     1      26.500   0.971  52.523  1.00  0.00     0.076 C 
HETATM   13  C12 UNL     1      25.431  -0.015  52.862  1.00  0.00    -0.032 C 
HETATM   14  C13 UNL     1      26.278  -1.206  53.258  1.00  0.00     0.050 C 
HETATM   15  C14 UNL     1      24.095  -0.059  52.860  1.00  0.00    -0.016 C 
HETATM   16  C15 UNL     1      22.629   0.041  52.807  1.00  0.00     0.042 C 
HETATM   17  C16 UNL     1      21.997   1.331  52.766  1.00  0.00     0.081 A 
HETATM   18  C17 UNL     1      22.436   2.412  51.858  1.00  0.00     0.111 A 
HETATM   19  C18 UNL     1      22.846   2.728  50.773  1.00  0.00     0.023 A 
HETATM   20  H10 UNL     1      24.862   4.632  52.908  1.00  0.00     0.154 HD
ENDROOT
BRANCH   1  21
HETATM   21  O2  UNL     1      21.394   1.996  49.783  1.00  0.00    -0.351 OA
BRANCH  21  22
HETATM   22  C2  UNL     1      21.420   0.844  49.005  1.00  0.00     0.338 C 
BRANCH  22  23
HETATM   23  O1  UNL     1      21.898   1.114  47.710  1.00  0.00    -0.372 OA
HETATM   24  C1  UNL     1      22.171   2.439  47.499  1.00  0.00     0.204 C 
ENDBRANCH  22  23
ENDBRANCH  21  22
ENDBRANCH   1  21
BRANCH  12  25
HETATM   25  O4  UNL     1      27.837   0.750  52.708  1.00  0.00    -0.330 OA
BRANCH  25  26
HETATM   26  P1  UNL     1      28.918   1.414  53.868  1.00  0.00     0.009 P 
HETATM   27  H14 UNL     1      30.100   2.001  53.299  1.00  0.00     0.085 HD
HETATM   28  H15 UNL     1      29.133   0.577  55.008  1.00  0.00     0.085 HD
ENDBRANCH  25  26
ENDBRANCH  12  25
TORSDOF 5
ENDMDL
MODEL 3
REMARK VINA RESULT:      -7.0      3.709      6.285
REMARK  5 active torsions:
REMARK  status: ('A' for Active; 'I' for Inactive)
REMARK    1  A    between atoms: O1_2  and  C2_3 
REMARK    2  A    between atoms: C2_3  and  O2_4 
REMARK    3  A    between atoms: O2_4  and  C3_5 
REMARK    4  A    between atoms: C11_16  and  O4_17 
REMARK    5  A    between atoms: O4_17  and  P1_18 
ROOT
HETATM    1  C3  UNL     1      22.993   3.883  49.550  1.00  0.00     0.100 A 
HETATM    2  C4  UNL     1      21.940   4.481  50.249  1.00  0.00     0.067 A 
HETATM    3  O3  UNL     1      21.119   5.015  49.235  1.00  0.00    -0.335 OA
HETATM    4  C5  UNL     1      21.964   5.887  48.378  1.00  0.00     0.323 C 
HETATM    5  N1  UNL     1      23.048   6.447  49.078  1.00  0.00    -0.276 NA
HETATM    6  C6  UNL     1      24.073   6.049  49.674  1.00  0.00     0.111 C 
HETATM    7  C7  UNL     1      25.248   5.447  50.345  1.00  0.00     0.023 C 
HETATM    8  C8  UNL     1      25.463   4.068  50.275  1.00  0.00     0.061 A 
HETATM    9  N2  UNL     1      26.616   3.511  50.980  1.00  0.00    -0.405 N 
HETATM   10  C9  UNL     1      26.207   2.141  50.979  1.00  0.00     0.145 C 
HETATM   11  C10 UNL     1      26.924   1.156  51.781  1.00  0.00     0.030 C 
HETATM   12  C11 UNL     1      25.894   0.720  52.544  1.00  0.00     0.076 C 
HETATM   13  C12 UNL     1      24.443   0.903  52.843  1.00  0.00    -0.032 C 
HETATM   14  C13 UNL     1      24.230  -0.216  53.842  1.00  0.00     0.050 C 
HETATM   15  C14 UNL     1      23.449   1.706  52.450  1.00  0.00    -0.016 C 
HETATM   16  C15 UNL     1      22.462   2.660  51.925  1.00  0.00     0.042 C 
HETATM   17  C16 UNL     1      22.900   3.866  51.278  1.00  0.00     0.081 A 
HETATM   18  C17 UNL     1      23.959   3.885  50.246  1.00  0.00     0.111 A 
HETATM   19  C18 UNL     1      24.467   3.350  49.297  1.00  0.00     0.023 A 
HETATM   20  H10 UNL     1      27.254   4.268  51.203  1.00  0.00     0.154 HD
ENDROOT
BRANCH   1  21
HETATM   21  O2  UNL     1      22.906   3.344  48.207  1.00  0.00    -0.351 OA
BRANCH  21  22
HETATM   22  C2  UNL     1      21.916   2.448  47.821  1.00  0.00     0.338 C 
BRANCH  22  23
HETATM   23  O1  UNL     1      21.871   1.336  48.682  1.00  0.00    -0.372 OA
HETATM   24  C1  UNL     1      20.636   1.126  49.232  1.00  0.00     0.204 C 
ENDBRANCH  22  23
ENDBRANCH  21  22
ENDBRANCH   1  21
BRANCH  12  25
HETATM   25  O4  UNL     1      26.706  -0.173  53.187  1.00  0.00    -0.330 OA
BRANCH  25  26
HETATM   26  P1  UNL     1      28.133   0.094  54.108  1.00  0.00     0.009 P 
HETATM   27  H14 UNL     1      27.972  -0.138  55.518  1.00  0.00     0.085 HD
HETATM   28  H15 UNL     1      28.836   1.289  53.758  1.00  0.00     0.085 HD
ENDBRANCH  25  26
ENDBRANCH  12  25
TORSDOF 5
ENDMDL
MODEL 4
REMARK VINA RESULT:      -7.0      4.506      7.081
REMARK  5 active torsions:
REMARK  status: ('A' for Active; 'I' for Inactive)
REMARK    1  A    between atoms: O1_2  and  C2_3 
REMARK    2  A    between atoms: C2_3  and  O2_4 
REMARK    3  A    between atoms: O2_4  and  C3_5 
REMARK    4  A    between atoms: C11_16  and  O4_17 
REMARK    5  A    between atoms: O4_17  and  P1_18 
ROOT
HETATM    1  C3  UNL     1      23.125   3.480  50.161  1.00  0.00     0.100 A 
HETATM    2  C4  UNL     1      23.640   2.223  50.489  1.00  0.00     0.067 A 
HETATM    3  O3  UNL     1      22.531   1.361  50.378  1.00  0.00    -0.335 OA
HETATM    4  C5  UNL     1      21.443   1.907  51.231  1.00  0.00     0.323 C 
HETATM    5  N1  UNL     1      21.932   2.646  52.323  1.00  0.00    -0.276 NA
HETATM    6  C6  UNL     1      22.599   3.686  52.518  1.00  0.00     0.111 C 
HETATM    7  C7  UNL     1      23.394   4.932  52.606  1.00  0.00     0.023 C 
HETATM    8  C8  UNL     1      23.721   5.638  51.446  1.00  0.00     0.061 A 
HETATM    9  N2  UNL     1      24.535   6.844  51.576  1.00  0.00    -0.405 N 
HETATM   10  C9  UNL     1      24.937   6.961  50.209  1.00  0.00     0.145 C 
HETATM   11  C10 UNL     1      25.976   7.910  49.824  1.00  0.00     0.030 C 
HETATM   12  C11 UNL     1      26.852   7.043  49.262  1.00  0.00     0.076 C 
HETATM   13  C12 UNL     1      27.111   5.603  48.965  1.00  0.00    -0.032 C 
HETATM   14  C13 UNL     1      28.395   5.719  48.168  1.00  0.00     0.050 C 
HETATM   15  C14 UNL     1      26.522   4.427  49.198  1.00  0.00    -0.016 C 
HETATM   16  C15 UNL     1      25.761   3.213  49.531  1.00  0.00     0.042 C 
HETATM   17  C16 UNL     1      24.786   3.242  50.585  1.00  0.00     0.081 A 
HETATM   18  C17 UNL     1      23.774   4.312  50.714  1.00  0.00     0.111 A 
HETATM   19  C18 UNL     1      23.010   5.064  50.169  1.00  0.00     0.023 A 
HETATM   20  H10 UNL     1      24.518   7.141  52.546  1.00  0.00     0.154 HD
ENDROOT
BRANCH   1  21
HETATM   21  O2  UNL     1      21.997   3.718  49.282  1.00  0.00    -0.351 OA
BRANCH  21  22
HETATM   22  C2  UNL     1      22.011   3.375  47.935  1.00  0.00     0.338 C 
BRANCH  22  23
HETATM   23  O1  UNL     1      20.965   2.487  47.623  1.00  0.00    -0.372 OA
HETATM   24  C1  UNL     1      19.740   2.921  48.055  1.00  0.00     0.204 C 
ENDBRANCH  22  23
ENDBRANCH  21  22
ENDBRANCH   1  21
BRANCH  12  25
HETATM   25  O4  UNL     1      27.710   8.060  48.951  1.00  0.00    -0.330 OA
BRANCH  25  26
HETATM   26  P1  UNL     1      27.890   9.614  49.665  1.00  0.00     0.009 P 
HETATM   27  H14 UNL     1      28.860  10.450  49.012  1.00  0.00     0.085 HD
HETATM   28  H15 UNL     1      27.957   9.593  51.093  1.00  0.00     0.085 HD
ENDBRANCH  25  26
ENDBRANCH  12  25
TORSDOF 5
ENDMDL
MODEL 5
REMARK VINA RESULT:      -6.8      3.410      6.324
REMARK  5 active torsions:
REMARK  status: ('A' for Active; 'I' for Inactive)
REMARK    1  A    between atoms: O1_2  and  C2_3 
REMARK    2  A    between atoms: C2_3  and  O2_4 
REMARK    3  A    between atoms: O2_4  and  C3_5 
REMARK    4  A    between atoms: C11_16  and  O4_17 
REMARK    5  A    between atoms: O4_17  and  P1_18 
ROOT
HETATM    1  C3  UNL     1      21.235   3.748  50.515  1.00  0.00     0.100 A 
HETATM    2  C4  UNL     1      20.138   4.131  51.292  1.00  0.00     0.067 A 
HETATM    3  O3  UNL     1      19.284   4.780  50.379  1.00  0.00    -0.335 OA
HETATM    4  C5  UNL     1      20.065   5.852  49.708  1.00  0.00     0.323 C 
HETATM    5  N1  UNL     1      21.102   6.351  50.516  1.00  0.00    -0.276 NA
HETATM    6  C6  UNL     1      22.152   5.927  51.048  1.00  0.00     0.111 C 
HETATM    7  C7  UNL     1      23.365   5.299  51.619  1.00  0.00     0.023 C 
HETATM    8  C8  UNL     1      23.682   3.975  51.304  1.00  0.00     0.061 A 
HETATM    9  N2  UNL     1      24.870   3.383  51.916  1.00  0.00    -0.405 N 
HETATM   10  C9  UNL     1      24.563   2.011  51.659  1.00  0.00     0.145 C 
HETATM   11  C10 UNL     1      25.349   0.950  52.281  1.00  0.00     0.030 C 
HETATM   12  C11 UNL     1      24.351   0.309  52.936  1.00  0.00     0.076 C 
HETATM   13  C12 UNL     1      22.888   0.330  53.238  1.00  0.00    -0.032 C 
HETATM   14  C13 UNL     1      22.755  -0.964  54.014  1.00  0.00     0.050 C 
HETATM   15  C14 UNL     1      21.840   1.118  52.980  1.00  0.00    -0.016 C 
HETATM   16  C15 UNL     1      20.786   2.078  52.619  1.00  0.00     0.042 C 
HETATM   17  C16 UNL     1      21.137   3.410  52.209  1.00  0.00     0.081 A 
HETATM   18  C17 UNL     1      22.196   3.692  51.217  1.00  0.00     0.111 A 
HETATM   19  C18 UNL     1      22.745   3.377  50.195  1.00  0.00     0.023 A 
HETATM   20  H10 UNL     1      25.450   4.131  52.283  1.00  0.00     0.154 HD
ENDROOT
BRANCH   1  21
HETATM   21  O2  UNL     1      21.193   3.457  49.095  1.00  0.00    -0.351 OA
BRANCH  21  22
HETATM   22  C2  UNL     1      20.454   2.404  48.567  1.00  0.00     0.338 C 
BRANCH  22  23
HETATM   23  O1  UNL     1      19.777   2.793  47.397  1.00  0.00    -0.372 OA
HETATM   24  C1  UNL     1      20.489   3.671  46.625  1.00  0.00     0.204 C 
ENDBRANCH  22  23
ENDBRANCH  21  22
ENDBRANCH   1  21
BRANCH  12  25
HETATM   25  O4  UNL     1      25.224  -0.625  53.420  1.00  0.00    -0.330 OA
BRANCH  25  26
HETATM   26  P1  UNL     1      26.761  -1.114  52.828  1.00  0.00     0.009 P 
HETATM   27  H14 UNL     1      27.817  -1.030  53.799  1.00  0.00     0.085 HD
HETATM   28  H15 UNL     1      27.076  -0.598  51.531  1.00  0.00     0.085 HD
ENDBRANCH  25  26
ENDBRANCH  12  25
TORSDOF 5
ENDMDL
MODEL 6
REMARK VINA RESULT:      -6.7      3.760      5.909
REMARK  5 active torsions:
REMARK  status: ('A' for Active; 'I' for Inactive)
REMARK    1  A    between atoms: O1_2  and  C2_3 
REMARK    2  A    between atoms: C2_3  and  O2_4 
REMARK    3  A    between atoms: O2_4  and  C3_5 
REMARK    4  A    between atoms: C11_16  and  O4_17 
REMARK    5  A    between atoms: O4_17  and  P1_18 
ROOT
HETATM    1  C3  UNL     1      22.754   4.293  49.489  1.00  0.00     0.100 A 
HETATM    2  C4  UNL     1      23.964   4.600  48.861  1.00  0.00     0.067 A 
HETATM    3  O3  UNL     1      23.744   5.875  48.305  1.00  0.00    -0.335 OA
HETATM    4  C5  UNL     1      22.526   5.798  47.457  1.00  0.00     0.323 C 
HETATM    5  N1  UNL     1      22.315   4.511  46.929  1.00  0.00    -0.276 NA
HETATM    6  C6  UNL     1      22.085   3.358  47.356  1.00  0.00     0.111 C 
HETATM    7  C7  UNL     1      21.816   2.048  47.991  1.00  0.00     0.023 C 
HETATM    8  C8  UNL     1      21.647   1.963  49.376  1.00  0.00     0.061 A 
HETATM    9  N2  UNL     1      21.416   0.646  49.965  1.00  0.00    -0.405 N 
HETATM   10  C9  UNL     1      21.714   0.981  51.323  1.00  0.00     0.145 C 
HETATM   11  C10 UNL     1      21.854  -0.067  52.328  1.00  0.00     0.030 C 
HETATM   12  C11 UNL     1      23.118   0.202  52.734  1.00  0.00     0.076 C 
HETATM   13  C12 UNL     1      24.303   1.081  52.509  1.00  0.00    -0.032 C 
HETATM   14  C13 UNL     1      25.212   0.598  53.621  1.00  0.00     0.050 C 
HETATM   15  C14 UNL     1      24.656   2.067  51.678  1.00  0.00    -0.016 C 
HETATM   16  C15 UNL     1      24.903   3.133  50.696  1.00  0.00     0.042 C 
HETATM   17  C16 UNL     1      24.105   3.212  49.503  1.00  0.00     0.081 A 
HETATM   18  C17 UNL     1      22.630   3.108  49.515  1.00  0.00     0.111 A 
HETATM   19  C18 UNL     1      21.594   3.373  50.065  1.00  0.00     0.023 A 
HETATM   20  H10 UNL     1      21.143   0.006  49.227  1.00  0.00     0.154 HD
ENDROOT
BRANCH   1  21
HETATM   21  O2  UNL     1      21.820   5.263  50.026  1.00  0.00    -0.351 OA
BRANCH  21  22
HETATM   22  C2  UNL     1      22.107   6.041  51.143  1.00  0.00     0.338 C 
BRANCH  22  23
HETATM   23  O1  UNL     1      22.057   7.413  50.835  1.00  0.00    -0.372 OA
HETATM   24  C1  UNL     1      20.925   7.774  50.157  1.00  0.00     0.204 C 
ENDBRANCH  22  23
ENDBRANCH  21  22
ENDBRANCH   1  21
BRANCH  12  25
HETATM   25  O4  UNL     1      23.075  -0.813  53.649  1.00  0.00    -0.330 OA
BRANCH  25  26
HETATM   26  P1  UNL     1      21.740  -1.469  54.510  1.00  0.00     0.009 P 
HETATM   27  H14 UNL     1      21.120  -2.593  53.863  1.00  0.00     0.085 HD
HETATM   28  H15 UNL     1      20.840  -0.485  55.028  1.00  0.00     0.085 HD
ENDBRANCH  25  26
ENDBRANCH  12  25
TORSDOF 5
ENDMDL
MODEL 7
REMARK VINA RESULT:      -6.6      2.801      6.197
REMARK  5 active torsions:
REMARK  status: ('A' for Active; 'I' for Inactive)
REMARK    1  A    between atoms: O1_2  and  C2_3 
REMARK    2  A    between atoms: C2_3  and  O2_4 
REMARK    3  A    between atoms: O2_4  and  C3_5 
REMARK    4  A    between atoms: C11_16  and  O4_17 
REMARK    5  A    between atoms: O4_17  and  P1_18 
ROOT
HETATM    1  C3  UNL     1      20.895   2.105  51.153  1.00  0.00     0.100 A 
HETATM    2  C4  UNL     1      20.518   1.677  49.876  1.00  0.00     0.067 A 
HETATM    3  O3  UNL     1      19.136   1.942  49.824  1.00  0.00    -0.335 OA
HETATM    4  C5  UNL     1      18.500   1.276  50.991  1.00  0.00     0.323 C 
HETATM    5  N1  UNL     1      19.206   0.136  51.414  1.00  0.00    -0.276 NA
HETATM    6  C6  UNL     1      20.335  -0.139  51.878  1.00  0.00     0.111 C 
HETATM    7  C7  UNL     1      21.700  -0.325  52.421  1.00  0.00     0.023 C 
HETATM    8  C8  UNL     1      22.511   0.784  52.672  1.00  0.00     0.061 A 
HETATM    9  N2  UNL     1      23.863   0.553  53.177  1.00  0.00    -0.405 N 
HETATM   10  C9  UNL     1      24.406   1.844  52.889  1.00  0.00     0.145 C 
HETATM   11  C10 UNL     1      25.841   2.083  53.000  1.00  0.00     0.030 C 
HETATM   12  C11 UNL     1      26.083   2.487  51.730  1.00  0.00     0.076 C 
HETATM   13  C12 UNL     1      25.464   2.714  50.390  1.00  0.00    -0.032 C 
HETATM   14  C13 UNL     1      26.644   3.306  49.646  1.00  0.00     0.050 C 
HETATM   15  C14 UNL     1      24.268   2.552  49.817  1.00  0.00    -0.016 C 
HETATM   16  C15 UNL     1      22.902   2.317  49.325  1.00  0.00     0.042 C 
HETATM   17  C16 UNL     1      22.026   1.426  50.032  1.00  0.00     0.081 A 
HETATM   18  C17 UNL     1      21.845   1.474  51.499  1.00  0.00     0.111 A 
HETATM   19  C18 UNL     1      21.746   2.144  52.493  1.00  0.00     0.023 A 
HETATM   20  H10 UNL     1      23.918  -0.397  53.528  1.00  0.00     0.154 HD
ENDROOT
BRANCH   1  21
HETATM   21  O2  UNL     1      20.239   3.151  51.912  1.00  0.00    -0.351 OA
BRANCH  21  22
HETATM   22  C2  UNL     1      19.949   4.399  51.373  1.00  0.00     0.338 C 
BRANCH  22  23
HETATM   23  O1  UNL     1      21.036   4.900  50.633  1.00  0.00    -0.372 OA
HETATM   24  C1  UNL     1      21.815   5.775  51.340  1.00  0.00     0.204 C 
ENDBRANCH  22  23
ENDBRANCH  21  22
ENDBRANCH   1  21
BRANCH  12  25
HETATM   25  O4  UNL     1      27.407   2.682  52.010  1.00  0.00    -0.330 OA
BRANCH  25  26
HETATM   26  P1  UNL     1      28.348   2.138  53.341  1.00  0.00     0.009 P 
HETATM   27  H14 UNL     1      27.919   2.654  54.612  1.00  0.00     0.085 HD
HETATM   28  H15 UNL     1      29.759   2.170  53.108  1.00  0.00     0.085 HD
ENDBRANCH  25  26
ENDBRANCH  12  25
TORSDOF 5
ENDMDL
MODEL 8
REMARK VINA RESULT:      -6.5      3.921      6.344
REMARK  5 active torsions:
REMARK  status: ('A' for Active; 'I' for Inactive)
REMARK    1  A    between atoms: O1_2  and  C2_3 
REMARK    2  A    between atoms: C2_3  and  O2_4 
REMARK    3  A    between atoms: O2_4  and  C3_5 
REMARK    4  A    between atoms: C11_16  and  O4_17 
REMARK    5  A    between atoms: O4_17  and  P1_18 
ROOT
HETATM    1  C3  UNL     1      21.862   2.402  51.481  1.00  0.00     0.100 A 
HETATM    2  C4  UNL     1      22.270   1.293  50.732  1.00  0.00     0.067 A 
HETATM    3  O3  UNL     1      21.485   0.237  51.235  1.00  0.00    -0.335 OA
HETATM    4  C5  UNL     1      21.679   0.187  52.707  1.00  0.00     0.323 C 
HETATM    5  N1  UNL     1      22.939   0.670  53.104  1.00  0.00    -0.276 NA
HETATM    6  C6  UNL     1      23.577   1.745  53.062  1.00  0.00     0.111 C 
HETATM    7  C7  UNL     1      24.219   3.074  52.949  1.00  0.00     0.023 C 
HETATM    8  C8  UNL     1      23.502   4.155  52.428  1.00  0.00     0.061 A 
HETATM    9  N2  UNL     1      24.184   5.442  52.303  1.00  0.00    -0.405 N 
HETATM   10  C9  UNL     1      23.268   6.065  51.400  1.00  0.00     0.145 C 
HETATM   11  C10 UNL     1      23.610   7.331  50.759  1.00  0.00     0.030 C 
HETATM   12  C11 UNL     1      23.510   6.943  49.466  1.00  0.00     0.076 C 
HETATM   13  C12 UNL     1      23.236   5.784  48.564  1.00  0.00    -0.032 C 
HETATM   14  C13 UNL     1      23.269   6.477  47.217  1.00  0.00     0.050 C 
HETATM   15  C14 UNL     1      22.981   4.478  48.688  1.00  0.00    -0.016 C 
HETATM   16  C15 UNL     1      22.715   3.061  48.979  1.00  0.00     0.042 C 
HETATM   17  C16 UNL     1      23.079   2.509  50.254  1.00  0.00     0.081 A 
HETATM   18  C17 UNL     1      22.767   3.174  51.537  1.00  0.00     0.111 A 
HETATM   19  C18 UNL     1      21.988   3.817  52.189  1.00  0.00     0.023 A 
HETATM   20  H10 UNL     1      25.021   5.420  52.877  1.00  0.00     0.154 HD
ENDROOT
BRANCH   1  21
HETATM   21  O2  UNL     1      20.550   2.575  52.072  1.00  0.00    -0.351 OA
BRANCH  21  22
HETATM   22  C2  UNL     1      19.405   2.781  51.310  1.00  0.00     0.338 C 
BRANCH  22  23
HETATM   23  O1  UNL     1      18.493   3.619  51.977  1.00  0.00    -0.372 OA
HETATM   24  C1  UNL     1      17.191   3.399  51.615  1.00  0.00     0.204 C 
ENDBRANCH  22  23
ENDBRANCH  21  22
ENDBRANCH   1  21
BRANCH  12  25
HETATM   25  O4  UNL     1      23.824   8.200  49.030  1.00  0.00    -0.330 OA
BRANCH  25  26
HETATM   26  P1  UNL     1      25.294   9.081  49.162  1.00  0.00     0.009 P 
HETATM   27  H14 UNL     1      25.282  10.091  50.184  1.00  0.00     0.085 HD
HETATM   28  H15 UNL     1      25.845   9.484  47.905  1.00  0.00     0.085 HD
ENDBRANCH  25  26
ENDBRANCH  12  25
TORSDOF 5
ENDMDL
MODEL 9
REMARK VINA RESULT:      -6.5      2.283      2.795
REMARK  5 active torsions:
REMARK  status: ('A' for Active; 'I' for Inactive)
REMARK    1  A    between atoms: O1_2  and  C2_3 
REMARK    2  A    between atoms: C2_3  and  O2_4 
REMARK    3  A    between atoms: O2_4  and  C3_5 
REMARK    4  A    between atoms: C11_16  and  O4_17 
REMARK    5  A    between atoms: O4_17  and  P1_18 
ROOT
HETATM    1  C3  UNL     1      24.935   2.164  52.351  1.00  0.00     0.100 A 
HETATM    2  C4  UNL     1      25.127   2.588  53.670  1.00  0.00     0.067 A 
HETATM    3  O3  UNL     1      26.374   2.038  54.024  1.00  0.00    -0.335 OA
HETATM    4  C5  UNL     1      26.316   0.575  53.769  1.00  0.00     0.323 C 
HETATM    5  N1  UNL     1      25.013   0.057  53.884  1.00  0.00    -0.276 NA
HETATM    6  C6  UNL     1      23.906   0.195  53.318  1.00  0.00     0.111 C 
HETATM    7  C7  UNL     1      22.659   0.451  52.563  1.00  0.00     0.023 C 
HETATM    8  C8  UNL     1      22.674   1.300  51.453  1.00  0.00     0.061 A 
HETATM    9  N2  UNL     1      21.414   1.552  50.757  1.00  0.00    -0.405 N 
HETATM   10  C9  UNL     1      21.818   2.715  50.030  1.00  0.00     0.145 C 
HETATM   11  C10 UNL     1      20.830   3.521  49.320  1.00  0.00     0.030 C 
HETATM   12  C11 UNL     1      21.048   4.707  49.938  1.00  0.00     0.076 C 
HETATM   13  C12 UNL     1      21.838   5.393  51.003  1.00  0.00    -0.032 C 
HETATM   14  C13 UNL     1      21.374   6.822  50.805  1.00  0.00     0.050 C 
HETATM   15  C14 UNL     1      22.744   5.060  51.927  1.00  0.00    -0.016 C 
HETATM   16  C15 UNL     1      23.728   4.546  52.891  1.00  0.00     0.042 C 
HETATM   17  C16 UNL     1      23.777   3.141  53.189  1.00  0.00     0.081 A 
HETATM   18  C17 UNL     1      23.764   2.097  52.142  1.00  0.00     0.111 A 
HETATM   19  C18 UNL     1      24.126   1.742  51.051  1.00  0.00     0.023 A 
HETATM   20  H10 UNL     1      20.745   0.841  51.034  1.00  0.00     0.154 HD
ENDROOT
BRANCH   1  21
HETATM   21  O2  UNL     1      25.993   1.872  51.404  1.00  0.00    -0.351 OA
BRANCH  21  22
HETATM   22  C2  UNL     1      26.897   2.835  50.969  1.00  0.00     0.338 C 
BRANCH  22  23
HETATM   23  O1  UNL     1      26.836   2.998  49.573  1.00  0.00    -0.372 OA
HETATM   24  C1  UNL     1      26.833   4.310  49.181  1.00  0.00     0.204 C 
ENDBRANCH  22  23
ENDBRANCH  21  22
ENDBRANCH   1  21
BRANCH  12  25
HETATM   25  O4  UNL     1      20.099   5.319  49.167  1.00  0.00    -0.330 OA
BRANCH  25  26
HETATM   26  P1  UNL     1      19.134   4.690  47.892  1.00  0.00     0.009 P 
HETATM   27  H14 UNL     1      19.047   5.549  46.743  1.00  0.00     0.085 HD
HETATM   28  H15 UNL     1      17.898   4.117  48.327  1.00  0.00     0.085 HD
ENDBRANCH  25  26
ENDBRANCH  12  25
TORSDOF 5
ENDMDL
