MODEL 1
REMARK VINA RESULT:      -8.8      0.000      0.000
REMARK  7 active torsions:
REMARK  status: ('A' for Active; 'I' for Inactive)
REMARK    1  A    between atoms: C1_2  and  C2_3 
REMARK       I    between atoms: C1_2  and  N2_13 
REMARK    2  A    between atoms: C3_4  and  C4_5 
REMARK    3  A    between atoms: C4_5  and  C5_6 
REMARK    4  A    between atoms: C5_6  and  N1_7 
REMARK    5  A    between atoms: N2_13  and  C10_14 
REMARK    6  A    between atoms: C13_19  and  N5_20 
REMARK    7  A    between atoms: N5_20  and  C14_21 
ROOT
HETATM    1  C10 UNL     1      24.654   4.332  50.184  1.00  0.00     0.357 C 
HETATM    2  N3  UNL     1      24.068   5.481  50.870  1.00  0.00     0.120 N 
HETATM    3  C11 UNL     1      23.091   5.011  51.825  1.00  0.00     0.268 C 
HETATM    4  C12 UNL     1      23.739   4.369  53.064  1.00  0.00     0.127 C 
HETATM    5  N4  UNL     1      24.375   3.247  53.426  1.00  0.00    -0.245 NA
HETATM    6  C13 UNL     1      24.758   2.520  52.191  1.00  0.00     0.133 C 
HETATM    7  C20 UNL     1      24.269   3.339  51.271  1.00  0.00     0.020 C 
HETATM    8  C21 UNL     1      22.757   3.658  51.072  1.00  0.00     0.083 C 
HETATM    9  H15 UNL     1      24.706   6.200  51.172  1.00  0.00     0.320 HD
ENDROOT
BRANCH   1  10
HETATM   10  N2  UNL     1      25.982   4.379  49.807  1.00  0.00    -0.317 N 
HETATM   11  C1  UNL     1      26.452   5.391  48.901  1.00  0.00     0.298 C 
HETATM   12  O1  UNL     1      25.617   6.234  48.459  1.00  0.00    -0.258 OA
HETATM   13  H13 UNL     1      26.728   3.702  50.144  1.00  0.00     0.165 HD
BRANCH  11  14
HETATM   14  C2  UNL     1      27.846   5.427  48.517  1.00  0.00    -0.006 C 
HETATM   15  C3  UNL     1      29.023   5.444  48.206  1.00  0.00    -0.095 C 
BRANCH  15  16
HETATM   16  C4  UNL     1      30.438   5.484  47.823  1.00  0.00     0.124 C 
BRANCH  16  17
HETATM   17  C5  UNL     1      31.261   6.144  48.917  1.00  0.00     0.284 C 
BRANCH  17  18
HETATM   18  N1  UNL     1      32.560   5.512  49.008  1.00  0.00     0.093 N 
HETATM   19  C6  UNL     1      32.667   4.440  48.069  1.00  0.00     0.298 C 
HETATM   20  C7  UNL     1      34.015   4.455  47.382  1.00  0.00     0.198 C 
HETATM   21  O2  UNL     1      35.011   4.632  48.334  1.00  0.00    -0.388 OA
HETATM   22  C8  UNL     1      34.942   5.968  48.766  1.00  0.00     0.198 C 
HETATM   23  C9  UNL     1      33.548   6.526  48.613  1.00  0.00     0.298 C 
ENDBRANCH  17  18
ENDBRANCH  16  17
ENDBRANCH  15  16
ENDBRANCH  11  14
ENDBRANCH   1  10
BRANCH   6  24
HETATM   24  N5  UNL     1      25.424   1.405  51.585  1.00  0.00    -0.341 N 
HETATM   25  H18 UNL     1      25.019   1.111  50.695  1.00  0.00     0.167 HD
BRANCH  24  26
HETATM   26  C14 UNL     1      26.539   0.862  52.284  1.00  0.00     0.035 A 
HETATM   27  C15 UNL     1      26.693  -0.522  52.261  1.00  0.00     0.032 A 
HETATM   28  C16 UNL     1      27.784  -1.078  52.944  1.00  0.00     0.046 A 
HETATM   29  C17 UNL     1      28.695  -0.302  53.627  1.00  0.00     0.138 A 
HETATM   30  F1  UNL     1      29.755  -0.821  54.293  1.00  0.00    -0.204 F 
HETATM   31  C18 UNL     1      28.516   1.066  53.632  1.00  0.00     0.074 A 
HETATM   32 CL1  UNL     1      29.586   2.180  54.453  1.00  0.00    -0.081 Cl
HETATM   33  C19 UNL     1      27.448   1.635  52.966  1.00  0.00     0.056 A 
ENDBRANCH  24  26
ENDBRANCH   6  24
TORSDOF 7
ENDMDL
MODEL 2
REMARK VINA RESULT:      -8.8      5.658     10.304
REMARK  7 active torsions:
REMARK  status: ('A' for Active; 'I' for Inactive)
REMARK    1  A    between atoms: C1_2  and  C2_3 
REMARK       I    between atoms: C1_2  and  N2_13 
REMARK    2  A    between atoms: C3_4  and  C4_5 
REMARK    3  A    between atoms: C4_5  and  C5_6 
REMARK    4  A    between atoms: C5_6  and  N1_7 
REMARK    5  A    between atoms: N2_13  and  C10_14 
REMARK    6  A    between atoms: C13_19  and  N5_20 
REMARK    7  A    between atoms: N5_20  and  C14_21 
ROOT
HETATM    1  C10 UNL     1      27.338  -0.581  52.998  1.00  0.00     0.357 C 
HETATM    2  N3  UNL     1      28.048  -0.954  54.219  1.00  0.00     0.120 N 
HETATM    3  C11 UNL     1      29.235  -0.139  54.339  1.00  0.00     0.268 C 
HETATM    4  C12 UNL     1      28.919   1.310  54.745  1.00  0.00     0.127 C 
HETATM    5  N4  UNL     1      28.412   2.435  54.226  1.00  0.00    -0.245 NA
HETATM    6  C13 UNL     1      27.757   2.091  52.940  1.00  0.00     0.133 C 
HETATM    7  C20 UNL     1      27.993   0.788  52.894  1.00  0.00     0.020 C 
HETATM    8  C21 UNL     1      29.405   0.139  52.789  1.00  0.00     0.083 C 
HETATM    9  H15 UNL     1      27.487  -1.083  55.046  1.00  0.00     0.320 HD
ENDROOT
BRANCH   1  10
HETATM   10  N2  UNL     1      25.957  -0.628  52.982  1.00  0.00    -0.317 N 
HETATM   11  C1  UNL     1      25.206  -0.533  54.204  1.00  0.00     0.298 C 
HETATM   12  O1  UNL     1      25.843  -0.406  55.291  1.00  0.00    -0.258 OA
HETATM   13  H13 UNL     1      25.367  -0.732  52.105  1.00  0.00     0.165 HD
BRANCH  11  14
HETATM   14  C2  UNL     1      23.761  -0.583  54.171  1.00  0.00    -0.006 C 
HETATM   15  C3  UNL     1      22.544  -0.642  54.153  1.00  0.00    -0.095 C 
BRANCH  15  16
HETATM   16  C4  UNL     1      21.080  -0.699  54.114  1.00  0.00     0.124 C 
BRANCH  16  17
HETATM   17  C5  UNL     1      20.581  -0.478  52.697  1.00  0.00     0.284 C 
BRANCH  17  18
HETATM   18  N1  UNL     1      19.192  -0.068  52.719  1.00  0.00     0.093 N 
HETATM   19  C6  UNL     1      18.809   0.485  51.459  1.00  0.00     0.298 C 
HETATM   20  C7  UNL     1      17.444  -0.018  51.039  1.00  0.00     0.198 C 
HETATM   21  O2  UNL     1      16.574   0.070  52.117  1.00  0.00    -0.388 OA
HETATM   22  C8  UNL     1      16.937  -0.936  53.030  1.00  0.00     0.198 C 
HETATM   23  C9  UNL     1      18.398  -1.291  52.908  1.00  0.00     0.298 C 
ENDBRANCH  17  18
ENDBRANCH  16  17
ENDBRANCH  15  16
ENDBRANCH  11  14
ENDBRANCH   1  10
BRANCH   6  24
HETATM   24  N5  UNL     1      26.988   2.514  51.807  1.00  0.00    -0.341 N 
HETATM   25  H18 UNL     1      27.550   2.764  50.992  1.00  0.00     0.167 HD
BRANCH  24  26
HETATM   26  C14 UNL     1      25.572   2.532  51.958  1.00  0.00     0.035 A 
HETATM   27  C15 UNL     1      25.064   3.063  53.142  1.00  0.00     0.032 A 
HETATM   28  C16 UNL     1      23.673   3.089  53.312  1.00  0.00     0.046 A 
HETATM   29  C17 UNL     1      22.807   2.609  52.353  1.00  0.00     0.138 A 
HETATM   30  F1  UNL     1      21.461   2.625  52.500  1.00  0.00    -0.204 F 
HETATM   31  C18 UNL     1      23.340   2.088  51.193  1.00  0.00     0.074 A 
HETATM   32 CL1  UNL     1      22.371   1.442  49.886  1.00  0.00    -0.081 Cl
HETATM   33  C19 UNL     1      24.707   2.053  51.004  1.00  0.00     0.056 A 
ENDBRANCH  24  26
ENDBRANCH   6  24
TORSDOF 7
ENDMDL
MODEL 3
REMARK VINA RESULT:      -8.7      5.197      9.442
REMARK  7 active torsions:
REMARK  status: ('A' for Active; 'I' for Inactive)
REMARK    1  A    between atoms: C1_2  and  C2_3 
REMARK       I    between atoms: C1_2  and  N2_13 
REMARK    2  A    between atoms: C3_4  and  C4_5 
REMARK    3  A    between atoms: C4_5  and  C5_6 
REMARK    4  A    between atoms: C5_6  and  N1_7 
REMARK    5  A    between atoms: N2_13  and  C10_14 
REMARK    6  A    between atoms: C13_19  and  N5_20 
REMARK    7  A    between atoms: N5_20  and  C14_21 
ROOT
HETATM    1  C10 UNL     1      26.663  -0.466  53.713  1.00  0.00     0.357 C 
HETATM    2  N3  UNL     1      27.366  -0.322  54.986  1.00  0.00     0.120 N 
HETATM    3  C11 UNL     1      28.700   0.172  54.732  1.00  0.00     0.268 C 
HETATM    4  C12 UNL     1      28.714   1.661  54.346  1.00  0.00     0.127 C 
HETATM    5  N4  UNL     1      28.412   2.457  53.312  1.00  0.00    -0.245 NA
HETATM    6  C13 UNL     1      27.612   1.666  52.345  1.00  0.00     0.133 C 
HETATM    7  C20 UNL     1      27.574   0.497  52.967  1.00  0.00     0.020 C 
HETATM    8  C21 UNL     1      28.814  -0.400  53.260  1.00  0.00     0.083 C 
HETATM    9  H15 UNL     1      26.849   0.098  55.741  1.00  0.00     0.320 HD
ENDROOT
BRANCH   1  10
HETATM   10  N2  UNL     1      25.304  -0.222  53.664  1.00  0.00    -0.317 N 
HETATM   11  C1  UNL     1      24.416  -0.824  54.620  1.00  0.00     0.298 C 
HETATM   12  O1  UNL     1      24.912  -1.582  55.505  1.00  0.00    -0.258 OA
HETATM   13  H13 UNL     1      24.830   0.404  52.949  1.00  0.00     0.165 HD
BRANCH  11  14
HETATM   14  C2  UNL     1      22.996  -0.558  54.556  1.00  0.00    -0.006 C 
HETATM   15  C3  UNL     1      21.797  -0.352  54.494  1.00  0.00    -0.095 C 
BRANCH  15  16
HETATM   16  C4  UNL     1      20.358  -0.081  54.420  1.00  0.00     0.124 C 
BRANCH  16  17
HETATM   17  C5  UNL     1      19.877  -0.175  52.982  1.00  0.00     0.284 C 
BRANCH  17  18
HETATM   18  N1  UNL     1      20.444   0.903  52.199  1.00  0.00     0.093 N 
HETATM   19  C6  UNL     1      20.972   0.408  50.967  1.00  0.00     0.298 C 
HETATM   20  C7  UNL     1      20.609   1.322  49.817  1.00  0.00     0.198 C 
HETATM   21  O2  UNL     1      20.853   2.638  50.185  1.00  0.00    -0.388 OA
HETATM   22  C8  UNL     1      19.860   3.003  51.111  1.00  0.00     0.198 C 
HETATM   23  C9  UNL     1      19.333   1.802  51.858  1.00  0.00     0.298 C 
ENDBRANCH  17  18
ENDBRANCH  16  17
ENDBRANCH  15  16
ENDBRANCH  11  14
ENDBRANCH   1  10
BRANCH   6  24
HETATM   24  N5  UNL     1      26.869   1.622  51.120  1.00  0.00    -0.341 N 
HETATM   25  H18 UNL     1      26.951   0.739  50.614  1.00  0.00     0.167 HD
BRANCH  24  26
HETATM   26  C14 UNL     1      26.125   2.786  50.775  1.00  0.00     0.035 A 
HETATM   27  C15 UNL     1      26.570   3.526  49.681  1.00  0.00     0.032 A 
HETATM   28  C16 UNL     1      25.854   4.676  49.324  1.00  0.00     0.046 A 
HETATM   29  C17 UNL     1      24.736   5.088  50.017  1.00  0.00     0.138 A 
HETATM   30  F1  UNL     1      24.031   6.198  49.688  1.00  0.00    -0.204 F 
HETATM   31  C18 UNL     1      24.320   4.336  51.095  1.00  0.00     0.074 A 
HETATM   32 CL1  UNL     1      22.921   4.731  52.070  1.00  0.00    -0.081 Cl
HETATM   33  C19 UNL     1      25.010   3.199  51.465  1.00  0.00     0.056 A 
ENDBRANCH  24  26
ENDBRANCH   6  24
TORSDOF 7
ENDMDL
MODEL 4
REMARK VINA RESULT:      -8.4      5.378     10.608
REMARK  7 active torsions:
REMARK  status: ('A' for Active; 'I' for Inactive)
REMARK    1  A    between atoms: C1_2  and  C2_3 
REMARK       I    between atoms: C1_2  and  N2_13 
REMARK    2  A    between atoms: C3_4  and  C4_5 
REMARK    3  A    between atoms: C4_5  and  C5_6 
REMARK    4  A    between atoms: C5_6  and  N1_7 
REMARK    5  A    between atoms: N2_13  and  C10_14 
REMARK    6  A    between atoms: C13_19  and  N5_20 
REMARK    7  A    between atoms: N5_20  and  C14_21 
ROOT
HETATM    1  C10 UNL     1      26.680  -0.453  53.735  1.00  0.00     0.357 C 
HETATM    2  N3  UNL     1      27.401  -0.274  54.993  1.00  0.00     0.120 N 
HETATM    3  C11 UNL     1      28.724   0.231  54.708  1.00  0.00     0.268 C 
HETATM    4  C12 UNL     1      28.714   1.711  54.290  1.00  0.00     0.127 C 
HETATM    5  N4  UNL     1      28.385   2.482  53.245  1.00  0.00    -0.245 NA
HETATM    6  C13 UNL     1      27.581   1.660  52.307  1.00  0.00     0.133 C 
HETATM    7  C20 UNL     1      27.567   0.504  52.954  1.00  0.00     0.020 C 
HETATM    8  C21 UNL     1      28.823  -0.371  53.246  1.00  0.00     0.083 C 
HETATM    9  H15 UNL     1      26.891   0.156  55.748  1.00  0.00     0.320 HD
ENDROOT
BRANCH   1  10
HETATM   10  N2  UNL     1      25.318  -0.227  53.703  1.00  0.00    -0.317 N 
HETATM   11  C1  UNL     1      24.447  -0.852  54.661  1.00  0.00     0.298 C 
HETATM   12  O1  UNL     1      24.963  -1.613  55.532  1.00  0.00    -0.258 OA
HETATM   13  H13 UNL     1      24.827   0.400  52.999  1.00  0.00     0.165 HD
BRANCH  11  14
HETATM   14  C2  UNL     1      23.023  -0.604  54.614  1.00  0.00    -0.006 C 
HETATM   15  C3  UNL     1      21.826  -0.384  54.560  1.00  0.00    -0.095 C 
BRANCH  15  16
HETATM   16  C4  UNL     1      20.384  -0.125  54.515  1.00  0.00     0.124 C 
BRANCH  16  17
HETATM   17  C5  UNL     1      19.737  -0.938  53.407  1.00  0.00     0.284 C 
BRANCH  17  18
HETATM   18  N1  UNL     1      18.573  -0.242  52.898  1.00  0.00     0.093 N 
HETATM   19  C6  UNL     1      18.710   0.013  51.498  1.00  0.00     0.298 C 
HETATM   20  C7  UNL     1      17.417  -0.272  50.767  1.00  0.00     0.198 C 
HETATM   21  O2  UNL     1      16.362   0.299  51.466  1.00  0.00    -0.388 OA
HETATM   22  C8  UNL     1      16.163  -0.472  52.625  1.00  0.00     0.198 C 
HETATM   23  C9  UNL     1      17.435  -1.159  53.055  1.00  0.00     0.298 C 
ENDBRANCH  17  18
ENDBRANCH  16  17
ENDBRANCH  15  16
ENDBRANCH  11  14
ENDBRANCH   1  10
BRANCH   6  24
HETATM   24  N5  UNL     1      26.819   1.581  51.096  1.00  0.00    -0.341 N 
HETATM   25  H18 UNL     1      26.819   0.657  50.663  1.00  0.00     0.167 HD
BRANCH  24  26
HETATM   26  C14 UNL     1      26.172   2.773  50.662  1.00  0.00     0.035 A 
HETATM   27  C15 UNL     1      24.865   2.984  51.096  1.00  0.00     0.032 A 
HETATM   28  C16 UNL     1      24.209   4.150  50.679  1.00  0.00     0.046 A 
HETATM   29  C17 UNL     1      24.815   5.080  49.862  1.00  0.00     0.138 A 
HETATM   30  F1  UNL     1      24.197   6.213  49.448  1.00  0.00    -0.204 F 
HETATM   31  C18 UNL     1      26.109   4.844  49.448  1.00  0.00     0.074 A 
HETATM   32 CL1  UNL     1      27.008   5.930  48.412  1.00  0.00    -0.081 Cl
HETATM   33  C19 UNL     1      26.774   3.702  49.847  1.00  0.00     0.056 A 
ENDBRANCH  24  26
ENDBRANCH   6  24
TORSDOF 7
ENDMDL
MODEL 5
REMARK VINA RESULT:      -8.4      1.861      2.360
REMARK  7 active torsions:
REMARK  status: ('A' for Active; 'I' for Inactive)
REMARK    1  A    between atoms: C1_2  and  C2_3 
REMARK       I    between atoms: C1_2  and  N2_13 
REMARK    2  A    between atoms: C3_4  and  C4_5 
REMARK    3  A    between atoms: C4_5  and  C5_6 
REMARK    4  A    between atoms: C5_6  and  N1_7 
REMARK    5  A    between atoms: N2_13  and  C10_14 
REMARK    6  A    between atoms: C13_19  and  N5_20 
REMARK    7  A    between atoms: N5_20  and  C14_21 
ROOT
HETATM    1  C10 UNL     1      24.629   4.267  50.127  1.00  0.00     0.357 C 
HETATM    2  N3  UNL     1      23.991   5.394  50.804  1.00  0.00     0.120 N 
HETATM    3  C11 UNL     1      23.003   4.888  51.729  1.00  0.00     0.268 C 
HETATM    4  C12 UNL     1      23.635   4.256  52.980  1.00  0.00     0.127 C 
HETATM    5  N4  UNL     1      24.294   3.151  53.353  1.00  0.00    -0.245 NA
HETATM    6  C13 UNL     1      24.732   2.445  52.124  1.00  0.00     0.133 C 
HETATM    7  C20 UNL     1      24.245   3.256  51.196  1.00  0.00     0.020 C 
HETATM    8  C21 UNL     1      22.730   3.532  50.958  1.00  0.00     0.083 C 
HETATM    9  H15 UNL     1      24.599   6.128  51.128  1.00  0.00     0.320 HD
ENDROOT
BRANCH   1  10
HETATM   10  N2  UNL     1      25.965   4.356  49.787  1.00  0.00    -0.317 N 
HETATM   11  C1  UNL     1      26.428   5.381  48.892  1.00  0.00     0.298 C 
HETATM   12  O1  UNL     1      25.579   6.196  48.425  1.00  0.00    -0.258 OA
HETATM   13  H13 UNL     1      26.723   3.704  50.146  1.00  0.00     0.165 HD
BRANCH  11  14
HETATM   14  C2  UNL     1      27.830   5.461  48.546  1.00  0.00    -0.006 C 
HETATM   15  C3  UNL     1      29.006   5.534  48.238  1.00  0.00    -0.095 C 
BRANCH  15  16
HETATM   16  C4  UNL     1      30.426   5.608  47.882  1.00  0.00     0.124 C 
BRANCH  16  17
HETATM   17  C5  UNL     1      31.135   6.628  48.757  1.00  0.00     0.284 C 
BRANCH  17  18
HETATM   18  N1  UNL     1      30.917   7.962  48.237  1.00  0.00     0.093 N 
HETATM   19  C6  UNL     1      30.143   8.740  49.153  1.00  0.00     0.298 C 
HETATM   20  C7  UNL     1      30.702  10.140  49.281  1.00  0.00     0.198 C 
HETATM   21  O2  UNL     1      30.969  10.642  48.014  1.00  0.00    -0.388 OA
HETATM   22  C8  UNL     1      32.105   9.969  47.530  1.00  0.00     0.198 C 
HETATM   23  C9  UNL     1      32.239   8.598  48.147  1.00  0.00     0.298 C 
ENDBRANCH  17  18
ENDBRANCH  16  17
ENDBRANCH  15  16
ENDBRANCH  11  14
ENDBRANCH   1  10
BRANCH   6  24
HETATM   24  N5  UNL     1      25.447   1.354  51.530  1.00  0.00    -0.341 N 
HETATM   25  H18 UNL     1      25.079   1.059  50.624  1.00  0.00     0.167 HD
BRANCH  24  26
HETATM   26  C14 UNL     1      26.554   0.834  52.259  1.00  0.00     0.035 A 
HETATM   27  C15 UNL     1      26.703  -0.551  52.289  1.00  0.00     0.032 A 
HETATM   28  C16 UNL     1      27.784  -1.085  53.003  1.00  0.00     0.046 A 
HETATM   29  C17 UNL     1      28.691  -0.287  53.666  1.00  0.00     0.138 A 
HETATM   30  F1  UNL     1      29.742  -0.784  54.361  1.00  0.00    -0.204 F 
HETATM   31  C18 UNL     1      28.517   1.081  53.619  1.00  0.00     0.074 A 
HETATM   32 CL1  UNL     1      29.583   2.221  54.409  1.00  0.00    -0.081 Cl
HETATM   33  C19 UNL     1      27.459   1.628  52.922  1.00  0.00     0.056 A 
ENDBRANCH  24  26
ENDBRANCH   6  24
TORSDOF 7
ENDMDL
MODEL 6
REMARK VINA RESULT:      -8.2      3.919      7.572
REMARK  7 active torsions:
REMARK  status: ('A' for Active; 'I' for Inactive)
REMARK    1  A    between atoms: C1_2  and  C2_3 
REMARK       I    between atoms: C1_2  and  N2_13 
REMARK    2  A    between atoms: C3_4  and  C4_5 
REMARK    3  A    between atoms: C4_5  and  C5_6 
REMARK    4  A    between atoms: C5_6  and  N1_7 
REMARK    5  A    between atoms: N2_13  and  C10_14 
REMARK    6  A    between atoms: C13_19  and  N5_20 
REMARK    7  A    between atoms: N5_20  and  C14_21 
ROOT
HETATM    1  C10 UNL     1      24.342   6.376  51.149  1.00  0.00     0.357 C 
HETATM    2  N3  UNL     1      23.025   6.815  50.694  1.00  0.00     0.120 N 
HETATM    3  C11 UNL     1      23.192   7.876  49.727  1.00  0.00     0.268 C 
HETATM    4  C12 UNL     1      23.693   7.361  48.367  1.00  0.00     0.127 C 
HETATM    5  N4  UNL     1      24.811   6.899  47.792  1.00  0.00    -0.245 NA
HETATM    6  C13 UNL     1      25.782   6.584  48.869  1.00  0.00     0.133 C 
HETATM    7  C20 UNL     1      25.075   6.927  49.936  1.00  0.00     0.020 C 
HETATM    8  C21 UNL     1      24.597   8.373  50.263  1.00  0.00     0.083 C 
HETATM    9  H15 UNL     1      22.357   6.093  50.481  1.00  0.00     0.320 HD
ENDROOT
BRANCH   1  10
HETATM   10  N2  UNL     1      24.536   5.043  51.458  1.00  0.00    -0.317 N 
HETATM   11  C1  UNL     1      23.641   4.359  52.351  1.00  0.00     0.298 C 
HETATM   12  O1  UNL     1      22.674   5.010  52.844  1.00  0.00    -0.258 OA
HETATM   13  H13 UNL     1      25.327   4.445  51.076  1.00  0.00     0.165 HD
BRANCH  11  14
HETATM   14  C2  UNL     1      23.858   2.964  52.664  1.00  0.00    -0.006 C 
HETATM   15  C3  UNL     1      24.039   1.793  52.946  1.00  0.00    -0.095 C 
BRANCH  15  16
HETATM   16  C4  UNL     1      24.267   0.381  53.267  1.00  0.00     0.124 C 
BRANCH  16  17
HETATM   17  C5  UNL     1      25.713   0.005  52.995  1.00  0.00     0.284 C 
BRANCH  17  18
HETATM   18  N1  UNL     1      26.599   0.867  53.750  1.00  0.00     0.093 N 
HETATM   19  C6  UNL     1      27.330   0.113  54.719  1.00  0.00     0.298 C 
HETATM   20  C7  UNL     1      28.782   0.541  54.754  1.00  0.00     0.198 C 
HETATM   21  O2  UNL     1      28.849   1.927  54.773  1.00  0.00    -0.388 OA
HETATM   22  C8  UNL     1      28.491   2.380  53.490  1.00  0.00     0.198 C 
HETATM   23  C9  UNL     1      27.580   1.399  52.794  1.00  0.00     0.298 C 
ENDBRANCH  17  18
ENDBRANCH  16  17
ENDBRANCH  15  16
ENDBRANCH  11  14
ENDBRANCH   1  10
BRANCH   6  24
HETATM   24  N5  UNL     1      27.063   6.064  49.246  1.00  0.00    -0.341 N 
HETATM   25  H18 UNL     1      27.040   5.453  50.064  1.00  0.00     0.167 HD
BRANCH  24  26
HETATM   26  C14 UNL     1      28.178   6.452  48.450  1.00  0.00     0.035 A 
HETATM   27  C15 UNL     1      28.124   7.707  47.847  1.00  0.00     0.032 A 
HETATM   28  C16 UNL     1      29.210   8.110  47.058  1.00  0.00     0.046 A 
HETATM   29  C17 UNL     1      30.314   7.307  46.865  1.00  0.00     0.138 A 
HETATM   30  F1  UNL     1      31.373   7.678  46.105  1.00  0.00    -0.204 F 
HETATM   31  C18 UNL     1      30.338   6.070  47.474  1.00  0.00     0.074 A 
HETATM   32 CL1  UNL     1      31.667   4.942  47.323  1.00  0.00    -0.081 Cl
HETATM   33  C19 UNL     1      29.279   5.653  48.256  1.00  0.00     0.056 A 
ENDBRANCH  24  26
ENDBRANCH   6  24
TORSDOF 7
ENDMDL
MODEL 7
REMARK VINA RESULT:      -8.2      4.620      7.262
REMARK  7 active torsions:
REMARK  status: ('A' for Active; 'I' for Inactive)
REMARK    1  A    between atoms: C1_2  and  C2_3 
REMARK       I    between atoms: C1_2  and  N2_13 
REMARK    2  A    between atoms: C3_4  and  C4_5 
REMARK    3  A    between atoms: C4_5  and  C5_6 
REMARK    4  A    between atoms: C5_6  and  N1_7 
REMARK    5  A    between atoms: N2_13  and  C10_14 
REMARK    6  A    between atoms: C13_19  and  N5_20 
REMARK    7  A    between atoms: N5_20  and  C14_21 
ROOT
HETATM    1  C10 UNL     1      21.066   3.615  51.115  1.00  0.00     0.357 C 
HETATM    2  N3  UNL     1      20.048   3.015  50.256  1.00  0.00     0.120 N 
HETATM    3  C11 UNL     1      19.683   3.962  49.227  1.00  0.00     0.268 C 
HETATM    4  C12 UNL     1      20.770   4.109  48.149  1.00  0.00     0.127 C 
HETATM    5  N4  UNL     1      21.981   4.655  47.978  1.00  0.00    -0.245 NA
HETATM    6  C13 UNL     1      22.507   5.029  49.314  1.00  0.00     0.133 C 
HETATM    7  C20 UNL     1      21.498   4.645  50.083  1.00  0.00     0.020 C 
HETATM    8  C21 UNL     1      20.066   5.260  50.050  1.00  0.00     0.083 C 
HETATM    9  H15 UNL     1      20.199   2.060  49.977  1.00  0.00     0.320 HD
ENDROOT
BRANCH   1  10
HETATM   10  N2  UNL     1      22.047   2.809  51.658  1.00  0.00    -0.317 N 
HETATM   11  C1  UNL     1      21.706   1.743  52.560  1.00  0.00     0.298 C 
HETATM   12  O1  UNL     1      20.484   1.565  52.842  1.00  0.00    -0.258 OA
HETATM   13  H13 UNL     1      23.086   2.908  51.460  1.00  0.00     0.165 HD
BRANCH  11  14
HETATM   14  C2  UNL     1      22.745   0.908  53.120  1.00  0.00    -0.006 C 
HETATM   15  C3  UNL     1      23.626   0.199  53.573  1.00  0.00    -0.095 C 
BRANCH  15  16
HETATM   16  C4  UNL     1      24.675  -0.655  54.138  1.00  0.00     0.124 C 
BRANCH  16  17
HETATM   17  C5  UNL     1      25.966  -0.493  53.353  1.00  0.00     0.284 C 
BRANCH  17  18
HETATM   18  N1  UNL     1      26.757   0.580  53.917  1.00  0.00     0.093 N 
HETATM   19  C6  UNL     1      27.768   0.060  54.782  1.00  0.00     0.298 C 
HETATM   20  C7  UNL     1      29.087   0.769  54.561  1.00  0.00     0.198 C 
HETATM   21  O2  UNL     1      28.866   2.139  54.513  1.00  0.00    -0.388 OA
HETATM   22  C8  UNL     1      28.231   2.417  53.290  1.00  0.00     0.198 C 
HETATM   23  C9  UNL     1      27.448   1.226  52.792  1.00  0.00     0.298 C 
ENDBRANCH  17  18
ENDBRANCH  16  17
ENDBRANCH  15  16
ENDBRANCH  11  14
ENDBRANCH   1  10
BRANCH   6  24
HETATM   24  N5  UNL     1      23.582   5.555  50.102  1.00  0.00    -0.341 N 
HETATM   25  H18 UNL     1      23.282   6.021  50.959  1.00  0.00     0.167 HD
BRANCH  24  26
HETATM   26  C14 UNL     1      24.902   5.363  49.602  1.00  0.00     0.035 A 
HETATM   27  C15 UNL     1      25.500   4.127  49.839  1.00  0.00     0.032 A 
HETATM   28  C16 UNL     1      26.799   3.917  49.357  1.00  0.00     0.046 A 
HETATM   29  C17 UNL     1      27.491   4.888  48.665  1.00  0.00     0.138 A 
HETATM   30  F1  UNL     1      28.747   4.704  48.193  1.00  0.00    -0.204 F 
HETATM   31  C18 UNL     1      26.873   6.101  48.447  1.00  0.00     0.074 A 
HETATM   32 CL1  UNL     1      27.621   7.429  47.586  1.00  0.00    -0.081 Cl
HETATM   33  C19 UNL     1      25.593   6.330  48.912  1.00  0.00     0.056 A 
ENDBRANCH  24  26
ENDBRANCH   6  24
TORSDOF 7
ENDMDL
MODEL 8
REMARK VINA RESULT:      -8.1      2.483      3.029
REMARK  7 active torsions:
REMARK  status: ('A' for Active; 'I' for Inactive)
REMARK    1  A    between atoms: C1_2  and  C2_3 
REMARK       I    between atoms: C1_2  and  N2_13 
REMARK    2  A    between atoms: C3_4  and  C4_5 
REMARK    3  A    between atoms: C4_5  and  C5_6 
REMARK    4  A    between atoms: C5_6  and  N1_7 
REMARK    5  A    between atoms: N2_13  and  C10_14 
REMARK    6  A    between atoms: C13_19  and  N5_20 
REMARK    7  A    between atoms: N5_20  and  C14_21 
ROOT
HETATM    1  C10 UNL     1      24.062   4.304  49.564  1.00  0.00     0.357 C 
HETATM    2  N3  UNL     1      22.687   4.589  49.967  1.00  0.00     0.120 N 
HETATM    3  C11 UNL     1      22.201   3.499  50.780  1.00  0.00     0.268 C 
HETATM    4  C12 UNL     1      22.809   3.500  52.193  1.00  0.00     0.127 C 
HETATM    5  N4  UNL     1      23.961   3.219  52.816  1.00  0.00    -0.245 NA
HETATM    6  C13 UNL     1      25.018   3.088  51.783  1.00  0.00     0.133 C 
HETATM    7  C20 UNL     1      24.309   3.307  50.686  1.00  0.00     0.020 C 
HETATM    8  C21 UNL     1      23.156   2.394  50.170  1.00  0.00     0.083 C 
HETATM    9  H15 UNL     1      22.494   5.527  50.280  1.00  0.00     0.320 HD
ENDROOT
BRANCH   1  10
HETATM   10  N2  UNL     1      24.956   5.350  49.435  1.00  0.00    -0.317 N 
HETATM   11  C1  UNL     1      24.943   6.444  50.366  1.00  0.00     0.298 C 
HETATM   12  O1  UNL     1      24.092   6.423  51.304  1.00  0.00    -0.258 OA
HETATM   13  H13 UNL     1      25.692   5.423  48.672  1.00  0.00     0.165 HD
BRANCH  11  14
HETATM   14  C2  UNL     1      25.885   7.532  50.218  1.00  0.00    -0.006 C 
HETATM   15  C3  UNL     1      26.673   8.449  50.075  1.00  0.00    -0.095 C 
BRANCH  15  16
HETATM   16  C4  UNL     1      27.633   9.546  49.920  1.00  0.00     0.124 C 
BRANCH  16  17
HETATM   17  C5  UNL     1      28.376   9.415  48.601  1.00  0.00     0.284 C 
BRANCH  17  18
HETATM   18  N1  UNL     1      29.425   8.424  48.720  1.00  0.00     0.093 N 
HETATM   19  C6  UNL     1      29.835   7.965  47.431  1.00  0.00     0.298 C 
HETATM   20  C7  UNL     1      31.342   7.856  47.348  1.00  0.00     0.198 C 
HETATM   21  O2  UNL     1      31.816   7.215  48.485  1.00  0.00    -0.388 OA
HETATM   22  C8  UNL     1      31.694   8.118  49.555  1.00  0.00     0.198 C 
HETATM   23  C9  UNL     1      30.581   9.109  49.317  1.00  0.00     0.298 C 
ENDBRANCH  17  18
ENDBRANCH  16  17
ENDBRANCH  15  16
ENDBRANCH  11  14
ENDBRANCH   1  10
BRANCH   6  24
HETATM   24  N5  UNL     1      26.401   2.880  51.468  1.00  0.00    -0.341 N 
HETATM   25  H18 UNL     1      26.768   3.520  50.761  1.00  0.00     0.167 HD
BRANCH  24  26
HETATM   26  C14 UNL     1      27.072   1.836  52.165  1.00  0.00     0.035 A 
HETATM   27  C15 UNL     1      28.118   2.202  53.009  1.00  0.00     0.032 A 
HETATM   28  C16 UNL     1      28.794   1.190  53.704  1.00  0.00     0.046 A 
HETATM   29  C17 UNL     1      28.455  -0.140  53.575  1.00  0.00     0.138 A 
HETATM   30  F1  UNL     1      29.096  -1.133  54.238  1.00  0.00    -0.204 F 
HETATM   31  C18 UNL     1      27.416  -0.472  52.731  1.00  0.00     0.074 A 
HETATM   32 CL1  UNL     1      26.871  -2.113  52.465  1.00  0.00    -0.081 Cl
HETATM   33  C19 UNL     1      26.736   0.509  52.037  1.00  0.00     0.056 A 
ENDBRANCH  24  26
ENDBRANCH   6  24
TORSDOF 7
ENDMDL
MODEL 9
REMARK VINA RESULT:      -8.1      1.841      2.242
REMARK  7 active torsions:
REMARK  status: ('A' for Active; 'I' for Inactive)
REMARK    1  A    between atoms: C1_2  and  C2_3 
REMARK       I    between atoms: C1_2  and  N2_13 
REMARK    2  A    between atoms: C3_4  and  C4_5 
REMARK    3  A    between atoms: C4_5  and  C5_6 
REMARK    4  A    between atoms: C5_6  and  N1_7 
REMARK    5  A    between atoms: N2_13  and  C10_14 
REMARK    6  A    between atoms: C13_19  and  N5_20 
REMARK    7  A    between atoms: N5_20  and  C14_21 
ROOT
HETATM    1  C10 UNL     1      24.351   3.563  49.727  1.00  0.00     0.357 C 
HETATM    2  N3  UNL     1      22.938   3.778  50.027  1.00  0.00     0.120 N 
HETATM    3  C11 UNL     1      22.538   2.873  51.081  1.00  0.00     0.268 C 
HETATM    4  C12 UNL     1      23.083   3.293  52.456  1.00  0.00     0.127 C 
HETATM    5  N4  UNL     1      24.231   3.309  53.146  1.00  0.00    -0.245 NA
HETATM    6  C13 UNL     1      25.339   3.051  52.193  1.00  0.00     0.133 C 
HETATM    7  C20 UNL     1      24.657   2.909  51.066  1.00  0.00     0.020 C 
HETATM    8  C21 UNL     1      23.633   1.769  50.780  1.00  0.00     0.083 C 
HETATM    9  H15 UNL     1      22.631   4.734  50.094  1.00  0.00     0.320 HD
ENDROOT
BRANCH   1  10
HETATM   10  N2  UNL     1      25.131   4.640  49.354  1.00  0.00    -0.317 N 
HETATM   11  C1  UNL     1      26.514   4.461  49.010  1.00  0.00     0.298 C 
HETATM   12  O1  UNL     1      26.997   3.292  49.060  1.00  0.00    -0.258 OA
HETATM   13  H13 UNL     1      24.783   5.643  49.292  1.00  0.00     0.165 HD
BRANCH  11  14
HETATM   14  C2  UNL     1      27.317   5.600  48.621  1.00  0.00    -0.006 C 
HETATM   15  C3  UNL     1      27.996   6.550  48.276  1.00  0.00    -0.095 C 
BRANCH  15  16
HETATM   16  C4  UNL     1      28.817   7.699  47.882  1.00  0.00     0.124 C 
BRANCH  16  17
HETATM   17  C5  UNL     1      30.077   7.230  47.175  1.00  0.00     0.284 C 
BRANCH  17  18
HETATM   18  N1  UNL     1      31.242   7.562  47.968  1.00  0.00     0.093 N 
HETATM   19  C6  UNL     1      31.793   6.389  48.570  1.00  0.00     0.298 C 
HETATM   20  C7  UNL     1      33.303   6.388  48.470  1.00  0.00     0.198 C 
HETATM   21  O2  UNL     1      33.786   7.636  48.838  1.00  0.00    -0.388 OA
HETATM   22  C8  UNL     1      33.472   8.529  47.798  1.00  0.00     0.198 C 
HETATM   23  C9  UNL     1      32.252   8.077  47.033  1.00  0.00     0.298 C 
ENDBRANCH  17  18
ENDBRANCH  16  17
ENDBRANCH  15  16
ENDBRANCH  11  14
ENDBRANCH   1  10
BRANCH   6  24
HETATM   24  N5  UNL     1      26.748   2.934  51.959  1.00  0.00    -0.341 N 
HETATM   25  H18 UNL     1      27.142   3.690  51.397  1.00  0.00     0.167 HD
BRANCH  24  26
HETATM   26  C14 UNL     1      27.406   1.806  52.529  1.00  0.00     0.035 A 
HETATM   27  C15 UNL     1      28.525   2.054  53.321  1.00  0.00     0.032 A 
HETATM   28  C16 UNL     1      29.188   0.959  53.890  1.00  0.00     0.046 A 
HETATM   29  C17 UNL     1      28.768  -0.339  53.690  1.00  0.00     0.138 A 
HETATM   30  F1  UNL     1      29.396  -1.410  54.231  1.00  0.00    -0.204 F 
HETATM   31  C18 UNL     1      27.657  -0.552  52.900  1.00  0.00     0.074 A 
HETATM   32 CL1  UNL     1      27.005  -2.139  52.555  1.00  0.00    -0.081 Cl
HETATM   33  C19 UNL     1      26.988   0.512  52.330  1.00  0.00     0.056 A 
ENDBRANCH  24  26
ENDBRANCH   6  24
TORSDOF 7
ENDMDL
