MODEL 1
REMARK VINA RESULT:      -8.2      0.000      0.000
REMARK  4 active torsions:
REMARK  status: ('A' for Active; 'I' for Inactive)
REMARK    1  A    between atoms: C2_2  and  C3_3 
REMARK    2  A    between atoms: C4_4  and  C5_5 
REMARK    3  A    between atoms: C12_15  and  N3_16 
REMARK    4  A    between atoms: N4_18  and  C14_19 
ROOT
HETATM    1  C5  UNL     1      21.403   5.546  49.255  1.00  0.00     0.067 C 
HETATM    2  C6  UNL     1      22.019   6.280  48.310  1.00  0.00     0.129 C 
HETATM    3  F1  UNL     1      21.376   6.621  47.168  1.00  0.00    -0.208 F 
HETATM    4  C7  UNL     1      23.396   6.821  48.342  1.00  0.00     0.092 C 
HETATM    5  C8  UNL     1      23.720   7.513  49.609  1.00  0.00    -0.016 C 
HETATM    6  C9  UNL     1      23.008   7.815  50.702  1.00  0.00    -0.010 C 
HETATM    7  C10 UNL     1      21.856   7.048  51.271  1.00  0.00     0.152 C 
HETATM    8  N1  UNL     1      21.794   5.719  50.634  1.00  0.00    -0.357 N 
HETATM    9  C11 UNL     1      22.183   4.546  51.455  1.00  0.00     0.276 C 
HETATM   10  N2  UNL     1      23.478   4.106  51.094  1.00  0.00    -0.251 NA
HETATM   11  C12 UNL     1      24.303   3.319  51.596  1.00  0.00     0.148 C 
HETATM   12  C13 UNL     1      25.488   3.318  50.706  1.00  0.00     0.119 C 
HETATM   13  N4  UNL     1      26.522   2.617  50.927  1.00  0.00    -0.243 NA
HETATM   14  C22 UNL     1      25.616   4.122  49.466  1.00  0.00     0.145 C 
HETATM   15  N7  UNL     1      24.542   4.832  49.260  1.00  0.00    -0.298 NA
HETATM   16  C23 UNL     1      24.379   5.701  48.146  1.00  0.00     0.164 C 
ENDROOT
BRANCH  11  17
HETATM   17  N3  UNL     1      24.351   2.494  52.746  1.00  0.00    -0.382 N 
HETATM   18  H13 UNL     1      25.372   2.301  52.606  1.00  0.00     0.157 HD
HETATM   19  H14 UNL     1      23.616   2.219  53.437  1.00  0.00     0.157 HD
ENDBRANCH  11  17
BRANCH  13  20
HETATM   20  C14 UNL     1      26.792   1.738  51.975  1.00  0.00     0.071 C 
HETATM   21  C15 UNL     1      27.623   2.221  52.918  1.00  0.00     0.013 C 
HETATM   22  C16 UNL     1      28.297   1.562  54.096  1.00  0.00     0.040 C 
HETATM   23  C17 UNL     1      29.582   0.898  53.672  1.00  0.00     0.040 C 
HETATM   24  C21 UNL     1      27.434   0.409  54.590  1.00  0.00     0.283 C 
HETATM   25  C18 UNL     1      29.459  -0.528  54.154  1.00  0.00     0.275 C 
HETATM   26  N5  UNL     1      28.049  -0.798  54.146  1.00  0.00     0.108 NA
HETATM   27  C19 UNL     1      27.534  -1.391  52.963  1.00  0.00     0.420 C 
HETATM   28  N6  UNL     1      26.386  -0.731  52.382  1.00  0.00    -0.269 NA
HETATM   29  C20 UNL     1      26.107   0.431  51.841  1.00  0.00     0.143 C 
ENDBRANCH  13  20
BRANCH   1  30
HETATM   30  C4  UNL     1      20.373   4.575  48.988  1.00  0.00     0.032 C 
HETATM   31  C3  UNL     1      20.411   3.373  48.470  1.00  0.00    -0.002 C 
BRANCH  31  32
HETATM   32  C2  UNL     1      21.293   2.387  47.924  1.00  0.00    -0.009 C 
HETATM   33  C1  UNL     1      22.543   2.006  47.762  1.00  0.00     0.013 C 
ENDBRANCH  31  32
ENDBRANCH   1  30
TORSDOF 4
ENDMDL
MODEL 2
REMARK VINA RESULT:      -7.8      2.236      3.744
REMARK  4 active torsions:
REMARK  status: ('A' for Active; 'I' for Inactive)
REMARK    1  A    between atoms: C2_2  and  C3_3 
REMARK    2  A    between atoms: C4_4  and  C5_5 
REMARK    3  A    between atoms: C12_15  and  N3_16 
REMARK    4  A    between atoms: N4_18  and  C14_19 
ROOT
HETATM    1  C5  UNL     1      21.725   8.077  48.926  1.00  0.00     0.067 C 
HETATM    2  C6  UNL     1      21.612   7.836  47.606  1.00  0.00     0.129 C 
HETATM    3  F1  UNL     1      20.630   8.416  46.877  1.00  0.00    -0.208 F 
HETATM    4  C7  UNL     1      22.476   6.975  46.769  1.00  0.00     0.092 C 
HETATM    5  C8  UNL     1      23.920   7.226  46.971  1.00  0.00    -0.016 C 
HETATM    6  C9  UNL     1      24.607   8.117  47.698  1.00  0.00    -0.010 C 
HETATM    7  C10 UNL     1      24.190   8.744  48.991  1.00  0.00     0.152 C 
HETATM    8  N1  UNL     1      23.032   8.010  49.536  1.00  0.00    -0.357 N 
HETATM    9  C11 UNL     1      23.259   7.161  50.731  1.00  0.00     0.276 C 
HETATM   10  N2  UNL     1      23.312   5.798  50.357  1.00  0.00    -0.251 NA
HETATM   11  C12 UNL     1      23.663   4.750  50.930  1.00  0.00     0.148 C 
HETATM   12  C13 UNL     1      23.476   3.647  49.958  1.00  0.00     0.119 C 
HETATM   13  N4  UNL     1      23.741   2.435  50.222  1.00  0.00    -0.243 NA
HETATM   14  C22 UNL     1      22.966   3.816  48.575  1.00  0.00     0.145 C 
HETATM   15  N7  UNL     1      22.701   5.068  48.328  1.00  0.00    -0.298 NA
HETATM   16  C23 UNL     1      22.196   5.531  47.081  1.00  0.00     0.164 C 
ENDROOT
BRANCH  11  17
HETATM   17  N3  UNL     1      24.168   4.411  52.210  1.00  0.00    -0.382 N 
HETATM   18  H13 UNL     1      23.901   3.404  52.086  1.00  0.00     0.157 HD
HETATM   19  H14 UNL     1      24.625   4.987  52.953  1.00  0.00     0.157 HD
ENDBRANCH  11  17
BRANCH  13  20
HETATM   20  C14 UNL     1      24.234   1.869  51.397  1.00  0.00     0.071 C 
HETATM   21  C15 UNL     1      25.577   1.786  51.465  1.00  0.00     0.013 C 
HETATM   22  C16 UNL     1      26.493   1.104  52.450  1.00  0.00     0.040 C 
HETATM   23  C17 UNL     1      26.680  -0.347  52.087  1.00  0.00     0.040 C 
HETATM   24  C21 UNL     1      25.820   1.056  53.814  1.00  0.00     0.283 C 
HETATM   25  C18 UNL     1      26.320  -1.110  53.339  1.00  0.00     0.275 C 
HETATM   26  N5  UNL     1      25.362  -0.280  54.012  1.00  0.00     0.108 NA
HETATM   27  C19 UNL     1      23.996  -0.546  53.728  1.00  0.00     0.420 C 
HETATM   28  N6  UNL     1      23.205   0.599  53.335  1.00  0.00    -0.269 NA
HETATM   29  C20 UNL     1      23.173   1.463  52.348  1.00  0.00     0.143 C 
ENDBRANCH  13  20
BRANCH   1  30
HETATM   30  C4  UNL     1      20.618   8.390  49.793  1.00  0.00     0.032 C 
HETATM   31  C3  UNL     1      19.874   9.461  49.918  1.00  0.00    -0.002 C 
BRANCH  31  32
HETATM   32  C2  UNL     1      19.669  10.782  49.405  1.00  0.00    -0.009 C 
HETATM   33  C1  UNL     1      20.197  11.971  49.203  1.00  0.00     0.013 C 
ENDBRANCH  31  32
ENDBRANCH   1  30
TORSDOF 4
ENDMDL
MODEL 3
REMARK VINA RESULT:      -7.8      3.491      7.046
REMARK  4 active torsions:
REMARK  status: ('A' for Active; 'I' for Inactive)
REMARK    1  A    between atoms: C2_2  and  C3_3 
REMARK    2  A    between atoms: C4_4  and  C5_5 
REMARK    3  A    between atoms: C12_15  and  N3_16 
REMARK    4  A    between atoms: N4_18  and  C14_19 
ROOT
HETATM    1  C5  UNL     1      23.094   2.787  50.308  1.00  0.00     0.067 C 
HETATM    2  C6  UNL     1      22.143   3.124  51.198  1.00  0.00     0.129 C 
HETATM    3  F1  UNL     1      20.945   2.493  51.204  1.00  0.00    -0.208 F 
HETATM    4  C7  UNL     1      22.223   4.151  52.259  1.00  0.00     0.092 C 
HETATM    5  C8  UNL     1      23.460   4.061  53.066  1.00  0.00    -0.016 C 
HETATM    6  C9  UNL     1      24.487   3.201  53.084  1.00  0.00    -0.010 C 
HETATM    7  C10 UNL     1      25.033   2.422  51.930  1.00  0.00     0.152 C 
HETATM    8  N1  UNL     1      24.481   2.960  50.672  1.00  0.00    -0.357 N 
HETATM    9  C11 UNL     1      25.397   3.727  49.793  1.00  0.00     0.276 C 
HETATM   10  N2  UNL     1      25.144   5.113  49.915  1.00  0.00    -0.251 NA
HETATM   11  C12 UNL     1      25.743   6.144  49.556  1.00  0.00     0.148 C 
HETATM   12  C13 UNL     1      24.929   7.294  50.013  1.00  0.00     0.119 C 
HETATM   13  N4  UNL     1      25.256   8.502  49.809  1.00  0.00    -0.243 NA
HETATM   14  C22 UNL     1      23.649   7.182  50.756  1.00  0.00     0.145 C 
HETATM   15  N7  UNL     1      23.334   5.932  50.952  1.00  0.00    -0.298 NA
HETATM   16  C23 UNL     1      22.158   5.519  51.639  1.00  0.00     0.164 C 
ENDROOT
BRANCH  11  17
HETATM   17  N3  UNL     1      26.946   6.431  48.864  1.00  0.00    -0.382 N 
HETATM   18  H13 UNL     1      27.399   6.798  49.736  1.00  0.00     0.157 HD
HETATM   19  H14 UNL     1      27.221   6.304  47.863  1.00  0.00     0.157 HD
ENDBRANCH  11  17
BRANCH  13  20
HETATM   20  C14 UNL     1      26.372   9.022  49.156  1.00  0.00     0.071 C 
HETATM   21  C15 UNL     1      26.191   9.284  47.847  1.00  0.00     0.013 C 
HETATM   22  C16 UNL     1      27.158   9.677  46.759  1.00  0.00     0.040 C 
HETATM   23  C17 UNL     1      27.812   8.458  46.159  1.00  0.00     0.040 C 
HETATM   24  C21 UNL     1      28.318  10.451  47.370  1.00  0.00     0.283 C 
HETATM   25  C18 UNL     1      29.295   8.722  46.264  1.00  0.00     0.275 C 
HETATM   26  N5  UNL     1      29.437   9.568  47.414  1.00  0.00     0.108 NA
HETATM   27  C19 UNL     1      29.696   8.911  48.646  1.00  0.00     0.420 C 
HETATM   28  N6  UNL     1      28.826   9.273  49.743  1.00  0.00    -0.269 NA
HETATM   29  C20 UNL     1      27.551   9.183  50.039  1.00  0.00     0.143 C 
ENDBRANCH  13  20
BRANCH   1  30
HETATM   30  C4  UNL     1      22.829   2.270  48.990  1.00  0.00     0.032 C 
HETATM   31  C3  UNL     1      22.502   2.855  47.865  1.00  0.00    -0.002 C 
BRANCH  31  32
HETATM   32  C2  UNL     1      22.234   4.129  47.270  1.00  0.00    -0.009 C 
HETATM   33  C1  UNL     1      22.391   5.434  47.361  1.00  0.00     0.013 C 
ENDBRANCH  31  32
ENDBRANCH   1  30
TORSDOF 4
ENDMDL
MODEL 4
REMARK VINA RESULT:      -7.8      3.633      7.134
REMARK  4 active torsions:
REMARK  status: ('A' for Active; 'I' for Inactive)
REMARK    1  A    between atoms: C2_2  and  C3_3 
REMARK    2  A    between atoms: C4_4  and  C5_5 
REMARK    3  A    between atoms: C12_15  and  N3_16 
REMARK    4  A    between atoms: N4_18  and  C14_19 
ROOT
HETATM    1  C5  UNL     1      22.371   1.471  51.871  1.00  0.00     0.067 C 
HETATM    2  C6  UNL     1      21.652   0.912  50.879  1.00  0.00     0.129 C 
HETATM    3  F1  UNL     1      21.459  -0.428  50.834  1.00  0.00    -0.208 F 
HETATM    4  C7  UNL     1      20.980   1.597  49.753  1.00  0.00     0.092 C 
HETATM    5  C8  UNL     1      20.169   2.760  50.179  1.00  0.00    -0.016 C 
HETATM    6  C9  UNL     1      19.859   3.277  51.375  1.00  0.00    -0.010 C 
HETATM    7  C10 UNL     1      20.689   3.242  52.619  1.00  0.00     0.152 C 
HETATM    8  N1  UNL     1      22.061   2.821  52.278  1.00  0.00    -0.357 N 
HETATM    9  C11 UNL     1      23.128   3.851  52.333  1.00  0.00     0.276 C 
HETATM   10  N2  UNL     1      23.466   4.273  51.026  1.00  0.00    -0.251 NA
HETATM   11  C12 UNL     1      24.131   5.216  50.559  1.00  0.00     0.148 C 
HETATM   12  C13 UNL     1      24.084   5.085  49.084  1.00  0.00     0.119 C 
HETATM   13  N4  UNL     1      24.664   5.891  48.295  1.00  0.00    -0.243 NA
HETATM   14  C22 UNL     1      23.364   4.013  48.353  1.00  0.00     0.145 C 
HETATM   15  N7  UNL     1      22.778   3.197  49.184  1.00  0.00    -0.298 NA
HETATM   16  C23 UNL     1      22.012   2.072  48.769  1.00  0.00     0.164 C 
ENDROOT
BRANCH  11  17
HETATM   17  N3  UNL     1      24.861   6.307  51.093  1.00  0.00    -0.382 N 
HETATM   18  H13 UNL     1      25.731   5.726  51.179  1.00  0.00     0.157 HD
HETATM   19  H14 UNL     1      24.588   7.294  51.299  1.00  0.00     0.157 HD
ENDBRANCH  11  17
BRANCH  13  20
HETATM   20  C14 UNL     1      25.434   7.017  48.584  1.00  0.00     0.071 C 
HETATM   21  C15 UNL     1      24.746   8.173  48.642  1.00  0.00     0.013 C 
HETATM   22  C16 UNL     1      25.199   9.608  48.750  1.00  0.00     0.040 C 
HETATM   23  C17 UNL     1      25.521  10.169  47.388  1.00  0.00     0.040 C 
HETATM   24  C21 UNL     1      26.527   9.662  49.492  1.00  0.00     0.283 C 
HETATM   25  C18 UNL     1      26.926  10.708  47.514  1.00  0.00     0.275 C 
HETATM   26  N5  UNL     1      27.544   9.892  48.520  1.00  0.00     0.108 NA
HETATM   27  C19 UNL     1      28.262   8.760  48.053  1.00  0.00     0.420 C 
HETATM   28  N6  UNL     1      27.921   7.501  48.678  1.00  0.00    -0.269 NA
HETATM   29  C20 UNL     1      26.873   6.717  48.768  1.00  0.00     0.143 C 
ENDBRANCH  13  20
BRANCH   1  30
HETATM   30  C4  UNL     1      23.453   0.817  52.560  1.00  0.00     0.032 C 
HETATM   31  C3  UNL     1      23.474  -0.090  53.504  1.00  0.00    -0.002 C 
BRANCH  31  32
HETATM   32  C2  UNL     1      22.635  -0.897  54.338  1.00  0.00    -0.009 C 
HETATM   33  C1  UNL     1      21.454  -1.460  54.485  1.00  0.00     0.013 C 
ENDBRANCH  31  32
ENDBRANCH   1  30
TORSDOF 4
ENDMDL
MODEL 5
REMARK VINA RESULT:      -7.7     10.052     12.423
REMARK  4 active torsions:
REMARK  status: ('A' for Active; 'I' for Inactive)
REMARK    1  A    between atoms: C2_2  and  C3_3 
REMARK    2  A    between atoms: C4_4  and  C5_5 
REMARK    3  A    between atoms: C12_15  and  N3_16 
REMARK    4  A    between atoms: N4_18  and  C14_19 
ROOT
HETATM    1  C5  UNL     1      31.168   8.723  48.048  1.00  0.00     0.067 C 
HETATM    2  C6  UNL     1      31.567   7.975  49.094  1.00  0.00     0.129 C 
HETATM    3  F1  UNL     1      31.827   8.546  50.295  1.00  0.00    -0.208 F 
HETATM    4  C7  UNL     1      31.766   6.510  49.133  1.00  0.00     0.092 C 
HETATM    5  C8  UNL     1      30.634   5.752  48.556  1.00  0.00    -0.016 C 
HETATM    6  C9  UNL     1      29.438   6.110  48.072  1.00  0.00    -0.010 C 
HETATM    7  C10 UNL     1      29.085   7.397  47.395  1.00  0.00     0.152 C 
HETATM    8  N1  UNL     1      30.322   8.120  47.045  1.00  0.00    -0.357 N 
HETATM    9  C11 UNL     1      30.698   8.182  45.611  1.00  0.00     0.276 C 
HETATM   10  N2  UNL     1      31.746   7.271  45.342  1.00  0.00    -0.251 NA
HETATM   11  C12 UNL     1      32.262   6.819  44.303  1.00  0.00     0.148 C 
HETATM   12  C13 UNL     1      33.328   5.882  44.728  1.00  0.00     0.119 C 
HETATM   13  N4  UNL     1      34.058   5.242  43.911  1.00  0.00    -0.243 NA
HETATM   14  C22 UNL     1      33.674   5.576  46.138  1.00  0.00     0.145 C 
HETATM   15  N7  UNL     1      32.912   6.246  46.958  1.00  0.00    -0.298 NA
HETATM   16  C23 UNL     1      33.014   6.154  48.374  1.00  0.00     0.164 C 
ENDROOT
BRANCH  11  17
HETATM   17  N3  UNL     1      32.061   6.989  42.911  1.00  0.00    -0.382 N 
HETATM   18  H13 UNL     1      33.012   7.415  42.791  1.00  0.00     0.157 HD
HETATM   19  H14 UNL     1      31.252   6.757  42.290  1.00  0.00     0.157 HD
ENDBRANCH  11  17
BRANCH  13  20
HETATM   20  C14 UNL     1      34.049   5.252  42.517  1.00  0.00     0.071 C 
HETATM   21  C15 UNL     1      33.196   4.377  41.951  1.00  0.00     0.013 C 
HETATM   22  C16 UNL     1      33.001   3.949  40.517  1.00  0.00     0.040 C 
HETATM   23  C17 UNL     1      33.963   2.846  40.155  1.00  0.00     0.040 C 
HETATM   24  C21 UNL     1      33.389   5.093  39.592  1.00  0.00     0.283 C 
HETATM   25  C18 UNL     1      34.671   3.342  38.917  1.00  0.00     0.275 C 
HETATM   26  N5  UNL     1      34.662   4.772  39.036  1.00  0.00     0.108 NA
HETATM   27  C19 UNL     1      35.802   5.356  39.647  1.00  0.00     0.420 C 
HETATM   28  N6  UNL     1      35.530   6.274  40.731  1.00  0.00    -0.269 NA
HETATM   29  C20 UNL     1      34.993   6.229  41.927  1.00  0.00     0.143 C 
ENDBRANCH  13  20
BRANCH   1  30
HETATM   30  C4  UNL     1      31.539  10.100  47.843  1.00  0.00     0.032 C 
HETATM   31  C3  UNL     1      32.586  10.655  47.287  1.00  0.00    -0.002 C 
BRANCH  31  32
HETATM   32  C2  UNL     1      33.827  10.366  46.634  1.00  0.00    -0.009 C 
HETATM   33  C1  UNL     1      34.622   9.428  46.161  1.00  0.00     0.013 C 
ENDBRANCH  31  32
ENDBRANCH   1  30
TORSDOF 4
ENDMDL
MODEL 6
REMARK VINA RESULT:      -7.7      2.008      3.926
REMARK  4 active torsions:
REMARK  status: ('A' for Active; 'I' for Inactive)
REMARK    1  A    between atoms: C2_2  and  C3_3 
REMARK    2  A    between atoms: C4_4  and  C5_5 
REMARK    3  A    between atoms: C12_15  and  N3_16 
REMARK    4  A    between atoms: N4_18  and  C14_19 
ROOT
HETATM    1  C5  UNL     1      22.529   6.721  47.894  1.00  0.00     0.067 C 
HETATM    2  C6  UNL     1      21.711   7.591  48.515  1.00  0.00     0.129 C 
HETATM    3  F1  UNL     1      21.677   8.894  48.147  1.00  0.00    -0.208 F 
HETATM    4  C7  UNL     1      20.764   7.311  49.617  1.00  0.00     0.092 C 
HETATM    5  C8  UNL     1      19.912   6.128  49.365  1.00  0.00    -0.016 C 
HETATM    6  C9  UNL     1      19.768   5.302  48.321  1.00  0.00    -0.010 C 
HETATM    7  C10 UNL     1      20.814   4.917  47.322  1.00  0.00     0.152 C 
HETATM    8  N1  UNL     1      22.139   5.333  47.819  1.00  0.00    -0.357 N 
HETATM    9  C11 UNL     1      23.065   4.269  48.278  1.00  0.00     0.276 C 
HETATM   10  N2  UNL     1      23.100   4.231  49.692  1.00  0.00    -0.251 NA
HETATM   11  C12 UNL     1      23.548   3.427  50.531  1.00  0.00     0.148 C 
HETATM   12  C13 UNL     1      23.244   3.990  51.868  1.00  0.00     0.119 C 
HETATM   13  N4  UNL     1      23.565   3.418  52.953  1.00  0.00    -0.243 NA
HETATM   14  C22 UNL     1      22.536   5.273  52.104  1.00  0.00     0.145 C 
HETATM   15  N7  UNL     1      22.217   5.842  50.975  1.00  0.00    -0.298 NA
HETATM   16  C23 UNL     1      21.530   7.085  50.890  1.00  0.00     0.164 C 
ENDROOT
BRANCH  11  17
HETATM   17  N3  UNL     1      24.227   2.184  50.487  1.00  0.00    -0.382 N 
HETATM   18  H13 UNL     1      23.352   1.660  50.732  1.00  0.00     0.157 HD
HETATM   19  H14 UNL     1      25.223   1.941  50.282  1.00  0.00     0.157 HD
ENDBRANCH  11  17
BRANCH  13  20
HETATM   20  C14 UNL     1      24.233   2.211  53.157  1.00  0.00     0.071 C 
HETATM   21  C15 UNL     1      23.470   1.111  53.009  1.00  0.00     0.013 C 
HETATM   22  C16 UNL     1      23.740  -0.344  53.301  1.00  0.00     0.040 C 
HETATM   23  C17 UNL     1      23.458  -0.659  54.748  1.00  0.00     0.040 C 
HETATM   24  C21 UNL     1      25.229  -0.621  53.149  1.00  0.00     0.283 C 
HETATM   25  C18 UNL     1      24.726  -1.300  55.259  1.00  0.00     0.275 C 
HETATM   26  N5  UNL     1      25.774  -0.729  54.462  1.00  0.00     0.108 NA
HETATM   27  C19 UNL     1      26.409   0.423  54.997  1.00  0.00     0.420 C 
HETATM   28  N6  UNL     1      26.491   1.561  54.108  1.00  0.00    -0.269 NA
HETATM   29  C20 UNL     1      25.663   2.379  53.502  1.00  0.00     0.143 C 
ENDBRANCH  13  20
BRANCH   1  30
HETATM   30  C4  UNL     1      23.792   7.075  47.298  1.00  0.00     0.032 C 
HETATM   31  C3  UNL     1      24.953   7.383  47.817  1.00  0.00    -0.002 C 
BRANCH  31  32
HETATM   32  C2  UNL     1      25.647   7.551  49.058  1.00  0.00    -0.009 C 
HETATM   33  C1  UNL     1      25.675   7.265  50.344  1.00  0.00     0.013 C 
ENDBRANCH  31  32
ENDBRANCH   1  30
TORSDOF 4
ENDMDL
MODEL 7
REMARK VINA RESULT:      -7.6      4.567      6.517
REMARK  4 active torsions:
REMARK  status: ('A' for Active; 'I' for Inactive)
REMARK    1  A    between atoms: C2_2  and  C3_3 
REMARK    2  A    between atoms: C4_4  and  C5_5 
REMARK    3  A    between atoms: C12_15  and  N3_16 
REMARK    4  A    between atoms: N4_18  and  C14_19 
ROOT
HETATM    1  C5  UNL     1      23.368   4.956  48.967  1.00  0.00     0.067 C 
HETATM    2  C6  UNL     1      22.424   5.760  48.444  1.00  0.00     0.129 C 
HETATM    3  F1  UNL     1      21.264   5.248  47.967  1.00  0.00    -0.208 F 
HETATM    4  C7  UNL     1      22.463   7.233  48.315  1.00  0.00     0.092 C 
HETATM    5  C8  UNL     1      22.873   7.917  49.562  1.00  0.00    -0.016 C 
HETATM    6  C9  UNL     1      23.146   7.487  50.800  1.00  0.00    -0.010 C 
HETATM    7  C10 UNL     1      23.717   6.161  51.192  1.00  0.00     0.152 C 
HETATM    8  N1  UNL     1      24.240   5.481  49.991  1.00  0.00    -0.357 N 
HETATM    9  C11 UNL     1      25.713   5.380  49.847  1.00  0.00     0.276 C 
HETATM   10  N2  UNL     1      26.176   6.326  48.902  1.00  0.00    -0.251 NA
HETATM   11  C12 UNL     1      27.298   6.761  48.582  1.00  0.00     0.148 C 
HETATM   12  C13 UNL     1      27.080   7.761  47.510  1.00  0.00     0.119 C 
HETATM   13  N4  UNL     1      28.023   8.400  46.954  1.00  0.00    -0.243 NA
HETATM   14  C22 UNL     1      25.754   8.135  46.960  1.00  0.00     0.145 C 
HETATM   15  N7  UNL     1      24.802   7.464  47.546  1.00  0.00    -0.298 NA
HETATM   16  C23 UNL     1      23.424   7.615  47.224  1.00  0.00     0.164 C 
ENDROOT
BRANCH  11  17
HETATM   17  N3  UNL     1      28.634   6.529  48.995  1.00  0.00    -0.382 N 
HETATM   18  H13 UNL     1      28.315   6.091  49.893  1.00  0.00     0.157 HD
HETATM   19  H14 UNL     1      29.550   6.735  48.536  1.00  0.00     0.157 HD
ENDBRANCH  11  17
BRANCH  13  20
HETATM   20  C14 UNL     1      29.397   8.336  47.184  1.00  0.00     0.071 C 
HETATM   21  C15 UNL     1      30.079   7.553  46.327  1.00  0.00     0.013 C 
HETATM   22  C16 UNL     1      31.511   7.078  46.322  1.00  0.00     0.040 C 
HETATM   23  C17 UNL     1      31.665   5.841  47.170  1.00  0.00     0.040 C 
HETATM   24  C21 UNL     1      32.386   8.111  47.017  1.00  0.00     0.283 C 
HETATM   25  C18 UNL     1      32.773   6.173  48.141  1.00  0.00     0.275 C 
HETATM   26  N5  UNL     1      32.700   7.597  48.309  1.00  0.00     0.108 NA
HETATM   27  C19 UNL     1      31.915   8.057  49.398  1.00  0.00     0.420 C 
HETATM   28  N6  UNL     1      30.924   9.059  49.075  1.00  0.00    -0.269 NA
HETATM   29  C20 UNL     1      29.840   9.149  48.341  1.00  0.00     0.143 C 
ENDBRANCH  13  20
BRANCH   1  30
HETATM   30  C4  UNL     1      23.588   3.590  48.565  1.00  0.00     0.032 C 
HETATM   31  C3  UNL     1      22.975   2.475  48.870  1.00  0.00    -0.002 C 
BRANCH  31  32
HETATM   32  C2  UNL     1      21.897   1.931  49.641  1.00  0.00    -0.009 C 
HETATM   33  C1  UNL     1      20.960   1.009  49.714  1.00  0.00     0.013 C 
ENDBRANCH  31  32
ENDBRANCH   1  30
TORSDOF 4
ENDMDL
MODEL 8
REMARK VINA RESULT:      -7.5      4.058      6.807
REMARK  4 active torsions:
REMARK  status: ('A' for Active; 'I' for Inactive)
REMARK    1  A    between atoms: C2_2  and  C3_3 
REMARK    2  A    between atoms: C4_4  and  C5_5 
REMARK    3  A    between atoms: C12_15  and  N3_16 
REMARK    4  A    between atoms: N4_18  and  C14_19 
ROOT
HETATM    1  C5  UNL     1      23.036   3.145  50.012  1.00  0.00     0.067 C 
HETATM    2  C6  UNL     1      21.990   3.861  50.466  1.00  0.00     0.129 C 
HETATM    3  F1  UNL     1      20.720   3.427  50.278  1.00  0.00    -0.208 F 
HETATM    4  C7  UNL     1      22.024   5.141  51.206  1.00  0.00     0.092 C 
HETATM    5  C8  UNL     1      22.978   5.134  52.338  1.00  0.00    -0.016 C 
HETATM    6  C9  UNL     1      23.762   4.191  52.875  1.00  0.00    -0.010 C 
HETATM    7  C10 UNL     1      24.395   3.032  52.171  1.00  0.00     0.152 C 
HETATM    8  N1  UNL     1      24.295   3.233  50.713  1.00  0.00    -0.357 N 
HETATM    9  C11 UNL     1      25.540   3.567  49.980  1.00  0.00     0.276 C 
HETATM   10  N2  UNL     1      25.566   4.947  49.665  1.00  0.00    -0.251 NA
HETATM   11  C12 UNL     1      26.440   5.730  49.250  1.00  0.00     0.148 C 
HETATM   12  C13 UNL     1      25.803   7.063  49.139  1.00  0.00     0.119 C 
HETATM   13  N4  UNL     1      26.419   8.097  48.741  1.00  0.00    -0.243 NA
HETATM   14  C22 UNL     1      24.386   7.354  49.474  1.00  0.00     0.145 C 
HETATM   15  N7  UNL     1      23.775   6.276  49.878  1.00  0.00    -0.298 NA
HETATM   16  C23 UNL     1      22.406   6.252  50.269  1.00  0.00     0.164 C 
ENDROOT
BRANCH  11  17
HETATM   17  N3  UNL     1      27.808   5.630  48.894  1.00  0.00    -0.382 N 
HETATM   18  H13 UNL     1      28.102   6.175  49.741  1.00  0.00     0.157 HD
HETATM   19  H14 UNL     1      28.286   5.174  48.085  1.00  0.00     0.157 HD
ENDBRANCH  11  17
BRANCH  13  20
HETATM   20  C14 UNL     1      27.746   8.240  48.337  1.00  0.00     0.071 C 
HETATM   21  C15 UNL     1      28.587   8.664  49.299  1.00  0.00     0.013 C 
HETATM   22  C16 UNL     1      30.029   9.106  49.250  1.00  0.00     0.040 C 
HETATM   23  C17 UNL     1      30.126  10.566  48.883  1.00  0.00     0.040 C 
HETATM   24  C21 UNL     1      30.735   8.393  48.106  1.00  0.00     0.283 C 
HETATM   25  C18 UNL     1      31.061  10.605  47.698  1.00  0.00     0.275 C 
HETATM   26  N5  UNL     1      30.886   9.337  47.049  1.00  0.00     0.108 NA
HETATM   27  C19 UNL     1      29.926   9.298  46.003  1.00  0.00     0.420 C 
HETATM   28  N6  UNL     1      28.939   8.246  46.100  1.00  0.00    -0.269 NA
HETATM   29  C20 UNL     1      27.970   7.898  46.913  1.00  0.00     0.143 C 
ENDBRANCH  13  20
BRANCH   1  30
HETATM   30  C4  UNL     1      22.997   2.294  48.851  1.00  0.00     0.032 C 
HETATM   31  C3  UNL     1      22.556   2.487  47.633  1.00  0.00    -0.002 C 
BRANCH  31  32
HETATM   32  C2  UNL     1      21.940   3.454  46.776  1.00  0.00    -0.009 C 
HETATM   33  C1  UNL     1      21.821   3.907  45.545  1.00  0.00     0.013 C 
ENDBRANCH  31  32
ENDBRANCH   1  30
TORSDOF 4
ENDMDL
MODEL 9
REMARK VINA RESULT:      -7.5      7.850     11.672
REMARK  4 active torsions:
REMARK  status: ('A' for Active; 'I' for Inactive)
REMARK    1  A    between atoms: C2_2  and  C3_3 
REMARK    2  A    between atoms: C4_4  and  C5_5 
REMARK    3  A    between atoms: C12_15  and  N3_16 
REMARK    4  A    between atoms: N4_18  and  C14_19 
ROOT
HETATM    1  C5  UNL     1      34.406   4.690  47.560  1.00  0.00     0.067 C 
HETATM    2  C6  UNL     1      34.674   4.465  46.261  1.00  0.00     0.129 C 
HETATM    3  F1  UNL     1      35.938   4.208  45.848  1.00  0.00    -0.208 F 
HETATM    4  C7  UNL     1      33.718   4.443  45.132  1.00  0.00     0.092 C 
HETATM    5  C8  UNL     1      32.516   3.623  45.403  1.00  0.00    -0.016 C 
HETATM    6  C9  UNL     1      32.146   2.841  46.425  1.00  0.00    -0.010 C 
HETATM    7  C10 UNL     1      32.515   3.001  47.866  1.00  0.00     0.152 C 
HETATM    8  N1  UNL     1      33.103   4.338  48.073  1.00  0.00    -0.357 N 
HETATM    9  C11 UNL     1      32.290   5.339  48.807  1.00  0.00     0.276 C 
HETATM   10  N2  UNL     1      31.733   6.273  47.901  1.00  0.00    -0.251 NA
HETATM   11  C12 UNL     1      30.855   7.151  47.986  1.00  0.00     0.148 C 
HETATM   12  C13 UNL     1      30.745   7.776  46.647  1.00  0.00     0.119 C 
HETATM   13  N4  UNL     1      29.936   8.717  46.382  1.00  0.00    -0.243 NA
HETATM   14  C22 UNL     1      31.553   7.389  45.463  1.00  0.00     0.145 C 
HETATM   15  N7  UNL     1      32.376   6.423  45.760  1.00  0.00    -0.298 NA
HETATM   16  C23 UNL     1      33.277   5.846  44.821  1.00  0.00     0.164 C 
ENDROOT
BRANCH  11  17
HETATM   17  N3  UNL     1      30.000   7.640  49.005  1.00  0.00    -0.382 N 
HETATM   18  H13 UNL     1      29.961   6.699  49.469  1.00  0.00     0.157 HD
HETATM   19  H14 UNL     1      29.595   8.587  49.179  1.00  0.00     0.157 HD
ENDBRANCH  11  17
BRANCH  13  20
HETATM   20  C14 UNL     1      29.015   9.356  47.212  1.00  0.00     0.071 C 
HETATM   21  C15 UNL     1      27.777   8.827  47.195  1.00  0.00     0.013 C 
HETATM   22  C16 UNL     1      26.474   9.301  47.790  1.00  0.00     0.040 C 
HETATM   23  C17 UNL     1      25.790  10.277  46.866  1.00  0.00     0.040 C 
HETATM   24  C21 UNL     1      26.760  10.120  49.041  1.00  0.00     0.283 C 
HETATM   25  C18 UNL     1      25.529  11.497  47.717  1.00  0.00     0.275 C 
HETATM   26  N5  UNL     1      26.576  11.491  48.699  1.00  0.00     0.108 NA
HETATM   27  C19 UNL     1      27.738  12.241  48.378  1.00  0.00     0.420 C 
HETATM   28  N6  UNL     1      28.993  11.535  48.507  1.00  0.00    -0.269 NA
HETATM   29  C20 UNL     1      29.586  10.504  47.954  1.00  0.00     0.143 C 
ENDBRANCH  13  20
BRANCH   1  30
HETATM   30  C4  UNL     1      35.334   5.279  48.492  1.00  0.00     0.032 C 
HETATM   31  C3  UNL     1      35.685   6.520  48.717  1.00  0.00    -0.002 C 
BRANCH  31  32
HETATM   32  C2  UNL     1      35.458   7.871  48.300  1.00  0.00    -0.009 C 
HETATM   33  C1  UNL     1      34.943   8.660  47.381  1.00  0.00     0.013 C 
ENDBRANCH  31  32
ENDBRANCH   1  30
TORSDOF 4
ENDMDL
