MODEL 1
REMARK VINA RESULT:      -7.9      0.000      0.000
REMARK  3 active torsions:
REMARK  status: ('A' for Active; 'I' for Inactive)
REMARK    1  A    between atoms: C2_2  and  C3_3 
REMARK       I    between atoms: C3_3  and  N1_5 
REMARK    2  A    between atoms: N1_5  and  C4_6 
REMARK    3  A    between atoms: C11_15  and  C12_16 
ROOT
HETATM    1  C4  UNL     1      22.673  -0.305  53.234  1.00  0.00     0.081 A 
HETATM    2  C5  UNL     1      22.058  -0.847  54.294  1.00  0.00     0.118 A 
HETATM    3  N2  UNL     1      22.989  -1.262  55.357  1.00  0.00    -0.350 N 
HETATM    4  C6  UNL     1      24.404  -1.301  55.703  1.00  0.00     0.284 A 
HETATM    5  N3  UNL     1      24.686  -0.806  54.697  1.00  0.00    -0.233 N 
HETATM    6  C7  UNL     1      24.020  -0.383  53.659  1.00  0.00     0.108 A 
HETATM    7  C8  UNL     1      25.272  -0.033  53.205  1.00  0.00     0.084 A 
HETATM    8  C9  UNL     1      25.585   0.587  52.015  1.00  0.00     0.036 A 
HETATM    9  C10 UNL     1      26.978   0.616  52.259  1.00  0.00     0.029 A 
HETATM   10  C11 UNL     1      27.309   0.036  53.515  1.00  0.00     0.035 A 
HETATM   11  N4  UNL     1      26.161  -0.426  54.203  1.00  0.00    -0.254 N 
HETATM   12  N5  UNL     1      25.643  -0.993  55.298  1.00  0.00    -0.067 NA
HETATM   13  H6  UNL     1      22.912  -1.713  56.323  1.00  0.00     0.163 HD
ENDROOT
BRANCH   1  14
HETATM   14  N1  UNL     1      22.545   0.291  52.012  1.00  0.00    -0.320 N 
HETATM   15  C3  UNL     1      21.180   0.312  51.544  1.00  0.00     0.245 C 
HETATM   16  O1  UNL     1      20.075  -0.086  51.983  1.00  0.00    -0.268 OA
HETATM   17  H4  UNL     1      23.299   0.707  51.429  1.00  0.00     0.169 HD
BRANCH  15  18
HETATM   18  C2  UNL     1      20.991   0.950  50.214  1.00  0.00     0.064 C 
HETATM   19  C1  UNL     1      21.051   1.374  48.957  1.00  0.00     0.017 C 
ENDBRANCH  15  18
ENDBRANCH   1  14
BRANCH  10  20
HETATM   20  C12 UNL     1      28.536  -0.224  54.242  1.00  0.00     0.037 A 
HETATM   21  C13 UNL     1      29.522  -1.232  53.646  1.00  0.00     0.011 A 
HETATM   22  C14 UNL     1      29.838   0.246  53.621  1.00  0.00     0.011 A 
ENDBRANCH  10  20
TORSDOF 3
ENDMDL
MODEL 2
REMARK VINA RESULT:      -7.6      2.901      6.495
REMARK  3 active torsions:
REMARK  status: ('A' for Active; 'I' for Inactive)
REMARK    1  A    between atoms: C2_2  and  C3_3 
REMARK       I    between atoms: C3_3  and  N1_5 
REMARK    2  A    between atoms: N1_5  and  C4_6 
REMARK    3  A    between atoms: C11_15  and  C12_16 
ROOT
HETATM    1  C4  UNL     1      26.495   1.970  51.664  1.00  0.00     0.081 A 
HETATM    2  C5  UNL     1      26.428   3.174  51.080  1.00  0.00     0.118 A 
HETATM    3  N2  UNL     1      25.073   3.752  51.093  1.00  0.00    -0.350 N 
HETATM    4  C6  UNL     1      23.709   3.486  51.529  1.00  0.00     0.284 A 
HETATM    5  N3  UNL     1      24.025   2.467  51.972  1.00  0.00    -0.233 N 
HETATM    6  C7  UNL     1      25.145   1.805  52.052  1.00  0.00     0.108 A 
HETATM    7  C8  UNL     1      24.363   0.886  52.718  1.00  0.00     0.084 A 
HETATM    8  C9  UNL     1      24.766  -0.310  53.268  1.00  0.00     0.036 A 
HETATM    9  C10 UNL     1      23.483  -0.658  53.752  1.00  0.00     0.029 A 
HETATM   10  C11 UNL     1      22.513   0.337  53.444  1.00  0.00     0.035 A 
HETATM   11  N4  UNL     1      23.077   1.422  52.731  1.00  0.00    -0.254 N 
HETATM   12  N5  UNL     1      22.905   2.618  52.157  1.00  0.00    -0.067 NA
HETATM   13  H6  UNL     1      24.611   4.652  50.749  1.00  0.00     0.163 HD
ENDROOT
BRANCH   1  14
HETATM   14  N1  UNL     1      27.282   0.924  52.053  1.00  0.00    -0.320 N 
HETATM   15  C3  UNL     1      28.061   1.223  53.230  1.00  0.00     0.245 C 
HETATM   16  O1  UNL     1      28.198   2.211  53.989  1.00  0.00    -0.268 OA
HETATM   17  H4  UNL     1      27.360  -0.010  51.603  1.00  0.00     0.169 HD
BRANCH  15  18
HETATM   18  C2  UNL     1      28.938   0.113  53.690  1.00  0.00     0.064 C 
HETATM   19  C1  UNL     1      29.796  -0.892  53.832  1.00  0.00     0.017 C 
ENDBRANCH  15  18
ENDBRANCH   1  14
BRANCH  10  20
HETATM   20  C12 UNL     1      21.087   0.491  53.657  1.00  0.00     0.037 A 
HETATM   21  C13 UNL     1      20.144   0.042  52.538  1.00  0.00     0.011 A 
HETATM   22  C14 UNL     1      20.256  -0.768  53.810  1.00  0.00     0.011 A 
ENDBRANCH  10  20
TORSDOF 3
ENDMDL
MODEL 3
REMARK VINA RESULT:      -7.6      3.211      5.809
REMARK  3 active torsions:
REMARK  status: ('A' for Active; 'I' for Inactive)
REMARK    1  A    between atoms: C2_2  and  C3_3 
REMARK       I    between atoms: C3_3  and  N1_5 
REMARK    2  A    between atoms: N1_5  and  C4_6 
REMARK    3  A    between atoms: C11_15  and  C12_16 
ROOT
HETATM    1  C4  UNL     1      25.120  -0.163  53.212  1.00  0.00     0.081 A 
HETATM    2  C5  UNL     1      23.939  -0.459  53.770  1.00  0.00     0.118 A 
HETATM    3  N2  UNL     1      22.868   0.481  53.398  1.00  0.00    -0.350 N 
HETATM    4  C6  UNL     1      22.603   1.674  52.605  1.00  0.00     0.284 A 
HETATM    5  N3  UNL     1      23.703   1.711  52.252  1.00  0.00    -0.233 N 
HETATM    6  C7  UNL     1      24.766   0.987  52.470  1.00  0.00     0.108 A 
HETATM    7  C8  UNL     1      25.353   1.886  51.607  1.00  0.00     0.084 A 
HETATM    8  C9  UNL     1      26.660   1.894  51.173  1.00  0.00     0.036 A 
HETATM    9  C10 UNL     1      26.508   3.038  50.356  1.00  0.00     0.029 A 
HETATM   10  C11 UNL     1      25.180   3.549  50.400  1.00  0.00     0.035 A 
HETATM   11  N4  UNL     1      24.348   2.783  51.253  1.00  0.00    -0.254 N 
HETATM   12  N5  UNL     1      23.132   2.580  51.773  1.00  0.00    -0.067 NA
HETATM   13  H6  UNL     1      21.828   0.596  53.614  1.00  0.00     0.163 HD
ENDROOT
BRANCH   1  14
HETATM   14  N1  UNL     1      26.429  -0.513  53.038  1.00  0.00    -0.320 N 
HETATM   15  C3  UNL     1      27.278  -0.037  54.104  1.00  0.00     0.245 C 
HETATM   16  O1  UNL     1      27.112   0.624  55.156  1.00  0.00    -0.268 OA
HETATM   17  H4  UNL     1      26.839  -1.061  52.255  1.00  0.00     0.169 HD
BRANCH  15  18
HETATM   18  C2  UNL     1      28.715  -0.392  53.957  1.00  0.00     0.064 C 
HETATM   19  C1  UNL     1      29.909  -0.855  53.604  1.00  0.00     0.017 C 
ENDBRANCH  15  18
ENDBRANCH   1  14
BRANCH  10  20
HETATM   20  C12 UNL     1      24.486   4.677  49.811  1.00  0.00     0.037 A 
HETATM   21  C13 UNL     1      24.858   6.080  50.298  1.00  0.00     0.011 A 
HETATM   22  C14 UNL     1      25.287   5.613  48.926  1.00  0.00     0.011 A 
ENDBRANCH  10  20
TORSDOF 3
ENDMDL
MODEL 4
REMARK VINA RESULT:      -7.4      2.179      5.629
REMARK  3 active torsions:
REMARK  status: ('A' for Active; 'I' for Inactive)
REMARK    1  A    between atoms: C2_2  and  C3_3 
REMARK       I    between atoms: C3_3  and  N1_5 
REMARK    2  A    between atoms: N1_5  and  C4_6 
REMARK    3  A    between atoms: C11_15  and  C12_16 
ROOT
HETATM    1  C4  UNL     1      25.408  -0.517  54.434  1.00  0.00     0.081 A 
HETATM    2  C5  UNL     1      24.470  -1.247  55.051  1.00  0.00     0.118 A 
HETATM    3  N2  UNL     1      23.116  -1.029  54.513  1.00  0.00    -0.350 N 
HETATM    4  C6  UNL     1      22.382  -0.277  53.505  1.00  0.00     0.284 A 
HETATM    5  N3  UNL     1      23.355   0.228  53.141  1.00  0.00    -0.233 N 
HETATM    6  C7  UNL     1      24.611   0.165  53.485  1.00  0.00     0.108 A 
HETATM    7  C8  UNL     1      24.768   1.067  52.457  1.00  0.00     0.084 A 
HETATM    8  C9  UNL     1      25.944   1.634  52.016  1.00  0.00     0.036 A 
HETATM    9  C10 UNL     1      25.333   2.395  50.992  1.00  0.00     0.029 A 
HETATM   10  C11 UNL     1      23.925   2.194  50.950  1.00  0.00     0.035 A 
HETATM   11  N4  UNL     1      23.491   1.284  51.944  1.00  0.00    -0.254 N 
HETATM   12  N5  UNL     1      22.481   0.610  52.506  1.00  0.00    -0.067 NA
HETATM   13  H6  UNL     1      22.133  -1.398  54.714  1.00  0.00     0.163 HD
ENDROOT
BRANCH   1  14
HETATM   14  N1  UNL     1      26.734  -0.210  54.319  1.00  0.00    -0.320 N 
HETATM   15  C3  UNL     1      27.474  -1.212  53.591  1.00  0.00     0.245 C 
HETATM   16  O1  UNL     1      27.202  -2.302  53.035  1.00  0.00    -0.268 OA
HETATM   17  H4  UNL     1      27.222   0.631  54.686  1.00  0.00     0.169 HD
BRANCH  15  18
HETATM   18  C2  UNL     1      28.926  -0.923  53.442  1.00  0.00     0.064 C 
HETATM   19  C1  UNL     1      30.165  -0.445  53.473  1.00  0.00     0.017 C 
ENDBRANCH  15  18
ENDBRANCH   1  14
BRANCH  10  20
HETATM   20  C12 UNL     1      22.829   2.718  50.158  1.00  0.00     0.037 A 
HETATM   21  C13 UNL     1      23.041   2.859  48.648  1.00  0.00     0.011 A 
HETATM   22  C14 UNL     1      22.141   1.772  49.192  1.00  0.00     0.011 A 
ENDBRANCH  10  20
TORSDOF 3
ENDMDL
MODEL 5
REMARK VINA RESULT:      -7.3      2.546      5.753
REMARK  3 active torsions:
REMARK  status: ('A' for Active; 'I' for Inactive)
REMARK    1  A    between atoms: C2_2  and  C3_3 
REMARK       I    between atoms: C3_3  and  N1_5 
REMARK    2  A    between atoms: N1_5  and  C4_6 
REMARK    3  A    between atoms: C11_15  and  C12_16 
ROOT
HETATM    1  C4  UNL     1      25.144  -0.184  53.430  1.00  0.00     0.081 A 
HETATM    2  C5  UNL     1      25.640  -0.780  54.522  1.00  0.00     0.118 A 
HETATM    3  N2  UNL     1      24.599  -1.317  55.415  1.00  0.00    -0.350 N 
HETATM    4  C6  UNL     1      23.155  -1.448  55.557  1.00  0.00     0.284 A 
HETATM    5  N3  UNL     1      22.984  -0.898  54.555  1.00  0.00    -0.233 N 
HETATM    6  C7  UNL     1      23.760  -0.365  53.653  1.00  0.00     0.108 A 
HETATM    7  C8  UNL     1      22.564  -0.090  53.025  1.00  0.00     0.084 A 
HETATM    8  C9  UNL     1      22.383   0.539  51.813  1.00  0.00     0.036 A 
HETATM    9  C10 UNL     1      20.972   0.447  51.841  1.00  0.00     0.029 A 
HETATM   10  C11 UNL     1      20.506  -0.201  53.018  1.00  0.00     0.035 A 
HETATM   11  N4  UNL     1      21.572  -0.590  53.865  1.00  0.00    -0.254 N 
HETATM   12  N5  UNL     1      21.967  -1.191  54.993  1.00  0.00    -0.067 NA
HETATM   13  H6  UNL     1      24.570  -1.841  56.346  1.00  0.00     0.163 HD
ENDROOT
BRANCH   1  14
HETATM   14  N1  UNL     1      25.405   0.445  52.247  1.00  0.00    -0.320 N 
HETATM   15  C3  UNL     1      26.162   1.661  52.419  1.00  0.00     0.245 C 
HETATM   16  O1  UNL     1      26.643   2.289  53.392  1.00  0.00    -0.268 OA
HETATM   17  H4  UNL     1      25.124   0.140  51.293  1.00  0.00     0.169 HD
BRANCH  15  18
HETATM   18  C2  UNL     1      26.469   2.385  51.156  1.00  0.00     0.064 C 
HETATM   19  C1  UNL     1      26.488   3.141  50.063  1.00  0.00     0.017 C 
ENDBRANCH  15  18
ENDBRANCH   1  14
BRANCH  10  20
HETATM   20  C12 UNL     1      19.206  -0.531  53.572  1.00  0.00     0.037 A 
HETATM   21  C13 UNL     1      18.101  -0.953  52.600  1.00  0.00     0.011 A 
HETATM   22  C14 UNL     1      18.755  -1.977  53.500  1.00  0.00     0.011 A 
ENDBRANCH  10  20
TORSDOF 3
ENDMDL
MODEL 6
REMARK VINA RESULT:      -7.3      3.107      5.350
REMARK  3 active torsions:
REMARK  status: ('A' for Active; 'I' for Inactive)
REMARK    1  A    between atoms: C2_2  and  C3_3 
REMARK       I    between atoms: C3_3  and  N1_5 
REMARK    2  A    between atoms: N1_5  and  C4_6 
REMARK    3  A    between atoms: C11_15  and  C12_16 
ROOT
HETATM    1  C4  UNL     1      26.586   2.441  52.157  1.00  0.00     0.081 A 
HETATM    2  C5  UNL     1      27.721   1.877  52.590  1.00  0.00     0.118 A 
HETATM    3  N2  UNL     1      27.510   0.574  53.244  1.00  0.00    -0.350 N 
HETATM    4  C6  UNL     1      26.471  -0.380  53.610  1.00  0.00     0.284 A 
HETATM    5  N3  UNL     1      25.656   0.298  53.150  1.00  0.00    -0.233 N 
HETATM    6  C7  UNL     1      25.651   1.454  52.547  1.00  0.00     0.108 A 
HETATM    7  C8  UNL     1      24.296   1.221  52.466  1.00  0.00     0.084 A 
HETATM    8  C9  UNL     1      23.343   2.027  51.884  1.00  0.00     0.036 A 
HETATM    9  C10 UNL     1      22.261   1.163  52.174  1.00  0.00     0.029 A 
HETATM   10  C11 UNL     1      22.687  -0.006  52.863  1.00  0.00     0.035 A 
HETATM   11  N4  UNL     1      24.086  -0.009  53.086  1.00  0.00    -0.254 N 
HETATM   12  N5  UNL     1      25.159  -0.645  53.568  1.00  0.00    -0.067 NA
HETATM   13  H6  UNL     1      28.123  -0.170  53.706  1.00  0.00     0.163 HD
ENDROOT
BRANCH   1  14
HETATM   14  N1  UNL     1      26.000   3.484  51.498  1.00  0.00    -0.320 N 
HETATM   15  C3  UNL     1      26.322   3.504  50.092  1.00  0.00     0.245 C 
HETATM   16  O1  UNL     1      27.012   2.798  49.319  1.00  0.00    -0.268 OA
HETATM   17  H4  UNL     1      25.379   4.216  51.898  1.00  0.00     0.169 HD
BRANCH  15  18
HETATM   18  C2  UNL     1      25.708   4.626  49.332  1.00  0.00     0.064 C 
HETATM   19  C1  UNL     1      25.205   5.773  48.888  1.00  0.00     0.017 C 
ENDBRANCH  15  18
ENDBRANCH   1  14
BRANCH  10  20
HETATM   20  C12 UNL     1      22.033  -1.176  53.418  1.00  0.00     0.037 A 
HETATM   21  C13 UNL     1      21.635  -1.140  54.896  1.00  0.00     0.011 A 
HETATM   22  C14 UNL     1      20.577  -1.044  53.821  1.00  0.00     0.011 A 
ENDBRANCH  10  20
TORSDOF 3
ENDMDL
MODEL 7
REMARK VINA RESULT:      -7.2      5.523      7.096
REMARK  3 active torsions:
REMARK  status: ('A' for Active; 'I' for Inactive)
REMARK    1  A    between atoms: C2_2  and  C3_3 
REMARK       I    between atoms: C3_3  and  N1_5 
REMARK    2  A    between atoms: N1_5  and  C4_6 
REMARK    3  A    between atoms: C11_15  and  C12_16 
ROOT
HETATM    1  C4  UNL     1      24.046   3.593  51.681  1.00  0.00     0.081 A 
HETATM    2  C5  UNL     1      23.098   4.335  52.268  1.00  0.00     0.118 A 
HETATM    3  N2  UNL     1      23.160   5.759  51.896  1.00  0.00    -0.350 N 
HETATM    4  C6  UNL     1      23.907   6.708  51.081  1.00  0.00     0.284 A 
HETATM    5  N3  UNL     1      24.607   5.868  50.706  1.00  0.00    -0.233 N 
HETATM    6  C7  UNL     1      24.706   4.586  50.920  1.00  0.00     0.108 A 
HETATM    7  C8  UNL     1      25.748   4.684  50.025  1.00  0.00     0.084 A 
HETATM    8  C9  UNL     1      26.552   3.664  49.565  1.00  0.00     0.036 A 
HETATM    9  C10 UNL     1      27.330   4.495  48.725  1.00  0.00     0.029 A 
HETATM   10  C11 UNL     1      26.908   5.852  48.784  1.00  0.00     0.035 A 
HETATM   11  N4  UNL     1      25.817   6.029  49.669  1.00  0.00    -0.254 N 
HETATM   12  N5  UNL     1      24.920   6.856  50.218  1.00  0.00    -0.067 NA
HETATM   13  H6  UNL     1      22.612   6.646  52.130  1.00  0.00     0.163 HD
ENDROOT
BRANCH   1  14
HETATM   14  N1  UNL     1      24.578   2.350  51.490  1.00  0.00    -0.320 N 
HETATM   15  C3  UNL     1      25.385   1.914  52.604  1.00  0.00     0.245 C 
HETATM   16  O1  UNL     1      25.723   2.396  53.711  1.00  0.00    -0.268 OA
HETATM   17  H4  UNL     1      24.457   1.730  50.664  1.00  0.00     0.169 HD
BRANCH  15  18
HETATM   18  C2  UNL     1      25.989   0.564  52.441  1.00  0.00     0.064 C 
HETATM   19  C1  UNL     1      26.754  -0.497  52.212  1.00  0.00     0.017 C 
ENDBRANCH  15  18
ENDBRANCH   1  14
BRANCH  10  20
HETATM   20  C12 UNL     1      27.344   7.097  48.182  1.00  0.00     0.037 A 
HETATM   21  C13 UNL     1      28.592   7.773  48.758  1.00  0.00     0.011 A 
HETATM   22  C14 UNL     1      28.651   7.089  47.411  1.00  0.00     0.011 A 
ENDBRANCH  10  20
TORSDOF 3
ENDMDL
MODEL 8
REMARK VINA RESULT:      -7.1      2.417      3.739
REMARK  3 active torsions:
REMARK  status: ('A' for Active; 'I' for Inactive)
REMARK    1  A    between atoms: C2_2  and  C3_3 
REMARK       I    between atoms: C3_3  and  N1_5 
REMARK    2  A    between atoms: N1_5  and  C4_6 
REMARK    3  A    between atoms: C11_15  and  C12_16 
ROOT
HETATM    1  C4  UNL     1      23.381   2.076  50.856  1.00  0.00     0.081 A 
HETATM    2  C5  UNL     1      23.596   3.135  50.066  1.00  0.00     0.118 A 
HETATM    3  N2  UNL     1      25.003   3.571  50.047  1.00  0.00    -0.350 N 
HETATM    4  C6  UNL     1      26.315   3.259  50.596  1.00  0.00     0.284 A 
HETATM    5  N3  UNL     1      25.879   2.371  51.192  1.00  0.00    -0.233 N 
HETATM    6  C7  UNL     1      24.693   1.848  51.333  1.00  0.00     0.108 A 
HETATM    7  C8  UNL     1      25.360   0.962  52.149  1.00  0.00     0.084 A 
HETATM    8  C9  UNL     1      24.827  -0.112  52.827  1.00  0.00     0.036 A 
HETATM    9  C10 UNL     1      26.056  -0.514  53.400  1.00  0.00     0.029 A 
HETATM   10  C11 UNL     1      27.127   0.335  53.006  1.00  0.00     0.035 A 
HETATM   11  N4  UNL     1      26.692   1.369  52.141  1.00  0.00    -0.254 N 
HETATM   12  N5  UNL     1      27.005   2.432  51.392  1.00  0.00    -0.067 NA
HETATM   13  H6  UNL     1      25.570   4.339  49.567  1.00  0.00     0.163 HD
ENDROOT
BRANCH   1  14
HETATM   14  N1  UNL     1      22.487   1.157  51.329  1.00  0.00    -0.320 N 
HETATM   15  C3  UNL     1      21.440   1.757  52.121  1.00  0.00     0.245 C 
HETATM   16  O1  UNL     1      21.146   2.919  52.487  1.00  0.00    -0.268 OA
HETATM   17  H4  UNL     1      22.496   0.129  51.173  1.00  0.00     0.169 HD
BRANCH  15  18
HETATM   18  C2  UNL     1      20.443   0.793  52.660  1.00  0.00     0.064 C 
HETATM   19  C1  UNL     1      19.528  -0.145  52.874  1.00  0.00     0.017 C 
ENDBRANCH  15  18
ENDBRANCH   1  14
BRANCH  10  20
HETATM   20  C12 UNL     1      28.545   0.416  53.301  1.00  0.00     0.037 A 
HETATM   21  C13 UNL     1      28.995   0.129  54.736  1.00  0.00     0.011 A 
HETATM   22  C14 UNL     1      29.269  -0.874  53.638  1.00  0.00     0.011 A 
ENDBRANCH  10  20
TORSDOF 3
ENDMDL
MODEL 9
REMARK VINA RESULT:      -6.9      1.882      2.631
REMARK  3 active torsions:
REMARK  status: ('A' for Active; 'I' for Inactive)
REMARK    1  A    between atoms: C2_2  and  C3_3 
REMARK       I    between atoms: C3_3  and  N1_5 
REMARK    2  A    between atoms: N1_5  and  C4_6 
REMARK    3  A    between atoms: C11_15  and  C12_16 
ROOT
HETATM    1  C4  UNL     1      20.171   0.336  52.641  1.00  0.00     0.081 A 
HETATM    2  C5  UNL     1      19.531  -0.493  53.475  1.00  0.00     0.118 A 
HETATM    3  N2  UNL     1      20.440  -1.291  54.315  1.00  0.00    -0.350 N 
HETATM    4  C6  UNL     1      21.852  -1.523  54.590  1.00  0.00     0.284 A 
HETATM    5  N3  UNL     1      22.158  -0.737  53.800  1.00  0.00    -0.233 N 
HETATM    6  C7  UNL     1      21.513   0.046  52.981  1.00  0.00     0.108 A 
HETATM    7  C8  UNL     1      22.782   0.457  52.636  1.00  0.00     0.084 A 
HETATM    8  C9  UNL     1      23.125   1.419  51.713  1.00  0.00     0.036 A 
HETATM    9  C10 UNL     1      24.519   1.287  51.915  1.00  0.00     0.029 A 
HETATM   10  C11 UNL     1      24.821   0.303  52.897  1.00  0.00     0.035 A 
HETATM   11  N4  UNL     1      23.651  -0.297  53.422  1.00  0.00    -0.254 N 
HETATM   12  N5  UNL     1      23.105  -1.168  54.279  1.00  0.00    -0.067 NA
HETATM   13  H6  UNL     1      20.341  -2.034  55.076  1.00  0.00     0.163 HD
ENDROOT
BRANCH   1  14
HETATM   14  N1  UNL     1      20.073   1.313  51.692  1.00  0.00    -0.320 N 
HETATM   15  C3  UNL     1      19.071   1.021  50.695  1.00  0.00     0.245 C 
HETATM   16  O1  UNL     1      18.263   0.086  50.483  1.00  0.00    -0.268 OA
HETATM   17  H4  UNL     1      20.622   2.194  51.631  1.00  0.00     0.169 HD
BRANCH  15  18
HETATM   18  C2  UNL     1      18.929   2.056  49.637  1.00  0.00     0.064 C 
HETATM   19  C1  UNL     1      18.854   2.768  48.518  1.00  0.00     0.017 C 
ENDBRANCH  15  18
ENDBRANCH   1  14
BRANCH  10  20
HETATM   20  C12 UNL     1      26.034  -0.253  53.464  1.00  0.00     0.037 A 
HETATM   21  C13 UNL     1      26.801  -1.289  52.637  1.00  0.00     0.011 A 
HETATM   22  C14 UNL     1      27.351   0.109  52.805  1.00  0.00     0.011 A 
ENDBRANCH  10  20
TORSDOF 3
ENDMDL
