MODEL 1
REMARK VINA RESULT:      -8.0      0.000      0.000
REMARK  6 active torsions:
REMARK  status: ('A' for Active; 'I' for Inactive)
REMARK    1  A    between atoms: C3_4  and  C4_5 
REMARK    2  A    between atoms: C5_6  and  C6_7 
REMARK    3  A    between atoms: C7_8  and  N1_9 
REMARK    4  A    between atoms: N1_9  and  C8_10 
REMARK    5  A    between atoms: C16_19  and  C17_20 
REMARK    6  A    between atoms: C17_20  and  N2_21 
ROOT
HETATM    1  F1  UNL     1      29.907   5.228  47.977  1.00  0.00    -0.205 F 
HETATM    2  C1  UNL     1      28.644   5.657  48.245  1.00  0.00     0.125 A 
HETATM    3  C2  UNL     1      27.730   4.741  48.719  1.00  0.00     0.063 A 
HETATM    4  C3  UNL     1      26.413   5.114  48.968  1.00  0.00     0.021 A 
HETATM    5  C14 UNL     1      26.136   6.436  48.701  1.00  0.00     0.021 A 
HETATM    6  C15 UNL     1      27.038   7.360  48.227  1.00  0.00     0.013 A 
HETATM    7  C16 UNL     1      28.352   6.967  47.985  1.00  0.00     0.009 A 
ENDROOT
BRANCH   4   8
HETATM    8  C4  UNL     1      25.439   4.183  49.455  1.00  0.00    -0.053 C 
HETATM    9  C5  UNL     1      24.608   3.417  49.869  1.00  0.00    -0.008 C 
BRANCH   9  10
HETATM   10  C6  UNL     1      23.627   2.529  50.371  1.00  0.00     0.009 C 
HETATM   11  C7  UNL     1      22.791   1.763  50.781  1.00  0.00     0.025 C 
BRANCH  11  12
HETATM   12  N1  UNL     1      21.817   0.845  51.252  1.00  0.00    -0.315 N 
HETATM   13  H2  UNL     1      20.970   0.733  50.653  1.00  0.00     0.176 HD
BRANCH  12  14
HETATM   14  C8  UNL     1      21.959   0.109  52.461  1.00  0.00     0.041 A 
HETATM   15  C9  UNL     1      20.832  -0.452  53.040  1.00  0.00     0.030 A 
HETATM   16  C10 UNL     1      21.011  -1.164  54.224  1.00  0.00     0.004 A 
HETATM   17  C11 UNL     1      22.257  -1.334  54.839  1.00  0.00     0.024 A 
HETATM   18  C12 UNL     1      23.358  -0.744  54.207  1.00  0.00     0.036 A 
HETATM   19 CL1  UNL     1      24.899  -0.964  54.989  1.00  0.00    -0.084 Cl
HETATM   20  C13 UNL     1      23.192  -0.043  53.046  1.00  0.00     0.053 A 
ENDBRANCH  12  14
ENDBRANCH  11  12
ENDBRANCH   9  10
ENDBRANCH   4   8
BRANCH   7  21
HETATM   21  C17 UNL     1      29.217   8.056  47.535  1.00  0.00     0.314 C 
BRANCH  21  22
HETATM   22  N2  UNL     1      30.182   8.461  48.474  1.00  0.00     0.092 NA
HETATM   23  C18 UNL     1      31.494   8.788  48.070  1.00  0.00     0.273 C 
HETATM   24  C19 UNL     1      31.383  10.297  47.770  1.00  0.00     0.032 C 
HETATM   25  C20 UNL     1      30.662  10.740  49.029  1.00  0.00     0.032 C 
HETATM   26  C21 UNL     1      29.711   9.588  49.285  1.00  0.00     0.273 C 
ENDBRANCH  21  22
ENDBRANCH   7  21
TORSDOF 6
ENDMDL
MODEL 2
REMARK VINA RESULT:      -7.7      3.604     10.973
REMARK  6 active torsions:
REMARK  status: ('A' for Active; 'I' for Inactive)
REMARK    1  A    between atoms: C3_4  and  C4_5 
REMARK    2  A    between atoms: C5_6  and  C6_7 
REMARK    3  A    between atoms: C7_8  and  N1_9 
REMARK    4  A    between atoms: N1_9  and  C8_10 
REMARK    5  A    between atoms: C16_19  and  C17_20 
REMARK    6  A    between atoms: C17_20  and  N2_21 
ROOT
HETATM    1  F1  UNL     1      21.824   1.263  49.696  1.00  0.00    -0.205 F 
HETATM    2  C1  UNL     1      22.766   1.909  50.435  1.00  0.00     0.125 A 
HETATM    3  C2  UNL     1      23.812   2.515  49.774  1.00  0.00     0.063 A 
HETATM    4  C3  UNL     1      24.827   3.151  50.482  1.00  0.00     0.021 A 
HETATM    5  C14 UNL     1      24.679   3.111  51.850  1.00  0.00     0.021 A 
HETATM    6  C15 UNL     1      23.640   2.509  52.522  1.00  0.00     0.013 A 
HETATM    7  C16 UNL     1      22.634   1.878  51.795  1.00  0.00     0.009 A 
ENDROOT
BRANCH   4   8
HETATM    8  C4  UNL     1      25.931   3.784  49.823  1.00  0.00    -0.053 C 
HETATM    9  C5  UNL     1      26.857   4.331  49.283  1.00  0.00    -0.008 C 
BRANCH   9  10
HETATM   10  C6  UNL     1      27.936   4.994  48.650  1.00  0.00     0.009 C 
HETATM   11  C7  UNL     1      28.844   5.577  48.112  1.00  0.00     0.025 C 
BRANCH  11  12
HETATM   12  N1  UNL     1      29.908   6.280  47.491  1.00  0.00    -0.315 N 
HETATM   13  H2  UNL     1      29.630   7.003  46.792  1.00  0.00     0.176 HD
BRANCH  12  14
HETATM   14  C8  UNL     1      31.279   6.036  47.783  1.00  0.00     0.041 A 
HETATM   15  C9  UNL     1      32.060   7.079  48.254  1.00  0.00     0.030 A 
HETATM   16  C10 UNL     1      33.397   6.801  48.528  1.00  0.00     0.004 A 
HETATM   17  C11 UNL     1      33.972   5.537  48.353  1.00  0.00     0.024 A 
HETATM   18  C12 UNL     1      33.134   4.523  47.874  1.00  0.00     0.036 A 
HETATM   19 CL1  UNL     1      33.867   2.958  47.660  1.00  0.00    -0.084 Cl
HETATM   20  C13 UNL     1      31.820   4.787  47.602  1.00  0.00     0.053 A 
ENDBRANCH  12  14
ENDBRANCH  11  12
ENDBRANCH   9  10
ENDBRANCH   4   8
BRANCH   7  21
HETATM   21  C17 UNL     1      21.566   1.326  52.628  1.00  0.00     0.314 C 
BRANCH  21  22
HETATM   22  N2  UNL     1      21.485  -0.078  52.619  1.00  0.00     0.092 NA
HETATM   23  C18 UNL     1      22.598  -0.870  52.969  1.00  0.00     0.273 C 
HETATM   24  C19 UNL     1      22.427  -1.030  54.493  1.00  0.00     0.032 C 
HETATM   25  C20 UNL     1      20.961  -1.419  54.531  1.00  0.00     0.032 C 
HETATM   26  C21 UNL     1      20.365  -0.563  53.432  1.00  0.00     0.273 C 
ENDBRANCH  21  22
ENDBRANCH   7  21
TORSDOF 6
ENDMDL
MODEL 3
REMARK VINA RESULT:      -7.7      3.590     11.002
REMARK  6 active torsions:
REMARK  status: ('A' for Active; 'I' for Inactive)
REMARK    1  A    between atoms: C3_4  and  C4_5 
REMARK    2  A    between atoms: C5_6  and  C6_7 
REMARK    3  A    between atoms: C7_8  and  N1_9 
REMARK    4  A    between atoms: N1_9  and  C8_10 
REMARK    5  A    between atoms: C16_19  and  C17_20 
REMARK    6  A    between atoms: C17_20  and  N2_21 
ROOT
HETATM    1  F1  UNL     1      25.031   1.077  52.579  1.00  0.00    -0.205 F 
HETATM    2  C1  UNL     1      24.815   1.826  51.463  1.00  0.00     0.125 A 
HETATM    3  C2  UNL     1      25.865   2.557  50.954  1.00  0.00     0.063 A 
HETATM    4  C3  UNL     1      25.689   3.375  49.842  1.00  0.00     0.021 A 
HETATM    5  C14 UNL     1      24.411   3.374  49.332  1.00  0.00     0.021 A 
HETATM    6  C15 UNL     1      23.353   2.650  49.832  1.00  0.00     0.013 A 
HETATM    7  C16 UNL     1      23.550   1.837  50.945  1.00  0.00     0.009 A 
ENDROOT
BRANCH   4   8
HETATM    8  C4  UNL     1      26.761   4.152  49.293  1.00  0.00    -0.053 C 
HETATM    9  C5  UNL     1      27.661   4.792  48.816  1.00  0.00    -0.008 C 
BRANCH   9  10
HETATM   10  C6  UNL     1      28.730   5.526  48.249  1.00  0.00     0.009 C 
HETATM   11  C7  UNL     1      29.650   6.153  47.785  1.00  0.00     0.025 C 
BRANCH  11  12
HETATM   12  N1  UNL     1      30.745   6.882  47.254  1.00  0.00    -0.315 N 
HETATM   13  H2  UNL     1      30.510   7.591  46.526  1.00  0.00     0.176 HD
BRANCH  12  14
HETATM   14  C8  UNL     1      32.090   6.680  47.670  1.00  0.00     0.041 A 
HETATM   15  C9  UNL     1      32.826   7.768  48.111  1.00  0.00     0.030 A 
HETATM   16  C10 UNL     1      34.140   7.530  48.509  1.00  0.00     0.004 A 
HETATM   17  C11 UNL     1      34.735   6.264  48.483  1.00  0.00     0.024 A 
HETATM   18  C12 UNL     1      33.942   5.204  48.028  1.00  0.00     0.036 A 
HETATM   19 CL1  UNL     1      34.700   3.636  48.001  1.00  0.00    -0.084 Cl
HETATM   20  C13 UNL     1      32.652   5.428  47.635  1.00  0.00     0.053 A 
ENDBRANCH  12  14
ENDBRANCH  11  12
ENDBRANCH   9  10
ENDBRANCH   4   8
BRANCH   7  21
HETATM   21  C17 UNL     1      22.360   1.084  51.339  1.00  0.00     0.314 C 
BRANCH  21  22
HETATM   22  N2  UNL     1      21.808   1.470  52.574  1.00  0.00     0.092 NA
HETATM   23  C18 UNL     1      20.435   1.773  52.690  1.00  0.00     0.273 C 
HETATM   24  C19 UNL     1      19.819   0.399  53.024  1.00  0.00     0.032 C 
HETATM   25  C20 UNL     1      20.771  -0.031  54.125  1.00  0.00     0.032 C 
HETATM   26  C21 UNL     1      22.103   0.496  53.629  1.00  0.00     0.273 C 
ENDBRANCH  21  22
ENDBRANCH   7  21
TORSDOF 6
ENDMDL
MODEL 4
REMARK VINA RESULT:      -7.6      6.623      9.072
REMARK  6 active torsions:
REMARK  status: ('A' for Active; 'I' for Inactive)
REMARK    1  A    between atoms: C3_4  and  C4_5 
REMARK    2  A    between atoms: C5_6  and  C6_7 
REMARK    3  A    between atoms: C7_8  and  N1_9 
REMARK    4  A    between atoms: N1_9  and  C8_10 
REMARK    5  A    between atoms: C16_19  and  C17_20 
REMARK    6  A    between atoms: C17_20  and  N2_21 
ROOT
HETATM    1  F1  UNL     1      24.513   2.000  51.198  1.00  0.00    -0.205 F 
HETATM    2  C1  UNL     1      23.939   1.011  51.936  1.00  0.00     0.125 A 
HETATM    3  C2  UNL     1      22.566   0.895  51.917  1.00  0.00     0.063 A 
HETATM    4  C3  UNL     1      21.923  -0.068  52.687  1.00  0.00     0.021 A 
HETATM    5  C14 UNL     1      22.768  -0.856  53.435  1.00  0.00     0.021 A 
HETATM    6  C15 UNL     1      24.140  -0.751  53.464  1.00  0.00     0.013 A 
HETATM    7  C16 UNL     1      24.765   0.220  52.685  1.00  0.00     0.009 A 
ENDROOT
BRANCH   4   8
HETATM    8  C4  UNL     1      20.497  -0.209  52.693  1.00  0.00    -0.053 C 
HETATM    9  C5  UNL     1      19.299  -0.327  52.718  1.00  0.00    -0.008 C 
BRANCH   9  10
HETATM   10  C6  UNL     1      17.893  -0.479  52.765  1.00  0.00     0.009 C 
HETATM   11  C7  UNL     1      16.693  -0.588  52.810  1.00  0.00     0.025 C 
BRANCH  11  12
HETATM   12  N1  UNL     1      15.279  -0.696  52.856  1.00  0.00    -0.315 N 
HETATM   13  H2  UNL     1      14.889  -1.646  52.666  1.00  0.00     0.176 HD
BRANCH  12  14
HETATM   14  C8  UNL     1      14.422   0.403  53.138  1.00  0.00     0.041 A 
HETATM   15  C9  UNL     1      14.735   1.648  52.617  1.00  0.00     0.030 A 
HETATM   16  C10 UNL     1      13.872   2.700  52.916  1.00  0.00     0.004 A 
HETATM   17  C11 UNL     1      12.725   2.554  53.704  1.00  0.00     0.024 A 
HETATM   18  C12 UNL     1      12.461   1.273  54.203  1.00  0.00     0.036 A 
HETATM   19 CL1  UNL     1      11.031   1.112  55.184  1.00  0.00    -0.084 Cl
HETATM   20  C13 UNL     1      13.303   0.235  53.915  1.00  0.00     0.053 A 
ENDBRANCH  12  14
ENDBRANCH  11  12
ENDBRANCH   9  10
ENDBRANCH   4   8
BRANCH   7  21
HETATM   21  C17 UNL     1      26.224   0.189  52.768  1.00  0.00     0.314 C 
BRANCH  21  22
HETATM   22  N2  UNL     1      26.762   0.908  53.851  1.00  0.00     0.092 NA
HETATM   23  C18 UNL     1      27.803   0.365  54.633  1.00  0.00     0.273 C 
HETATM   24  C19 UNL     1      29.065   0.849  53.891  1.00  0.00     0.032 C 
HETATM   25  C20 UNL     1      28.697   2.312  53.720  1.00  0.00     0.032 C 
HETATM   26  C21 UNL     1      27.207   2.245  53.448  1.00  0.00     0.273 C 
ENDBRANCH  21  22
ENDBRANCH   7  21
TORSDOF 6
ENDMDL
MODEL 5
REMARK VINA RESULT:      -7.5      1.826      2.893
REMARK  6 active torsions:
REMARK  status: ('A' for Active; 'I' for Inactive)
REMARK    1  A    between atoms: C3_4  and  C4_5 
REMARK    2  A    between atoms: C5_6  and  C6_7 
REMARK    3  A    between atoms: C7_8  and  N1_9 
REMARK    4  A    between atoms: N1_9  and  C8_10 
REMARK    5  A    between atoms: C16_19  and  C17_20 
REMARK    6  A    between atoms: C17_20  and  N2_21 
ROOT
HETATM    1  F1  UNL     1      32.289   5.636  47.321  1.00  0.00    -0.205 F 
HETATM    2  C1  UNL     1      31.030   6.144  47.408  1.00  0.00     0.125 A 
HETATM    3  C2  UNL     1      30.052   5.369  47.991  1.00  0.00     0.063 A 
HETATM    4  C3  UNL     1      28.738   5.820  48.067  1.00  0.00     0.021 A 
HETATM    5  C14 UNL     1      28.531   7.066  47.520  1.00  0.00     0.021 A 
HETATM    6  C15 UNL     1      29.498   7.850  46.934  1.00  0.00     0.013 A 
HETATM    7  C16 UNL     1      30.808   7.381  46.869  1.00  0.00     0.009 A 
ENDROOT
BRANCH   4   8
HETATM    8  C4  UNL     1      27.697   5.033  48.661  1.00  0.00    -0.053 C 
HETATM    9  C5  UNL     1      26.810   4.387  49.156  1.00  0.00    -0.008 C 
BRANCH   9  10
HETATM   10  C6  UNL     1      25.759   3.646  49.746  1.00  0.00     0.009 C 
HETATM   11  C7  UNL     1      24.871   3.021  50.269  1.00  0.00     0.025 C 
BRANCH  11  12
HETATM   12  N1  UNL     1      23.823   2.300  50.899  1.00  0.00    -0.315 N 
HETATM   13  H2  UNL     1      22.857   2.526  50.575  1.00  0.00     0.176 HD
BRANCH  12  14
HETATM   14  C8  UNL     1      24.046   1.327  51.911  1.00  0.00     0.041 A 
HETATM   15  C9  UNL     1      25.348   0.954  52.207  1.00  0.00     0.030 A 
HETATM   16  C10 UNL     1      25.526  -0.002  53.205  1.00  0.00     0.004 A 
HETATM   17  C11 UNL     1      24.467  -0.589  53.906  1.00  0.00     0.024 A 
HETATM   18  C12 UNL     1      23.175  -0.173  53.563  1.00  0.00     0.036 A 
HETATM   19 CL1  UNL     1      21.870  -0.916  54.445  1.00  0.00    -0.084 Cl
HETATM   20  C13 UNL     1      22.991   0.764  52.586  1.00  0.00     0.053 A 
ENDBRANCH  12  14
ENDBRANCH  11  12
ENDBRANCH   9  10
ENDBRANCH   4   8
BRANCH   7  21
HETATM   21  C17 UNL     1      31.743   8.333  46.271  1.00  0.00     0.314 C 
BRANCH  21  22
HETATM   22  N2  UNL     1      31.375   9.683  46.418  1.00  0.00     0.092 NA
HETATM   23  C18 UNL     1      31.806  10.432  47.534  1.00  0.00     0.273 C 
HETATM   24  C19 UNL     1      33.147  11.016  47.044  1.00  0.00     0.032 C 
HETATM   25  C20 UNL     1      32.703  11.537  45.690  1.00  0.00     0.032 C 
HETATM   26  C21 UNL     1      31.725  10.473  45.234  1.00  0.00     0.273 C 
ENDBRANCH  21  22
ENDBRANCH   7  21
TORSDOF 6
ENDMDL
MODEL 6
REMARK VINA RESULT:      -7.5      7.212      9.412
REMARK  6 active torsions:
REMARK  status: ('A' for Active; 'I' for Inactive)
REMARK    1  A    between atoms: C3_4  and  C4_5 
REMARK    2  A    between atoms: C5_6  and  C6_7 
REMARK    3  A    between atoms: C7_8  and  N1_9 
REMARK    4  A    between atoms: N1_9  and  C8_10 
REMARK    5  A    between atoms: C16_19  and  C17_20 
REMARK    6  A    between atoms: C17_20  and  N2_21 
ROOT
HETATM    1  F1  UNL     1      25.047   1.551  52.373  1.00  0.00    -0.205 F 
HETATM    2  C1  UNL     1      24.369   0.653  53.139  1.00  0.00     0.125 A 
HETATM    3  C2  UNL     1      23.014   0.512  52.936  1.00  0.00     0.063 A 
HETATM    4  C3  UNL     1      22.264  -0.358  53.721  1.00  0.00     0.021 A 
HETATM    5  C14 UNL     1      22.990  -1.030  54.678  1.00  0.00     0.021 A 
HETATM    6  C15 UNL     1      24.343  -0.898  54.892  1.00  0.00     0.013 A 
HETATM    7  C16 UNL     1      25.076  -0.023  54.095  1.00  0.00     0.009 A 
ENDROOT
BRANCH   4   8
HETATM    8  C4  UNL     1      20.852  -0.521  53.538  1.00  0.00    -0.053 C 
HETATM    9  C5  UNL     1      19.670  -0.672  53.371  1.00  0.00    -0.008 C 
BRANCH   9  10
HETATM   10  C6  UNL     1      18.283  -0.852  53.153  1.00  0.00     0.009 C 
HETATM   11  C7  UNL     1      17.103  -0.992  52.949  1.00  0.00     0.025 C 
BRANCH  11  12
HETATM   12  N1  UNL     1      15.718  -1.157  52.689  1.00  0.00    -0.315 N 
HETATM   13  H2  UNL     1      15.429  -2.097  52.338  1.00  0.00     0.176 HD
BRANCH  12  14
HETATM   14  C8  UNL     1      14.761  -0.124  52.883  1.00  0.00     0.041 A 
HETATM   15  C9  UNL     1      13.497  -0.459  53.343  1.00  0.00     0.030 A 
HETATM   16  C10 UNL     1      12.587   0.581  53.520  1.00  0.00     0.004 A 
HETATM   17  C11 UNL     1      12.889   1.922  53.260  1.00  0.00     0.024 A 
HETATM   18  C12 UNL     1      14.181   2.199  52.798  1.00  0.00     0.036 A 
HETATM   19 CL1  UNL     1      14.539   3.873  52.478  1.00  0.00    -0.084 Cl
HETATM   20  C13 UNL     1      15.081   1.185  52.620  1.00  0.00     0.053 A 
ENDBRANCH  12  14
ENDBRANCH  11  12
ENDBRANCH   9  10
ENDBRANCH   4   8
BRANCH   7  21
HETATM   21  C17 UNL     1      26.507  -0.018  54.392  1.00  0.00     0.314 C 
BRANCH  21  22
HETATM   22  N2  UNL     1      27.337  -0.212  53.272  1.00  0.00     0.092 NA
HETATM   23  C18 UNL     1      28.611   0.389  53.202  1.00  0.00     0.273 C 
HETATM   24  C19 UNL     1      29.516  -0.674  53.857  1.00  0.00     0.032 C 
HETATM   25  C20 UNL     1      29.025  -1.901  53.111  1.00  0.00     0.032 C 
HETATM   26  C21 UNL     1      27.539  -1.635  52.985  1.00  0.00     0.273 C 
ENDBRANCH  21  22
ENDBRANCH   7  21
TORSDOF 6
ENDMDL
MODEL 7
REMARK VINA RESULT:      -7.3      3.890     11.345
REMARK  6 active torsions:
REMARK  status: ('A' for Active; 'I' for Inactive)
REMARK    1  A    between atoms: C3_4  and  C4_5 
REMARK    2  A    between atoms: C5_6  and  C6_7 
REMARK    3  A    between atoms: C7_8  and  N1_9 
REMARK    4  A    between atoms: N1_9  and  C8_10 
REMARK    5  A    between atoms: C16_19  and  C17_20 
REMARK    6  A    between atoms: C17_20  and  N2_21 
ROOT
HETATM    1  F1  UNL     1      25.232   0.722  52.695  1.00  0.00    -0.205 F 
HETATM    2  C1  UNL     1      24.821   1.509  51.664  1.00  0.00     0.125 A 
HETATM    3  C2  UNL     1      25.738   2.354  51.080  1.00  0.00     0.063 A 
HETATM    4  C3  UNL     1      25.362   3.212  50.052  1.00  0.00     0.021 A 
HETATM    5  C14 UNL     1      24.034   3.129  49.698  1.00  0.00     0.021 A 
HETATM    6  C15 UNL     1      23.107   2.290  50.273  1.00  0.00     0.013 A 
HETATM    7  C16 UNL     1      23.504   1.438  51.301  1.00  0.00     0.009 A 
ENDROOT
BRANCH   4   8
HETATM    8  C4  UNL     1      26.292   4.108  49.430  1.00  0.00    -0.053 C 
HETATM    9  C5  UNL     1      27.079   4.866  48.926  1.00  0.00    -0.008 C 
BRANCH   9  10
HETATM   10  C6  UNL     1      27.998   5.774  48.348  1.00  0.00     0.009 C 
HETATM   11  C7  UNL     1      28.792   6.530  47.847  1.00  0.00     0.025 C 
BRANCH  11  12
HETATM   12  N1  UNL     1      29.730   7.407  47.243  1.00  0.00    -0.315 N 
HETATM   13  H2  UNL     1      30.176   7.061  46.365  1.00  0.00     0.176 HD
BRANCH  12  14
HETATM   14  C8  UNL     1      30.062   8.682  47.777  1.00  0.00     0.041 A 
HETATM   15  C9  UNL     1      30.451   8.772  49.104  1.00  0.00     0.030 A 
HETATM   16  C10 UNL     1      30.768  10.038  49.592  1.00  0.00     0.004 A 
HETATM   17  C11 UNL     1      30.712  11.199  48.813  1.00  0.00     0.024 A 
HETATM   18  C12 UNL     1      30.311  11.046  47.480  1.00  0.00     0.036 A 
HETATM   19 CL1  UNL     1      30.245  12.502  46.527  1.00  0.00    -0.084 Cl
HETATM   20  C13 UNL     1      29.998   9.807  46.993  1.00  0.00     0.053 A 
ENDBRANCH  12  14
ENDBRANCH  11  12
ENDBRANCH   9  10
ENDBRANCH   4   8
BRANCH   7  21
HETATM   21  C17 UNL     1      22.436   0.565  51.785  1.00  0.00     0.314 C 
BRANCH  21  22
HETATM   22  N2  UNL     1      22.062   0.788  53.122  1.00  0.00     0.092 NA
HETATM   23  C18 UNL     1      20.717   1.043  53.464  1.00  0.00     0.273 C 
HETATM   24  C19 UNL     1      20.162  -0.374  53.712  1.00  0.00     0.032 C 
HETATM   25  C20 UNL     1      21.262  -0.910  54.608  1.00  0.00     0.032 C 
HETATM   26  C21 UNL     1      22.508  -0.298  54.000  1.00  0.00     0.273 C 
ENDBRANCH  21  22
ENDBRANCH   7  21
TORSDOF 6
ENDMDL
MODEL 8
REMARK VINA RESULT:      -7.3      4.193     10.817
REMARK  6 active torsions:
REMARK  status: ('A' for Active; 'I' for Inactive)
REMARK    1  A    between atoms: C3_4  and  C4_5 
REMARK    2  A    between atoms: C5_6  and  C6_7 
REMARK    3  A    between atoms: C7_8  and  N1_9 
REMARK    4  A    between atoms: N1_9  and  C8_10 
REMARK    5  A    between atoms: C16_19  and  C17_20 
REMARK    6  A    between atoms: C17_20  and  N2_21 
ROOT
HETATM    1  F1  UNL     1      22.446   4.884  52.669  1.00  0.00    -0.205 F 
HETATM    2  C1  UNL     1      22.967   4.248  51.584  1.00  0.00     0.125 A 
HETATM    3  C2  UNL     1      24.197   4.654  51.117  1.00  0.00     0.063 A 
HETATM    4  C3  UNL     1      24.756   4.069  49.985  1.00  0.00     0.021 A 
HETATM    5  C14 UNL     1      23.982   3.088  49.409  1.00  0.00     0.021 A 
HETATM    6  C15 UNL     1      22.751   2.674  49.865  1.00  0.00     0.013 A 
HETATM    7  C16 UNL     1      22.209   3.271  51.000  1.00  0.00     0.009 A 
ENDROOT
BRANCH   4   8
HETATM    8  C4  UNL     1      26.032   4.475  49.472  1.00  0.00    -0.053 C 
HETATM    9  C5  UNL     1      27.094   4.831  49.032  1.00  0.00    -0.008 C 
BRANCH   9  10
HETATM   10  C6  UNL     1      28.333   5.254  48.495  1.00  0.00     0.009 C 
HETATM   11  C7  UNL     1      29.394   5.595  48.035  1.00  0.00     0.025 C 
BRANCH  11  12
HETATM   12  N1  UNL     1      30.643   5.978  47.481  1.00  0.00    -0.315 N 
HETATM   13  H2  UNL     1      30.665   6.910  47.010  1.00  0.00     0.176 HD
BRANCH  12  14
HETATM   14  C8  UNL     1      31.807   5.165  47.546  1.00  0.00     0.041 A 
HETATM   15  C9  UNL     1      31.797   3.929  46.919  1.00  0.00     0.030 A 
HETATM   16  C10 UNL     1      32.956   3.161  47.006  1.00  0.00     0.004 A 
HETATM   17  C11 UNL     1      34.107   3.577  47.684  1.00  0.00     0.024 A 
HETATM   18  C12 UNL     1      34.058   4.835  48.297  1.00  0.00     0.036 A 
HETATM   19 CL1  UNL     1      35.498   5.336  49.138  1.00  0.00    -0.084 Cl
HETATM   20  C13 UNL     1      32.924   5.595  48.218  1.00  0.00     0.053 A 
ENDBRANCH  12  14
ENDBRANCH  11  12
ENDBRANCH   9  10
ENDBRANCH   4   8
BRANCH   7  21
HETATM   21  C17 UNL     1      20.924   2.702  51.405  1.00  0.00     0.314 C 
BRANCH  21  22
HETATM   22  N2  UNL     1      20.677   1.408  50.912  1.00  0.00     0.092 NA
HETATM   23  C18 UNL     1      20.827   0.277  51.741  1.00  0.00     0.273 C 
HETATM   24  C19 UNL     1      19.424   0.135  52.366  1.00  0.00     0.032 C 
HETATM   25  C20 UNL     1      18.586   0.259  51.107  1.00  0.00     0.032 C 
HETATM   26  C21 UNL     1      19.345   1.302  50.310  1.00  0.00     0.273 C 
ENDBRANCH  21  22
ENDBRANCH   7  21
TORSDOF 6
ENDMDL
MODEL 9
REMARK VINA RESULT:      -6.8      3.680     11.288
REMARK  6 active torsions:
REMARK  status: ('A' for Active; 'I' for Inactive)
REMARK    1  A    between atoms: C3_4  and  C4_5 
REMARK    2  A    between atoms: C5_6  and  C6_7 
REMARK    3  A    between atoms: C7_8  and  N1_9 
REMARK    4  A    between atoms: N1_9  and  C8_10 
REMARK    5  A    between atoms: C16_19  and  C17_20 
REMARK    6  A    between atoms: C17_20  and  N2_21 
ROOT
HETATM    1  F1  UNL     1      22.177   2.890  52.119  1.00  0.00    -0.205 F 
HETATM    2  C1  UNL     1      23.483   2.550  51.943  1.00  0.00     0.125 A 
HETATM    3  C2  UNL     1      24.263   3.349  51.136  1.00  0.00     0.063 A 
HETATM    4  C3  UNL     1      25.592   3.024  50.884  1.00  0.00     0.021 A 
HETATM    5  C14 UNL     1      26.022   1.871  51.500  1.00  0.00     0.021 A 
HETATM    6  C15 UNL     1      25.254   1.063  52.307  1.00  0.00     0.013 A 
HETATM    7  C16 UNL     1      23.926   1.406  52.547  1.00  0.00     0.009 A 
ENDROOT
BRANCH   4   8
HETATM    8  C4  UNL     1      26.426   3.832  50.045  1.00  0.00    -0.053 C 
HETATM    9  C5  UNL     1      27.141   4.511  49.353  1.00  0.00    -0.008 C 
BRANCH   9  10
HETATM   10  C6  UNL     1      27.987   5.320  48.559  1.00  0.00     0.009 C 
HETATM   11  C7  UNL     1      28.725   6.002  47.892  1.00  0.00     0.025 C 
BRANCH  11  12
HETATM   12  N1  UNL     1      29.608   6.789  47.109  1.00  0.00    -0.315 N 
HETATM   13  H2  UNL     1      29.211   7.176  46.225  1.00  0.00     0.176 HD
BRANCH  12  14
HETATM   14  C8  UNL     1      30.956   7.049  47.479  1.00  0.00     0.041 A 
HETATM   15  C9  UNL     1      31.268   8.270  48.057  1.00  0.00     0.030 A 
HETATM   16  C10 UNL     1      32.599   8.488  48.406  1.00  0.00     0.004 A 
HETATM   17  C11 UNL     1      33.613   7.546  48.203  1.00  0.00     0.024 A 
HETATM   18  C12 UNL     1      33.237   6.332  47.615  1.00  0.00     0.036 A 
HETATM   19 CL1  UNL     1      34.513   5.172  47.368  1.00  0.00    -0.084 Cl
HETATM   20  C13 UNL     1      31.934   6.109  47.269  1.00  0.00     0.053 A 
ENDBRANCH  12  14
ENDBRANCH  11  12
ENDBRANCH   9  10
ENDBRANCH   4   8
BRANCH   7  21
HETATM   21  C17 UNL     1      23.241   0.494  53.461  1.00  0.00     0.314 C 
BRANCH  21  22
HETATM   22  N2  UNL     1      22.170  -0.214  52.885  1.00  0.00     0.092 NA
HETATM   23  C18 UNL     1      22.066  -1.614  53.032  1.00  0.00     0.273 C 
HETATM   24  C19 UNL     1      21.250  -1.752  54.333  1.00  0.00     0.032 C 
HETATM   25  C20 UNL     1      20.139  -0.765  54.026  1.00  0.00     0.032 C 
HETATM   26  C21 UNL     1      20.874   0.337  53.290  1.00  0.00     0.273 C 
ENDBRANCH  21  22
ENDBRANCH   7  21
TORSDOF 6
ENDMDL
