MODEL 1
REMARK VINA RESULT:      -8.3      0.000      0.000
REMARK  9 active torsions:
REMARK  status: ('A' for Active; 'I' for Inactive)
REMARK    1  A    between atoms: C2_2  and  C3_3 
REMARK    2  A    between atoms: C3_3  and  C4_5 
REMARK    3  A    between atoms: C4_5  and  C5_6 
REMARK    4  A    between atoms: C5_6  and  C6_7 
REMARK    5  A    between atoms: C6_7  and  C7_8 
REMARK    6  A    between atoms: C10_11  and  N1_12 
REMARK    7  A    between atoms: N1_12  and  C11_13 
REMARK    8  A    between atoms: C11_13  and  C13_15 
REMARK    9  A    between atoms: C22_25  and  O2_26 
ROOT
HETATM    1  C7  UNL     1      26.388   2.683  51.425  1.00  0.00     0.057 A 
HETATM    2  C8  UNL     1      25.134   2.855  51.751  1.00  0.00     0.049 A 
HETATM    3  C9  UNL     1      24.371   3.785  50.926  1.00  0.00     0.023 A 
HETATM    4  C10 UNL     1      23.090   3.966  51.250  1.00  0.00     0.134 A 
HETATM    5  N2  UNL     1      22.320   4.864  50.467  1.00  0.00    -0.246 NA
HETATM    6  C19 UNL     1      22.804   5.510  49.460  1.00  0.00     0.097 A 
HETATM    7  C20 UNL     1      24.198   5.435  48.956  1.00  0.00     0.091 A 
HETATM    8  C21 UNL     1      24.971   4.488  49.797  1.00  0.00     0.019 A 
HETATM    9  C22 UNL     1      26.254   4.249  49.544  1.00  0.00     0.192 A 
HETATM   10  O3  UNL     1      26.964   3.350  50.354  1.00  0.00    -0.292 OA
ENDROOT
BRANCH   4  11
HETATM   11  N1  UNL     1      22.438   3.317  52.334  1.00  0.00    -0.366 N 
HETATM   12  H13 UNL     1      22.731   3.896  53.151  1.00  0.00     0.161 HD
BRANCH  11  13
HETATM   13  C11 UNL     1      21.611   2.137  52.093  1.00  0.00     0.112 C 
HETATM   14  C12 UNL     1      20.144   2.410  52.214  1.00  0.00     0.037 C 
BRANCH  13  15
HETATM   15  C13 UNL     1      22.039   1.006  52.957  1.00  0.00    -0.036 A 
HETATM   16  C14 UNL     1      21.058   0.529  53.816  1.00  0.00     0.009 A 
HETATM   17  C15 UNL     1      21.262  -0.528  54.707  1.00  0.00     0.001 A 
HETATM   18  C16 UNL     1      22.494  -1.115  54.728  1.00  0.00     0.000 A 
HETATM   19  C17 UNL     1      23.488  -0.651  53.877  1.00  0.00     0.001 A 
HETATM   20  C18 UNL     1      23.274   0.390  53.006  1.00  0.00     0.009 A 
ENDBRANCH  13  15
ENDBRANCH  11  13
ENDBRANCH   4  11
BRANCH   1  21
HETATM   21  C6  UNL     1      27.329   1.766  52.158  1.00  0.00     0.065 C 
BRANCH  21  22
HETATM   22  C5  UNL     1      26.826   1.542  53.584  1.00  0.00     0.014 C 
BRANCH  22  23
HETATM   23  C4  UNL     1      27.450   0.357  54.250  1.00  0.00     0.078 C 
BRANCH  23  24
HETATM   24  C3  UNL     1      28.923   0.624  54.443  1.00  0.00     0.126 C 
HETATM   25  O1  UNL     1      29.195   1.614  55.105  1.00  0.00    -0.298 OA
BRANCH  24  26
HETATM   26  C2  UNL     1      29.833  -0.362  53.795  1.00  0.00     0.074 C 
HETATM   27  C1  UNL     1      29.066  -1.567  53.301  1.00  0.00     0.013 C 
ENDBRANCH  24  26
ENDBRANCH  23  24
ENDBRANCH  22  23
ENDBRANCH  21  22
ENDBRANCH   1  21
BRANCH   9  28
HETATM   28  O2  UNL     1      26.923   4.864  48.495  1.00  0.00    -0.335 OA
HETATM   29  C23 UNL     1      28.286   5.179  48.523  1.00  0.00     0.212 C 
ENDBRANCH   9  28
TORSDOF 9
ENDMDL
MODEL 2
REMARK VINA RESULT:      -8.3      2.097      5.631
REMARK  9 active torsions:
REMARK  status: ('A' for Active; 'I' for Inactive)
REMARK    1  A    between atoms: C2_2  and  C3_3 
REMARK    2  A    between atoms: C3_3  and  C4_5 
REMARK    3  A    between atoms: C4_5  and  C5_6 
REMARK    4  A    between atoms: C5_6  and  C6_7 
REMARK    5  A    between atoms: C6_7  and  C7_8 
REMARK    6  A    between atoms: C10_11  and  N1_12 
REMARK    7  A    between atoms: N1_12  and  C11_13 
REMARK    8  A    between atoms: C11_13  and  C13_15 
REMARK    9  A    between atoms: C22_25  and  O2_26 
ROOT
HETATM    1  C7  UNL     1      24.878   0.725  52.518  1.00  0.00     0.057 A 
HETATM    2  C8  UNL     1      24.493   1.890  52.066  1.00  0.00     0.049 A 
HETATM    3  C9  UNL     1      23.070   2.189  52.172  1.00  0.00     0.023 A 
HETATM    4  C10 UNL     1      22.668   3.376  51.715  1.00  0.00     0.134 A 
HETATM    5  N2  UNL     1      21.289   3.697  51.803  1.00  0.00    -0.246 NA
HETATM    6  C19 UNL     1      20.412   2.895  52.305  1.00  0.00     0.097 A 
HETATM    7  C20 UNL     1      20.673   1.543  52.859  1.00  0.00     0.091 A 
HETATM    8  C21 UNL     1      22.122   1.243  52.750  1.00  0.00     0.019 A 
HETATM    9  C22 UNL     1      22.607   0.082  53.182  1.00  0.00     0.192 A 
HETATM   10  O3  UNL     1      23.981  -0.179  53.067  1.00  0.00    -0.292 OA
ENDROOT
BRANCH   4  11
HETATM   11  N1  UNL     1      23.532   4.348  51.140  1.00  0.00    -0.366 N 
HETATM   12  H13 UNL     1      23.994   4.761  51.979  1.00  0.00     0.161 HD
BRANCH  11  13
HETATM   13  C11 UNL     1      23.573   4.528  49.691  1.00  0.00     0.112 C 
HETATM   14  C12 UNL     1      23.131   3.316  48.932  1.00  0.00     0.037 C 
BRANCH  13  15
HETATM   15  C13 UNL     1      24.914   4.998  49.255  1.00  0.00    -0.036 A 
HETATM   16  C14 UNL     1      25.929   4.061  49.390  1.00  0.00     0.009 A 
HETATM   17  C15 UNL     1      27.258   4.309  49.037  1.00  0.00     0.001 A 
HETATM   18  C16 UNL     1      27.565   5.540  48.533  1.00  0.00     0.000 A 
HETATM   19  C17 UNL     1      26.563   6.491  48.390  1.00  0.00     0.001 A 
HETATM   20  C18 UNL     1      25.260   6.233  48.743  1.00  0.00     0.009 A 
ENDBRANCH  13  15
ENDBRANCH  11  13
ENDBRANCH   4  11
BRANCH   1  21
HETATM   21  C6  UNL     1      26.303   0.243  52.493  1.00  0.00     0.065 C 
BRANCH  21  22
HETATM   22  C5  UNL     1      27.239   1.413  52.194  1.00  0.00     0.014 C 
BRANCH  22  23
HETATM   23  C4  UNL     1      27.864   1.995  53.422  1.00  0.00     0.078 C 
BRANCH  23  24
HETATM   24  C3  UNL     1      28.599   0.904  54.161  1.00  0.00     0.126 C 
HETATM   25  O1  UNL     1      28.169   0.642  55.274  1.00  0.00    -0.298 OA
BRANCH  24  26
HETATM   26  C2  UNL     1      29.746   0.304  53.422  1.00  0.00     0.074 C 
HETATM   27  C1  UNL     1      29.801  -1.192  53.623  1.00  0.00     0.013 C 
ENDBRANCH  24  26
ENDBRANCH  23  24
ENDBRANCH  22  23
ENDBRANCH  21  22
ENDBRANCH   1  21
BRANCH   9  28
HETATM   28  O2  UNL     1      21.795  -0.889  53.748  1.00  0.00    -0.335 OA
HETATM   29  C23 UNL     1      22.064  -1.508  54.974  1.00  0.00     0.212 C 
ENDBRANCH   9  28
TORSDOF 9
ENDMDL
MODEL 3
REMARK VINA RESULT:      -8.1      2.276      6.345
REMARK  9 active torsions:
REMARK  status: ('A' for Active; 'I' for Inactive)
REMARK    1  A    between atoms: C2_2  and  C3_3 
REMARK    2  A    between atoms: C3_3  and  C4_5 
REMARK    3  A    between atoms: C4_5  and  C5_6 
REMARK    4  A    between atoms: C5_6  and  C6_7 
REMARK    5  A    between atoms: C6_7  and  C7_8 
REMARK    6  A    between atoms: C10_11  and  N1_12 
REMARK    7  A    between atoms: N1_12  and  C11_13 
REMARK    8  A    between atoms: C11_13  and  C13_15 
REMARK    9  A    between atoms: C22_25  and  O2_26 
ROOT
HETATM    1  C7  UNL     1      23.230   3.830  51.171  1.00  0.00     0.057 A 
HETATM    2  C8  UNL     1      23.967   2.812  51.529  1.00  0.00     0.049 A 
HETATM    3  C9  UNL     1      23.300   1.765  52.295  1.00  0.00     0.023 A 
HETATM    4  C10 UNL     1      24.045   0.721  52.664  1.00  0.00     0.134 A 
HETATM    5  N2  UNL     1      23.426  -0.314  53.410  1.00  0.00    -0.246 NA
HETATM    6  C19 UNL     1      22.179  -0.289  53.745  1.00  0.00     0.097 A 
HETATM    7  C20 UNL     1      21.205   0.783  53.425  1.00  0.00     0.091 A 
HETATM    8  C21 UNL     1      21.887   1.845  52.646  1.00  0.00     0.019 A 
HETATM    9  C22 UNL     1      21.219   2.920  52.237  1.00  0.00     0.192 A 
HETATM   10  O3  UNL     1      21.886   3.912  51.502  1.00  0.00    -0.292 OA
ENDROOT
BRANCH   4  11
HETATM   11  N1  UNL     1      25.426   0.574  52.360  1.00  0.00    -0.366 N 
HETATM   12  H13 UNL     1      25.405   0.296  51.354  1.00  0.00     0.161 HD
BRANCH  11  13
HETATM   13  C11 UNL     1      26.434   0.813  53.389  1.00  0.00     0.112 C 
HETATM   14  C12 UNL     1      27.021   2.189  53.332  1.00  0.00     0.037 C 
BRANCH  13  15
HETATM   15  C13 UNL     1      27.483  -0.240  53.356  1.00  0.00    -0.036 A 
HETATM   16  C14 UNL     1      27.052  -1.473  52.887  1.00  0.00     0.009 A 
HETATM   17  C15 UNL     1      27.884  -2.591  52.781  1.00  0.00     0.001 A 
HETATM   18  C16 UNL     1      29.188  -2.453  53.160  1.00  0.00     0.000 A 
HETATM   19  C17 UNL     1      29.638  -1.227  53.633  1.00  0.00     0.001 A 
HETATM   20  C18 UNL     1      28.807  -0.136  53.732  1.00  0.00     0.009 A 
ENDBRANCH  13  15
ENDBRANCH  11  13
ENDBRANCH   4  11
BRANCH   1  21
HETATM   21  C6  UNL     1      23.743   5.001  50.378  1.00  0.00     0.065 C 
BRANCH  21  22
HETATM   22  C5  UNL     1      24.677   4.509  49.275  1.00  0.00     0.014 C 
BRANCH  22  23
HETATM   23  C4  UNL     1      25.854   5.406  49.055  1.00  0.00     0.078 C 
BRANCH  23  24
HETATM   24  C3  UNL     1      27.106   4.565  48.994  1.00  0.00     0.126 C 
HETATM   25  O1  UNL     1      27.000   3.432  49.435  1.00  0.00    -0.298 OA
BRANCH  24  26
HETATM   26  C2  UNL     1      28.293   5.245  48.402  1.00  0.00     0.074 C 
HETATM   27  C1  UNL     1      27.995   6.694  48.099  1.00  0.00     0.013 C 
ENDBRANCH  24  26
ENDBRANCH  23  24
ENDBRANCH  22  23
ENDBRANCH  21  22
ENDBRANCH   1  21
BRANCH   9  28
HETATM   28  O2  UNL     1      19.871   3.098  52.516  1.00  0.00    -0.335 OA
HETATM   29  C23 UNL     1      18.861   3.011  51.550  1.00  0.00     0.212 C 
ENDBRANCH   9  28
TORSDOF 9
ENDMDL
MODEL 4
REMARK VINA RESULT:      -7.9      2.696      6.725
REMARK  9 active torsions:
REMARK  status: ('A' for Active; 'I' for Inactive)
REMARK    1  A    between atoms: C2_2  and  C3_3 
REMARK    2  A    between atoms: C3_3  and  C4_5 
REMARK    3  A    between atoms: C4_5  and  C5_6 
REMARK    4  A    between atoms: C5_6  and  C6_7 
REMARK    5  A    between atoms: C6_7  and  C7_8 
REMARK    6  A    between atoms: C10_11  and  N1_12 
REMARK    7  A    between atoms: N1_12  and  C11_13 
REMARK    8  A    between atoms: C11_13  and  C13_15 
REMARK    9  A    between atoms: C22_25  and  O2_26 
ROOT
HETATM    1  C7  UNL     1      22.162   1.765  50.426  1.00  0.00     0.057 A 
HETATM    2  C8  UNL     1      23.126   1.284  51.167  1.00  0.00     0.049 A 
HETATM    3  C9  UNL     1      22.721   0.545  52.357  1.00  0.00     0.023 A 
HETATM    4  C10 UNL     1      23.698   0.049  53.120  1.00  0.00     0.134 A 
HETATM    5  N2  UNL     1      23.337  -0.675  54.285  1.00  0.00    -0.246 NA
HETATM    6  C19 UNL     1      22.111  -0.875  54.637  1.00  0.00     0.097 A 
HETATM    7  C20 UNL     1      20.903  -0.402  53.917  1.00  0.00     0.091 A 
HETATM    8  C21 UNL     1      21.319   0.349  52.707  1.00  0.00     0.019 A 
HETATM    9  C22 UNL     1      20.409   0.876  51.892  1.00  0.00     0.192 A 
HETATM   10  O3  UNL     1      20.827   1.583  50.754  1.00  0.00    -0.292 OA
ENDROOT
BRANCH   4  11
HETATM   11  N1  UNL     1      25.084   0.199  52.843  1.00  0.00    -0.366 N 
HETATM   12  H13 UNL     1      25.165  -0.200  51.882  1.00  0.00     0.161 HD
BRANCH  11  13
HETATM   13  C11 UNL     1      25.971   0.798  53.838  1.00  0.00     0.112 C 
HETATM   14  C12 UNL     1      25.950   2.295  53.822  1.00  0.00     0.037 C 
BRANCH  13  15
HETATM   15  C13 UNL     1      27.350   0.260  53.709  1.00  0.00    -0.036 A 
HETATM   16  C14 UNL     1      27.423  -1.046  53.243  1.00  0.00     0.009 A 
HETATM   17  C15 UNL     1      28.626  -1.730  53.053  1.00  0.00     0.001 A 
HETATM   18  C16 UNL     1      29.786  -1.073  53.344  1.00  0.00     0.000 A 
HETATM   19  C17 UNL     1      29.734   0.234  53.812  1.00  0.00     0.001 A 
HETATM   20  C18 UNL     1      28.543   0.895  53.994  1.00  0.00     0.009 A 
ENDBRANCH  13  15
ENDBRANCH  11  13
ENDBRANCH   4  11
BRANCH   1  21
HETATM   21  C6  UNL     1      22.386   2.552  49.164  1.00  0.00     0.065 C 
BRANCH  21  22
HETATM   22  C5  UNL     1      22.597   4.026  49.505  1.00  0.00     0.014 C 
BRANCH  22  23
HETATM   23  C4  UNL     1      23.813   4.612  48.860  1.00  0.00     0.078 C 
BRANCH  23  24
HETATM   24  C3  UNL     1      24.901   4.746  49.898  1.00  0.00     0.126 C 
HETATM   25  O1  UNL     1      24.577   5.317  50.927  1.00  0.00    -0.298 OA
BRANCH  24  26
HETATM   26  C2  UNL     1      26.215   4.159  49.513  1.00  0.00     0.074 C 
HETATM   27  C1  UNL     1      26.462   2.855  50.235  1.00  0.00     0.013 C 
ENDBRANCH  24  26
ENDBRANCH  23  24
ENDBRANCH  22  23
ENDBRANCH  21  22
ENDBRANCH   1  21
BRANCH   9  28
HETATM   28  O2  UNL     1      19.049   0.751  52.129  1.00  0.00    -0.335 OA
HETATM   29  C23 UNL     1      18.198  -0.055  51.363  1.00  0.00     0.212 C 
ENDBRANCH   9  28
TORSDOF 9
ENDMDL
MODEL 5
REMARK VINA RESULT:      -7.8      2.475      6.225
REMARK  9 active torsions:
REMARK  status: ('A' for Active; 'I' for Inactive)
REMARK    1  A    between atoms: C2_2  and  C3_3 
REMARK    2  A    between atoms: C3_3  and  C4_5 
REMARK    3  A    between atoms: C4_5  and  C5_6 
REMARK    4  A    between atoms: C5_6  and  C6_7 
REMARK    5  A    between atoms: C6_7  and  C7_8 
REMARK    6  A    between atoms: C10_11  and  N1_12 
REMARK    7  A    between atoms: N1_12  and  C11_13 
REMARK    8  A    between atoms: C11_13  and  C13_15 
REMARK    9  A    between atoms: C22_25  and  O2_26 
ROOT
HETATM    1  C7  UNL     1      23.466   2.152  52.366  1.00  0.00     0.057 A 
HETATM    2  C8  UNL     1      24.191   3.074  51.788  1.00  0.00     0.049 A 
HETATM    3  C9  UNL     1      23.490   4.281  51.368  1.00  0.00     0.023 A 
HETATM    4  C10 UNL     1      24.222   5.228  50.778  1.00  0.00     0.134 A 
HETATM    5  N2  UNL     1      23.570   6.415  50.357  1.00  0.00    -0.246 NA
HETATM    6  C19 UNL     1      22.305   6.618  50.521  1.00  0.00     0.097 A 
HETATM    7  C20 UNL     1      21.341   5.684  51.152  1.00  0.00     0.091 A 
HETATM    8  C21 UNL     1      22.057   4.457  51.578  1.00  0.00     0.019 A 
HETATM    9  C22 UNL     1      21.404   3.464  52.174  1.00  0.00     0.192 A 
HETATM   10  O3  UNL     1      22.103   2.313  52.568  1.00  0.00    -0.292 OA
ENDROOT
BRANCH   4  11
HETATM   11  N1  UNL     1      25.620   5.128  50.539  1.00  0.00    -0.366 N 
HETATM   12  H13 UNL     1      26.026   5.505  51.424  1.00  0.00     0.161 HD
BRANCH  11  13
HETATM   13  C11 UNL     1      26.112   4.593  49.273  1.00  0.00     0.112 C 
HETATM   14  C12 UNL     1      26.670   3.208  49.395  1.00  0.00     0.037 C 
BRANCH  13  15
HETATM   15  C13 UNL     1      27.081   5.528  48.644  1.00  0.00    -0.036 A 
HETATM   16  C14 UNL     1      26.535   6.735  48.228  1.00  0.00     0.009 A 
HETATM   17  C15 UNL     1      27.279   7.746  47.614  1.00  0.00     0.001 A 
HETATM   18  C16 UNL     1      28.612   7.526  47.417  1.00  0.00     0.000 A 
HETATM   19  C17 UNL     1      29.176   6.325  47.825  1.00  0.00     0.001 A 
HETATM   20  C18 UNL     1      28.432   5.339  48.428  1.00  0.00     0.009 A 
ENDBRANCH  13  15
ENDBRANCH  11  13
ENDBRANCH   4  11
BRANCH   1  21
HETATM   21  C6  UNL     1      24.014   0.843  52.865  1.00  0.00     0.065 C 
BRANCH  21  22
HETATM   22  C5  UNL     1      25.406   1.057  53.457  1.00  0.00     0.014 C 
BRANCH  22  23
HETATM   23  C4  UNL     1      26.474   0.292  52.743  1.00  0.00     0.078 C 
BRANCH  23  24
HETATM   24  C3  UNL     1      27.315  -0.441  53.760  1.00  0.00     0.126 C 
HETATM   25  O1  UNL     1      26.940  -0.345  54.918  1.00  0.00    -0.298 OA
BRANCH  24  26
HETATM   26  C2  UNL     1      28.484  -1.176  53.199  1.00  0.00     0.074 C 
HETATM   27  C1  UNL     1      29.783  -0.506  53.581  1.00  0.00     0.013 C 
ENDBRANCH  24  26
ENDBRANCH  23  24
ENDBRANCH  22  23
ENDBRANCH  21  22
ENDBRANCH   1  21
BRANCH   9  28
HETATM   28  O2  UNL     1      20.041   3.526  52.424  1.00  0.00    -0.335 OA
HETATM   29  C23 UNL     1      19.099   2.696  51.804  1.00  0.00     0.212 C 
ENDBRANCH   9  28
TORSDOF 9
ENDMDL
MODEL 6
REMARK VINA RESULT:      -7.7      3.284      6.225
REMARK  9 active torsions:
REMARK  status: ('A' for Active; 'I' for Inactive)
REMARK    1  A    between atoms: C2_2  and  C3_3 
REMARK    2  A    between atoms: C3_3  and  C4_5 
REMARK    3  A    between atoms: C4_5  and  C5_6 
REMARK    4  A    between atoms: C5_6  and  C6_7 
REMARK    5  A    between atoms: C6_7  and  C7_8 
REMARK    6  A    between atoms: C10_11  and  N1_12 
REMARK    7  A    between atoms: N1_12  and  C11_13 
REMARK    8  A    between atoms: C11_13  and  C13_15 
REMARK    9  A    between atoms: C22_25  and  O2_26 
ROOT
HETATM    1  C7  UNL     1      21.708  -0.567  53.339  1.00  0.00     0.057 A 
HETATM    2  C8  UNL     1      21.880   0.092  52.223  1.00  0.00     0.049 A 
HETATM    3  C9  UNL     1      20.678   0.383  51.450  1.00  0.00     0.023 A 
HETATM    4  C10 UNL     1      20.843   1.055  50.310  1.00  0.00     0.134 A 
HETATM    5  N2  UNL     1      19.694   1.354  49.535  1.00  0.00    -0.246 NA
HETATM    6  C19 UNL     1      18.501   1.007  49.884  1.00  0.00     0.097 A 
HETATM    7  C20 UNL     1      18.128   0.260  51.111  1.00  0.00     0.091 A 
HETATM    8  C21 UNL     1      19.353  -0.035  51.894  1.00  0.00     0.019 A 
HETATM    9  C22 UNL     1      19.278  -0.701  53.043  1.00  0.00     0.192 A 
HETATM   10  O3  UNL     1      20.451  -0.968  53.766  1.00  0.00    -0.292 OA
ENDROOT
BRANCH   4  11
HETATM   11  N1  UNL     1      22.101   1.495  49.814  1.00  0.00    -0.366 N 
HETATM   12  H13 UNL     1      22.544   0.602  49.503  1.00  0.00     0.161 HD
BRANCH  11  13
HETATM   13  C11 UNL     1      22.449   2.913  49.847  1.00  0.00     0.112 C 
HETATM   14  C12 UNL     1      21.911   3.680  48.679  1.00  0.00     0.037 C 
BRANCH  13  15
HETATM   15  C13 UNL     1      23.916   3.094  50.002  1.00  0.00    -0.036 A 
HETATM   16  C14 UNL     1      24.485   2.358  51.032  1.00  0.00     0.009 A 
HETATM   17  C15 UNL     1      25.848   2.392  51.341  1.00  0.00     0.001 A 
HETATM   18  C16 UNL     1      26.653   3.193  50.584  1.00  0.00     0.000 A 
HETATM   19  C17 UNL     1      26.102   3.937  49.549  1.00  0.00     0.001 A 
HETATM   20  C18 UNL     1      24.759   3.895  49.257  1.00  0.00     0.009 A 
ENDBRANCH  13  15
ENDBRANCH  11  13
ENDBRANCH   4  11
BRANCH   1  21
HETATM   21  C6  UNL     1      22.827  -0.956  54.266  1.00  0.00     0.065 C 
BRANCH  21  22
HETATM   22  C5  UNL     1      24.151  -0.406  53.737  1.00  0.00     0.014 C 
BRANCH  22  23
HETATM   23  C4  UNL     1      25.317  -0.730  54.616  1.00  0.00     0.078 C 
BRANCH  23  24
HETATM   24  C3  UNL     1      26.495   0.117  54.198  1.00  0.00     0.126 C 
HETATM   25  O1  UNL     1      26.678   1.125  54.862  1.00  0.00    -0.298 OA
BRANCH  24  26
HETATM   26  C2  UNL     1      27.263  -0.404  53.032  1.00  0.00     0.074 C 
HETATM   27  C1  UNL     1      28.642  -0.858  53.448  1.00  0.00     0.013 C 
ENDBRANCH  24  26
ENDBRANCH  23  24
ENDBRANCH  22  23
ENDBRANCH  21  22
ENDBRANCH   1  21
BRANCH   9  28
HETATM   28  O2  UNL     1      18.069  -1.144  53.558  1.00  0.00    -0.335 OA
HETATM   29  C23 UNL     1      17.694  -2.492  53.608  1.00  0.00     0.212 C 
ENDBRANCH   9  28
TORSDOF 9
ENDMDL
MODEL 7
REMARK VINA RESULT:      -7.5      2.088      6.086
REMARK  9 active torsions:
REMARK  status: ('A' for Active; 'I' for Inactive)
REMARK    1  A    between atoms: C2_2  and  C3_3 
REMARK    2  A    between atoms: C3_3  and  C4_5 
REMARK    3  A    between atoms: C4_5  and  C5_6 
REMARK    4  A    between atoms: C5_6  and  C6_7 
REMARK    5  A    between atoms: C6_7  and  C7_8 
REMARK    6  A    between atoms: C10_11  and  N1_12 
REMARK    7  A    between atoms: N1_12  and  C11_13 
REMARK    8  A    between atoms: C11_13  and  C13_15 
REMARK    9  A    between atoms: C22_25  and  O2_26 
ROOT
HETATM    1  C7  UNL     1      26.019   2.426  51.012  1.00  0.00     0.057 A 
HETATM    2  C8  UNL     1      24.776   2.386  51.414  1.00  0.00     0.049 A 
HETATM    3  C9  UNL     1      24.426   1.312  52.336  1.00  0.00     0.023 A 
HETATM    4  C10 UNL     1      23.159   1.264  52.752  1.00  0.00     0.134 A 
HETATM    5  N2  UNL     1      22.787   0.230  53.650  1.00  0.00    -0.246 NA
HETATM    6  C19 UNL     1      23.617  -0.661  54.079  1.00  0.00     0.097 A 
HETATM    7  C20 UNL     1      25.055  -0.764  53.726  1.00  0.00     0.091 A 
HETATM    8  C21 UNL     1      25.406   0.331  52.788  1.00  0.00     0.019 A 
HETATM    9  C22 UNL     1      26.647   0.453  52.324  1.00  0.00     0.192 A 
HETATM   10  O3  UNL     1      26.956   1.496  51.438  1.00  0.00    -0.292 OA
ENDROOT
BRANCH   4  11
HETATM   11  N1  UNL     1      22.150   2.183  52.355  1.00  0.00    -0.366 N 
HETATM   12  H13 UNL     1      22.264   2.954  53.049  1.00  0.00     0.161 HD
BRANCH  11  13
HETATM   13  C11 UNL     1      21.289   1.880  51.215  1.00  0.00     0.112 C 
HETATM   14  C12 UNL     1      21.232   0.420  50.889  1.00  0.00     0.037 C 
BRANCH  13  15
HETATM   15  C13 UNL     1      21.668   2.699  50.034  1.00  0.00    -0.036 A 
HETATM   16  C14 UNL     1      22.082   1.967  48.930  1.00  0.00     0.009 A 
HETATM   17  C15 UNL     1      22.480   2.551  47.724  1.00  0.00     0.001 A 
HETATM   18  C16 UNL     1      22.457   3.913  47.637  1.00  0.00     0.000 A 
HETATM   19  C17 UNL     1      22.047   4.662  48.732  1.00  0.00     0.001 A 
HETATM   20  C18 UNL     1      21.659   4.075  49.912  1.00  0.00     0.009 A 
ENDBRANCH  13  15
ENDBRANCH  11  13
ENDBRANCH   4  11
BRANCH   1  21
HETATM   21  C6  UNL     1      26.563   3.459  50.064  1.00  0.00     0.065 C 
BRANCH  21  22
HETATM   22  C5  UNL     1      25.511   4.540  49.818  1.00  0.00     0.014 C 
BRANCH  22  23
HETATM   23  C4  UNL     1      26.079   5.793  49.233  1.00  0.00     0.078 C 
BRANCH  23  24
HETATM   24  C3  UNL     1      25.666   6.965  50.091  1.00  0.00     0.126 C 
HETATM   25  O1  UNL     1      26.369   7.958  49.997  1.00  0.00    -0.298 OA
BRANCH  24  26
HETATM   26  C2  UNL     1      24.455   6.736  50.930  1.00  0.00     0.074 C 
HETATM   27  C1  UNL     1      23.395   7.775  50.651  1.00  0.00     0.013 C 
ENDBRANCH  24  26
ENDBRANCH  23  24
ENDBRANCH  22  23
ENDBRANCH  21  22
ENDBRANCH   1  21
BRANCH   9  28
HETATM   28  O2  UNL     1      27.658  -0.425  52.690  1.00  0.00    -0.335 OA
HETATM   29  C23 UNL     1      28.745  -0.065  53.493  1.00  0.00     0.212 C 
ENDBRANCH   9  28
TORSDOF 9
ENDMDL
MODEL 8
REMARK VINA RESULT:      -7.4      2.704      5.837
REMARK  9 active torsions:
REMARK  status: ('A' for Active; 'I' for Inactive)
REMARK    1  A    between atoms: C2_2  and  C3_3 
REMARK    2  A    between atoms: C3_3  and  C4_5 
REMARK    3  A    between atoms: C4_5  and  C5_6 
REMARK    4  A    between atoms: C5_6  and  C6_7 
REMARK    5  A    between atoms: C6_7  and  C7_8 
REMARK    6  A    between atoms: C10_11  and  N1_12 
REMARK    7  A    between atoms: N1_12  and  C11_13 
REMARK    8  A    between atoms: C11_13  and  C13_15 
REMARK    9  A    between atoms: C22_25  and  O2_26 
ROOT
HETATM    1  C7  UNL     1      26.702   4.607  49.104  1.00  0.00     0.057 A 
HETATM    2  C8  UNL     1      26.582   3.552  49.867  1.00  0.00     0.049 A 
HETATM    3  C9  UNL     1      25.233   3.225  50.314  1.00  0.00     0.023 A 
HETATM    4  C10 UNL     1      25.100   2.150  51.092  1.00  0.00     0.134 A 
HETATM    5  N2  UNL     1      23.801   1.805  51.544  1.00  0.00    -0.246 NA
HETATM    6  C19 UNL     1      22.747   2.484  51.236  1.00  0.00     0.097 A 
HETATM    7  C20 UNL     1      22.703   3.700  50.388  1.00  0.00     0.091 A 
HETATM    8  C21 UNL     1      24.076   4.029  49.935  1.00  0.00     0.019 A 
HETATM    9  C22 UNL     1      24.298   5.085  49.156  1.00  0.00     0.192 A 
HETATM   10  O3  UNL     1      25.607   5.376  48.741  1.00  0.00    -0.292 OA
ENDROOT
BRANCH   4  11
HETATM   11  N1  UNL     1      26.179   1.320  51.503  1.00  0.00    -0.366 N 
HETATM   12  H13 UNL     1      26.733   1.220  50.623  1.00  0.00     0.161 HD
BRANCH  11  13
HETATM   13  C11 UNL     1      26.261   0.851  52.884  1.00  0.00     0.112 C 
HETATM   14  C12 UNL     1      26.420   1.962  53.875  1.00  0.00     0.037 C 
BRANCH  13  15
HETATM   15  C13 UNL     1      27.320  -0.180  53.031  1.00  0.00    -0.036 A 
HETATM   16  C14 UNL     1      26.934  -1.464  52.671  1.00  0.00     0.009 A 
HETATM   17  C15 UNL     1      27.784  -2.572  52.738  1.00  0.00     0.001 A 
HETATM   18  C16 UNL     1      29.059  -2.371  53.181  1.00  0.00     0.000 A 
HETATM   19  C17 UNL     1      29.464  -1.094  53.546  1.00  0.00     0.001 A 
HETATM   20  C18 UNL     1      28.617  -0.013  53.475  1.00  0.00     0.009 A 
ENDBRANCH  13  15
ENDBRANCH  11  13
ENDBRANCH   4  11
BRANCH   1  21
HETATM   21  C6  UNL     1      28.012   5.097  48.548  1.00  0.00     0.065 C 
BRANCH  21  22
HETATM   22  C5  UNL     1      27.884   6.564  48.143  1.00  0.00     0.014 C 
BRANCH  22  23
HETATM   23  C4  UNL     1      29.111   7.101  47.477  1.00  0.00     0.078 C 
BRANCH  23  24
HETATM   24  C3  UNL     1      29.937   7.845  48.499  1.00  0.00     0.126 C 
HETATM   25  O1  UNL     1      29.338   8.691  49.143  1.00  0.00    -0.298 OA
BRANCH  24  26
HETATM   26  C2  UNL     1      31.369   7.435  48.571  1.00  0.00     0.074 C 
HETATM   27  C1  UNL     1      31.535   6.179  49.393  1.00  0.00     0.013 C 
ENDBRANCH  24  26
ENDBRANCH  23  24
ENDBRANCH  22  23
ENDBRANCH  21  22
ENDBRANCH   1  21
BRANCH   9  28
HETATM   28  O2  UNL     1      23.271   5.916  48.736  1.00  0.00    -0.335 OA
HETATM   29  C23 UNL     1      22.833   6.000  47.409  1.00  0.00     0.212 C 
ENDBRANCH   9  28
TORSDOF 9
ENDMDL
MODEL 9
REMARK VINA RESULT:      -7.4      3.136      6.965
REMARK  9 active torsions:
REMARK  status: ('A' for Active; 'I' for Inactive)
REMARK    1  A    between atoms: C2_2  and  C3_3 
REMARK    2  A    between atoms: C3_3  and  C4_5 
REMARK    3  A    between atoms: C4_5  and  C5_6 
REMARK    4  A    between atoms: C5_6  and  C6_7 
REMARK    5  A    between atoms: C6_7  and  C7_8 
REMARK    6  A    between atoms: C10_11  and  N1_12 
REMARK    7  A    between atoms: N1_12  and  C11_13 
REMARK    8  A    between atoms: C11_13  and  C13_15 
REMARK    9  A    between atoms: C22_25  and  O2_26 
ROOT
HETATM    1  C7  UNL     1      21.108   1.272  49.764  1.00  0.00     0.057 A 
HETATM    2  C8  UNL     1      22.067   1.145  50.643  1.00  0.00     0.049 A 
HETATM    3  C9  UNL     1      21.705   0.518  51.909  1.00  0.00     0.023 A 
HETATM    4  C10 UNL     1      22.677   0.383  52.814  1.00  0.00     0.134 A 
HETATM    5  N2  UNL     1      22.358  -0.223  54.055  1.00  0.00    -0.246 NA
HETATM    6  C19 UNL     1      21.174  -0.648  54.347  1.00  0.00     0.097 A 
HETATM    7  C20 UNL     1      19.978  -0.582  53.472  1.00  0.00     0.091 A 
HETATM    8  C21 UNL     1      20.349   0.056  52.185  1.00  0.00     0.019 A 
HETATM    9  C22 UNL     1      19.442   0.230  51.228  1.00  0.00     0.192 A 
HETATM   10  O3  UNL     1      19.817   0.836  50.019  1.00  0.00    -0.292 OA
ENDROOT
BRANCH   4  11
HETATM   11  N1  UNL     1      24.019   0.807  52.617  1.00  0.00    -0.366 N 
HETATM   12  H13 UNL     1      24.299   0.278  51.762  1.00  0.00     0.161 HD
BRANCH  11  13
HETATM   13  C11 UNL     1      24.629   1.765  53.537  1.00  0.00     0.112 C 
HETATM   14  C12 UNL     1      24.495   3.185  53.084  1.00  0.00     0.037 C 
BRANCH  13  15
HETATM   15  C13 UNL     1      26.042   1.402  53.818  1.00  0.00    -0.036 A 
HETATM   16  C14 UNL     1      26.983   2.225  53.214  1.00  0.00     0.009 A 
HETATM   17  C15 UNL     1      28.363   2.049  53.354  1.00  0.00     0.001 A 
HETATM   18  C16 UNL     1      28.798   1.012  54.128  1.00  0.00     0.000 A 
HETATM   19  C17 UNL     1      27.872   0.178  54.739  1.00  0.00     0.001 A 
HETATM   20  C18 UNL     1      26.518   0.362  54.592  1.00  0.00     0.009 A 
ENDBRANCH  13  15
ENDBRANCH  11  13
ENDBRANCH   4  11
BRANCH   1  21
HETATM   21  C6  UNL     1      21.292   1.893  48.405  1.00  0.00     0.065 C 
BRANCH  21  22
HETATM   22  C5  UNL     1      22.705   2.461  48.284  1.00  0.00     0.014 C 
BRANCH  22  23
HETATM   23  C4  UNL     1      22.734   3.955  48.207  1.00  0.00     0.078 C 
BRANCH  23  24
HETATM   24  C3  UNL     1      23.524   4.490  49.377  1.00  0.00     0.126 C 
HETATM   25  O1  UNL     1      22.898   4.622  50.416  1.00  0.00    -0.298 OA
BRANCH  24  26
HETATM   26  C2  UNL     1      24.957   4.780  49.089  1.00  0.00     0.074 C 
HETATM   27  C1  UNL     1      25.860   3.757  49.738  1.00  0.00     0.013 C 
ENDBRANCH  24  26
ENDBRANCH  23  24
ENDBRANCH  22  23
ENDBRANCH  21  22
ENDBRANCH   1  21
BRANCH   9  28
HETATM   28  O2  UNL     1      18.123  -0.172  51.384  1.00  0.00    -0.335 OA
HETATM   29  C23 UNL     1      17.087   0.212  50.525  1.00  0.00     0.212 C 
ENDBRANCH   9  28
TORSDOF 9
ENDMDL
