MODEL 1
REMARK VINA RESULT:      -8.4      0.000      0.000
REMARK  2 active torsions:
REMARK  status: ('A' for Active; 'I' for Inactive)
REMARK    1  A    between atoms: C7_7  and  N1_8 
REMARK    2  A    between atoms: C12_13  and  C13_14 
ROOT
HETATM    1  C13 UNL     1      26.321  -0.171  53.705  1.00  0.00     0.232 C 
HETATM    2  C14 UNL     1      27.449   0.336  54.486  1.00  0.00     0.083 C 
HETATM    3  N2  UNL     1      28.342   0.728  55.109  1.00  0.00    -0.196 NA
HETATM    4  C15 UNL     1      26.745  -1.432  53.102  1.00  0.00     0.083 C 
HETATM    5  N3  UNL     1      27.103  -2.431  52.620  1.00  0.00    -0.196 NA
ENDROOT
BRANCH   1   6
HETATM    6  C12 UNL     1      25.894   0.809  52.658  1.00  0.00    -0.026 A 
HETATM    7  C11 UNL     1      24.578   1.068  52.316  1.00  0.00     0.019 A 
HETATM    8  C10 UNL     1      24.272   1.985  51.342  1.00  0.00    -0.029 A 
HETATM    9  C9  UNL     1      23.006   2.484  50.752  1.00  0.00     0.060 C 
HETATM   10  C18 UNL     1      25.336   2.623  50.734  1.00  0.00     0.037 A 
HETATM   11  C8  UNL     1      23.511   3.013  49.403  1.00  0.00     0.129 C 
HETATM   12  N1  UNL     1      24.835   3.543  49.747  1.00  0.00    -0.368 N 
HETATM   13  C17 UNL     1      26.672   2.379  51.061  1.00  0.00     0.030 A 
HETATM   14  C16 UNL     1      26.958   1.451  52.045  1.00  0.00     0.012 A 
BRANCH  12  15
HETATM   15  C7  UNL     1      25.422   4.710  49.184  1.00  0.00     0.136 C 
HETATM   16  C2  UNL     1      25.231   5.927  50.022  1.00  0.00    -0.061 C 
HETATM   17  C1  UNL     1      24.334   5.938  51.224  1.00  0.00     0.045 C 
HETATM   18  C3  UNL     1      25.879   7.039  49.691  1.00  0.00    -0.018 C 
HETATM   19  C4  UNL     1      26.753   6.921  48.468  1.00  0.00     0.054 C 
HETATM   20  C5  UNL     1      27.569   5.662  48.587  1.00  0.00    -0.025 C 
HETATM   21  C6  UNL     1      26.886   4.578  48.944  1.00  0.00    -0.001 C 
ENDBRANCH  12  15
ENDBRANCH   1   6
TORSDOF 2
ENDMDL
MODEL 2
REMARK VINA RESULT:      -8.4      3.313      4.783
REMARK  2 active torsions:
REMARK  status: ('A' for Active; 'I' for Inactive)
REMARK    1  A    between atoms: C7_7  and  N1_8 
REMARK    2  A    between atoms: C12_13  and  C13_14 
ROOT
HETATM    1  C13 UNL     1      27.800  -0.081  52.960  1.00  0.00     0.232 C 
HETATM    2  C14 UNL     1      28.049  -1.516  53.090  1.00  0.00     0.083 C 
HETATM    3  N2  UNL     1      28.256  -2.650  53.194  1.00  0.00    -0.196 NA
HETATM    4  C15 UNL     1      28.319   0.559  54.166  1.00  0.00     0.083 C 
HETATM    5  N3  UNL     1      28.729   1.051  55.139  1.00  0.00    -0.196 NA
ENDROOT
BRANCH   1   6
HETATM    6  C12 UNL     1      26.343   0.209  52.781  1.00  0.00    -0.026 A 
HETATM    7  C11 UNL     1      25.327  -0.409  53.489  1.00  0.00     0.019 A 
HETATM    8  C10 UNL     1      24.013  -0.084  53.263  1.00  0.00    -0.029 A 
HETATM    9  C9  UNL     1      22.722  -0.542  53.831  1.00  0.00     0.060 C 
HETATM   10  C18 UNL     1      23.769   0.880  52.305  1.00  0.00     0.037 A 
HETATM   11  C8  UNL     1      21.761  -0.153  52.700  1.00  0.00     0.129 C 
HETATM   12  N1  UNL     1      22.349   1.095  52.200  1.00  0.00    -0.368 N 
HETATM   13  C17 UNL     1      24.776   1.518  51.577  1.00  0.00     0.030 A 
HETATM   14  C16 UNL     1      26.093   1.175  51.820  1.00  0.00     0.012 A 
BRANCH  12  15
HETATM   15  C7  UNL     1      21.613   2.219  51.734  1.00  0.00     0.136 C 
HETATM   16  C2  UNL     1      21.204   2.104  50.306  1.00  0.00    -0.061 C 
HETATM   17  C1  UNL     1      21.706   1.005  49.417  1.00  0.00     0.045 C 
HETATM   18  C3  UNL     1      20.367   3.006  49.806  1.00  0.00    -0.018 C 
HETATM   19  C4  UNL     1      19.923   4.066  50.782  1.00  0.00     0.054 C 
HETATM   20  C5  UNL     1      19.517   3.391  52.065  1.00  0.00    -0.025 C 
HETATM   21  C6  UNL     1      20.372   2.477  52.517  1.00  0.00    -0.001 C 
ENDBRANCH  12  15
ENDBRANCH   1   6
TORSDOF 2
ENDMDL
MODEL 3
REMARK VINA RESULT:      -8.3      2.700      5.599
REMARK  2 active torsions:
REMARK  status: ('A' for Active; 'I' for Inactive)
REMARK    1  A    between atoms: C7_7  and  N1_8 
REMARK    2  A    between atoms: C12_13  and  C13_14 
ROOT
HETATM    1  C13 UNL     1      27.483  -0.089  52.769  1.00  0.00     0.232 C 
HETATM    2  C14 UNL     1      27.466  -1.550  52.714  1.00  0.00     0.083 C 
HETATM    3  N2  UNL     1      27.463  -2.707  52.672  1.00  0.00    -0.196 NA
HETATM    4  C15 UNL     1      28.095   0.289  54.040  1.00  0.00     0.083 C 
HETATM    5  N3  UNL     1      28.577   0.573  55.062  1.00  0.00    -0.196 NA
ENDROOT
BRANCH   1   6
HETATM    6  C12 UNL     1      26.104   0.481  52.646  1.00  0.00    -0.026 A 
HETATM    7  C11 UNL     1      25.799   1.666  52.000  1.00  0.00     0.019 A 
HETATM    8  C10 UNL     1      24.505   2.118  51.933  1.00  0.00    -0.029 A 
HETATM    9  C9  UNL     1      23.856   3.310  51.335  1.00  0.00     0.060 C 
HETATM   10  C18 UNL     1      23.542   1.334  52.538  1.00  0.00     0.037 A 
HETATM   11  C8  UNL     1      22.563   3.372  52.160  1.00  0.00     0.129 C 
HETATM   12  N1  UNL     1      22.253   1.953  52.371  1.00  0.00    -0.368 N 
HETATM   13  C17 UNL     1      23.824   0.134  53.195  1.00  0.00     0.030 A 
HETATM   14  C16 UNL     1      25.135  -0.302  53.252  1.00  0.00     0.012 A 
BRANCH  12  15
HETATM   15  C7  UNL     1      20.945   1.395  52.392  1.00  0.00     0.136 C 
HETATM   16  C2  UNL     1      20.548   0.778  51.096  1.00  0.00    -0.061 C 
HETATM   17  C1  UNL     1      21.374   0.926  49.853  1.00  0.00     0.045 C 
HETATM   18  C3  UNL     1      19.423   0.073  51.042  1.00  0.00    -0.018 C 
HETATM   19  C4  UNL     1      18.668  -0.014  52.344  1.00  0.00     0.054 C 
HETATM   20  C5  UNL     1      19.643  -0.363  53.436  1.00  0.00    -0.025 C 
HETATM   21  C6  UNL     1      20.766   0.350  53.438  1.00  0.00    -0.001 C 
ENDBRANCH  12  15
ENDBRANCH   1   6
TORSDOF 2
ENDMDL
MODEL 4
REMARK VINA RESULT:      -8.1      2.465      6.591
REMARK  2 active torsions:
REMARK  status: ('A' for Active; 'I' for Inactive)
REMARK    1  A    between atoms: C7_7  and  N1_8 
REMARK    2  A    between atoms: C12_13  and  C13_14 
ROOT
HETATM    1  C13 UNL     1      27.328   6.099  48.233  1.00  0.00     0.232 C 
HETATM    2  C14 UNL     1      28.686   5.557  48.261  1.00  0.00     0.083 C 
HETATM    3  N2  UNL     1      29.764   5.136  48.276  1.00  0.00    -0.196 NA
HETATM    4  C15 UNL     1      27.423   7.521  48.552  1.00  0.00     0.083 C 
HETATM    5  N3  UNL     1      27.516   8.652  48.819  1.00  0.00    -0.196 NA
ENDROOT
BRANCH   1   6
HETATM    6  C12 UNL     1      26.434   5.388  49.202  1.00  0.00    -0.026 A 
HETATM    7  C11 UNL     1      25.347   5.965  49.835  1.00  0.00     0.019 A 
HETATM    8  C10 UNL     1      24.578   5.242  50.710  1.00  0.00    -0.029 A 
HETATM    9  C9  UNL     1      23.381   5.547  51.531  1.00  0.00     0.060 C 
HETATM   10  C18 UNL     1      24.946   3.927  50.919  1.00  0.00     0.037 A 
HETATM   11  C8  UNL     1      23.492   4.461  52.609  1.00  0.00     0.129 C 
HETATM   12  N1  UNL     1      24.037   3.324  51.859  1.00  0.00    -0.368 N 
HETATM   13  C17 UNL     1      26.038   3.322  50.293  1.00  0.00     0.030 A 
HETATM   14  C16 UNL     1      26.801   4.070  49.415  1.00  0.00     0.012 A 
BRANCH  12  15
HETATM   15  C7  UNL     1      23.692   1.961  52.072  1.00  0.00     0.136 C 
HETATM   16  C2  UNL     1      24.553   1.288  53.085  1.00  0.00    -0.061 C 
HETATM   17  C1  UNL     1      25.779   1.940  53.653  1.00  0.00     0.045 C 
HETATM   18  C3  UNL     1      24.221   0.069  53.497  1.00  0.00    -0.018 C 
HETATM   19  C4  UNL     1      22.974  -0.494  52.865  1.00  0.00     0.054 C 
HETATM   20  C5  UNL     1      21.901   0.559  52.910  1.00  0.00    -0.025 C 
HETATM   21  C6  UNL     1      22.282   1.770  52.512  1.00  0.00    -0.001 C 
ENDBRANCH  12  15
ENDBRANCH   1   6
TORSDOF 2
ENDMDL
MODEL 5
REMARK VINA RESULT:      -7.7      2.394      6.632
REMARK  2 active torsions:
REMARK  status: ('A' for Active; 'I' for Inactive)
REMARK    1  A    between atoms: C7_7  and  N1_8 
REMARK    2  A    between atoms: C12_13  and  C13_14 
ROOT
HETATM    1  C13 UNL     1      26.501   5.415  48.749  1.00  0.00     0.232 C 
HETATM    2  C14 UNL     1      27.940   5.223  48.576  1.00  0.00     0.083 C 
HETATM    3  N2  UNL     1      29.079   5.080  48.434  1.00  0.00    -0.196 NA
HETATM    4  C15 UNL     1      26.310   6.730  49.354  1.00  0.00     0.083 C 
HETATM    5  N3  UNL     1      26.176   7.778  49.847  1.00  0.00    -0.196 NA
ENDROOT
BRANCH   1   6
HETATM    6  C12 UNL     1      25.902   4.339  49.600  1.00  0.00    -0.026 A 
HETATM    7  C11 UNL     1      26.632   3.397  50.304  1.00  0.00     0.019 A 
HETATM    8  C10 UNL     1      26.003   2.442  51.062  1.00  0.00    -0.029 A 
HETATM    9  C9  UNL     1      26.473   1.322  51.913  1.00  0.00     0.060 C 
HETATM   10  C18 UNL     1      24.622   2.475  51.080  1.00  0.00     0.037 A 
HETATM   11  C8  UNL     1      25.225   0.430  51.922  1.00  0.00     0.129 C 
HETATM   12  N1  UNL     1      24.134   1.411  51.919  1.00  0.00    -0.368 N 
HETATM   13  C17 UNL     1      23.862   3.414  50.379  1.00  0.00     0.030 A 
HETATM   14  C16 UNL     1      24.517   4.368  49.621  1.00  0.00     0.012 A 
BRANCH  12  15
HETATM   15  C7  UNL     1      22.901   1.269  52.613  1.00  0.00     0.136 C 
HETATM   16  C2  UNL     1      21.769   0.879  51.729  1.00  0.00    -0.061 C 
HETATM   17  C1  UNL     1      21.895   0.849  50.234  1.00  0.00     0.045 C 
HETATM   18  C3  UNL     1      20.608   0.547  52.284  1.00  0.00    -0.018 C 
HETATM   19  C4  UNL     1      20.588   0.610  53.790  1.00  0.00     0.054 C 
HETATM   20  C5  UNL     1      21.819  -0.081  54.312  1.00  0.00    -0.025 C 
HETATM   21  C6  UNL     1      22.955   0.263  53.711  1.00  0.00    -0.001 C 
ENDBRANCH  12  15
ENDBRANCH   1   6
TORSDOF 2
ENDMDL
MODEL 6
REMARK VINA RESULT:      -7.7      2.930      6.559
REMARK  2 active torsions:
REMARK  status: ('A' for Active; 'I' for Inactive)
REMARK    1  A    between atoms: C7_7  and  N1_8 
REMARK    2  A    between atoms: C12_13  and  C13_14 
ROOT
HETATM    1  C13 UNL     1      28.660   6.494  47.916  1.00  0.00     0.232 C 
HETATM    2  C14 UNL     1      29.853   5.693  48.188  1.00  0.00     0.083 C 
HETATM    3  N2  UNL     1      30.803   5.066  48.398  1.00  0.00    -0.196 NA
HETATM    4  C15 UNL     1      28.957   7.864  48.326  1.00  0.00     0.083 C 
HETATM    5  N3  UNL     1      29.207   8.950  48.668  1.00  0.00    -0.196 NA
ENDROOT
BRANCH   1   6
HETATM    6  C12 UNL     1      27.464   5.962  48.642  1.00  0.00    -0.026 A 
HETATM    7  C11 UNL     1      26.451   6.746  49.166  1.00  0.00     0.019 A 
HETATM    8  C10 UNL     1      25.387   6.176  49.818  1.00  0.00    -0.029 A 
HETATM    9  C9  UNL     1      24.171   6.712  50.476  1.00  0.00     0.060 C 
HETATM   10  C18 UNL     1      25.387   4.799  49.920  1.00  0.00     0.037 A 
HETATM   11  C8  UNL     1      23.824   5.551  51.418  1.00  0.00     0.129 C 
HETATM   12  N1  UNL     1      24.207   4.376  50.628  1.00  0.00    -0.368 N 
HETATM   13  C17 UNL     1      26.397   3.986  49.400  1.00  0.00     0.030 A 
HETATM   14  C16 UNL     1      27.460   4.581  48.747  1.00  0.00     0.012 A 
BRANCH  12  15
HETATM   15  C7  UNL     1      23.514   3.134  50.618  1.00  0.00     0.136 C 
HETATM   16  C2  UNL     1      23.879   2.248  51.759  1.00  0.00    -0.061 C 
HETATM   17  C1  UNL     1      25.012   2.567  52.689  1.00  0.00     0.045 C 
HETATM   18  C3  UNL     1      23.176   1.138  51.956  1.00  0.00    -0.018 C 
HETATM   19  C4  UNL     1      22.061   0.912  50.967  1.00  0.00     0.054 C 
HETATM   20  C5  UNL     1      21.288   2.195  50.819  1.00  0.00    -0.025 C 
HETATM   21  C6  UNL     1      22.032   3.284  50.648  1.00  0.00    -0.001 C 
ENDBRANCH  12  15
ENDBRANCH   1   6
TORSDOF 2
ENDMDL
MODEL 7
REMARK VINA RESULT:      -7.3      3.791      6.487
REMARK  2 active torsions:
REMARK  status: ('A' for Active; 'I' for Inactive)
REMARK    1  A    between atoms: C7_7  and  N1_8 
REMARK    2  A    between atoms: C12_13  and  C13_14 
ROOT
HETATM    1  C13 UNL     1      29.728   6.545  47.703  1.00  0.00     0.232 C 
HETATM    2  C14 UNL     1      30.719   5.476  47.819  1.00  0.00     0.083 C 
HETATM    3  N2  UNL     1      31.511   4.636  47.907  1.00  0.00    -0.196 NA
HETATM    4  C15 UNL     1      30.209   7.668  48.504  1.00  0.00     0.083 C 
HETATM    5  N3  UNL     1      30.602   8.550  49.155  1.00  0.00    -0.196 NA
ENDROOT
BRANCH   1   6
HETATM    6  C12 UNL     1      28.378   6.094  48.164  1.00  0.00    -0.026 A 
HETATM    7  C11 UNL     1      28.104   4.840  48.684  1.00  0.00     0.019 A 
HETATM    8  C10 UNL     1      26.835   4.507  49.084  1.00  0.00    -0.029 A 
HETATM    9  C9  UNL     1      26.220   3.289  49.666  1.00  0.00     0.060 C 
HETATM   10  C18 UNL     1      25.864   5.479  48.941  1.00  0.00     0.037 A 
HETATM   11  C8  UNL     1      24.749   3.506  49.290  1.00  0.00     0.129 C 
HETATM   12  N1  UNL     1      24.604   4.961  49.407  1.00  0.00    -0.368 N 
HETATM   13  C17 UNL     1      26.114   6.750  48.420  1.00  0.00     0.030 A 
HETATM   14  C16 UNL     1      27.401   7.065  48.022  1.00  0.00     0.012 A 
BRANCH  12  15
HETATM   15  C7  UNL     1      23.444   5.633  49.884  1.00  0.00     0.136 C 
HETATM   16  C2  UNL     1      22.421   5.865  48.826  1.00  0.00    -0.061 C 
HETATM   17  C1  UNL     1      22.695   5.596  47.376  1.00  0.00     0.045 C 
HETATM   18  C3  UNL     1      21.227   6.326  49.182  1.00  0.00    -0.018 C 
HETATM   19  C4  UNL     1      21.056   6.562  50.661  1.00  0.00     0.054 C 
HETATM   20  C5  UNL     1      21.572   5.356  51.398  1.00  0.00    -0.025 C 
HETATM   21  C6  UNL     1      22.759   4.914  50.994  1.00  0.00    -0.001 C 
ENDBRANCH  12  15
ENDBRANCH   1   6
TORSDOF 2
ENDMDL
MODEL 8
REMARK VINA RESULT:      -7.1      4.053      7.218
REMARK  2 active torsions:
REMARK  status: ('A' for Active; 'I' for Inactive)
REMARK    1  A    between atoms: C7_7  and  N1_8 
REMARK    2  A    between atoms: C12_13  and  C13_14 
ROOT
HETATM    1  C13 UNL     1      25.963   5.051  49.184  1.00  0.00     0.232 C 
HETATM    2  C14 UNL     1      25.225   5.919  50.101  1.00  0.00     0.083 C 
HETATM    3  N2  UNL     1      24.636   6.598  50.829  1.00  0.00    -0.196 NA
HETATM    4  C15 UNL     1      26.426   3.900  49.957  1.00  0.00     0.083 C 
HETATM    5  N3  UNL     1      26.796   2.995  50.590  1.00  0.00    -0.196 NA
ENDROOT
BRANCH   1   6
HETATM    6  C12 UNL     1      27.112   5.771  48.551  1.00  0.00    -0.026 A 
HETATM    7  C11 UNL     1      27.037   7.041  48.006  1.00  0.00     0.019 A 
HETATM    8  C10 UNL     1      28.141   7.630  47.443  1.00  0.00    -0.029 A 
HETATM    9  C9  UNL     1      28.395   8.939  46.792  1.00  0.00     0.060 C 
HETATM   10  C18 UNL     1      29.309   6.895  47.452  1.00  0.00     0.037 A 
HETATM   11  C8  UNL     1      29.640   8.603  45.960  1.00  0.00     0.129 C 
HETATM   12  N1  UNL     1      30.356   7.661  46.826  1.00  0.00    -0.368 N 
HETATM   13  C17 UNL     1      29.411   5.612  47.995  1.00  0.00     0.030 A 
HETATM   14  C16 UNL     1      28.286   5.037  48.557  1.00  0.00     0.012 A 
BRANCH  12  15
HETATM   15  C7  UNL     1      31.770   7.584  46.962  1.00  0.00     0.136 C 
HETATM   16  C2  UNL     1      32.254   7.979  48.314  1.00  0.00    -0.061 C 
HETATM   17  C1  UNL     1      31.347   8.589  49.342  1.00  0.00     0.045 C 
HETATM   18  C3  UNL     1      33.533   7.784  48.618  1.00  0.00    -0.018 C 
HETATM   19  C4  UNL     1      34.356   7.166  47.517  1.00  0.00     0.054 C 
HETATM   20  C5  UNL     1      33.599   5.993  46.957  1.00  0.00    -0.025 C 
HETATM   21  C6  UNL     1      32.316   6.225  46.690  1.00  0.00    -0.001 C 
ENDBRANCH  12  15
ENDBRANCH   1   6
TORSDOF 2
ENDMDL
MODEL 9
REMARK VINA RESULT:      -6.7      3.912      6.742
REMARK  2 active torsions:
REMARK  status: ('A' for Active; 'I' for Inactive)
REMARK    1  A    between atoms: C7_7  and  N1_8 
REMARK    2  A    between atoms: C12_13  and  C13_14 
ROOT
HETATM    1  C13 UNL     1      26.919   6.863  48.283  1.00  0.00     0.232 C 
HETATM    2  C14 UNL     1      28.013   5.899  48.397  1.00  0.00     0.083 C 
HETATM    3  N2  UNL     1      28.886   5.144  48.485  1.00  0.00    -0.196 NA
HETATM    4  C15 UNL     1      27.206   7.954  49.212  1.00  0.00     0.083 C 
HETATM    5  N3  UNL     1      27.445   8.810  49.965  1.00  0.00    -0.196 NA
ENDROOT
BRANCH   1   6
HETATM    6  C12 UNL     1      25.597   6.231  48.587  1.00  0.00    -0.026 A 
HETATM    7  C11 UNL     1      24.383   6.677  48.095  1.00  0.00     0.019 A 
HETATM    8  C10 UNL     1      23.214   6.038  48.424  1.00  0.00    -0.029 A 
HETATM    9  C9  UNL     1      21.787   6.251  48.079  1.00  0.00     0.060 C 
HETATM   10  C18 UNL     1      23.318   4.944  49.260  1.00  0.00     0.037 A 
HETATM   11  C8  UNL     1      21.102   5.530  49.248  1.00  0.00     0.129 C 
HETATM   12  N1  UNL     1      22.006   4.402  49.496  1.00  0.00    -0.368 N 
HETATM   13  C17 UNL     1      24.531   4.474  49.769  1.00  0.00     0.030 A 
HETATM   14  C16 UNL     1      25.697   5.133  49.426  1.00  0.00     0.012 A 
BRANCH  12  15
HETATM   15  C7  UNL     1      21.598   3.095  49.883  1.00  0.00     0.136 C 
HETATM   16  C2  UNL     1      21.771   2.082  48.805  1.00  0.00    -0.061 C 
HETATM   17  C1  UNL     1      22.142   2.461  47.402  1.00  0.00     0.045 C 
HETATM   18  C3  UNL     1      21.589   0.799  49.099  1.00  0.00    -0.018 C 
HETATM   19  C4  UNL     1      21.219   0.525  50.534  1.00  0.00     0.054 C 
HETATM   20  C5  UNL     1      22.150   1.306  51.422  1.00  0.00    -0.025 C 
HETATM   21  C6  UNL     1      22.322   2.579  51.078  1.00  0.00    -0.001 C 
ENDBRANCH  12  15
ENDBRANCH   1   6
TORSDOF 2
ENDMDL
