MODEL 1
REMARK VINA RESULT:      -8.1      0.000      0.000
REMARK  4 active torsions:
REMARK  status: ('A' for Active; 'I' for Inactive)
REMARK    1  A    between atoms: C2_2  and  N1_3 
REMARK    2  A    between atoms: N1_3  and  C3_4 
REMARK    3  A    between atoms: N1_3  and  C5_6 
REMARK    4  A    between atoms: N2_8  and  C7_9 
ROOT
HETATM    1  C5  UNL     1      23.671   0.793  51.994  1.00  0.00     0.361 C 
HETATM    2  C6  UNL     1      24.683   1.371  52.930  1.00  0.00     0.184 C 
HETATM    3  N2  UNL     1      26.053   1.559  52.375  1.00  0.00    -0.359 N 
HETATM    4  C13 UNL     1      25.989   2.488  51.363  1.00  0.00     0.274 C 
HETATM    5  N3  UNL     1      26.905   3.238  50.642  1.00  0.00    -0.263 NA
HETATM    6  C14 UNL     1      26.320   3.779  49.556  1.00  0.00     0.228 C 
HETATM    7  N4  UNL     1      25.041   3.246  49.776  1.00  0.00    -0.253 NA
HETATM    8  C15 UNL     1      23.902   3.370  49.340  1.00  0.00     0.136 C 
HETATM    9  C16 UNL     1      23.070   2.405  50.129  1.00  0.00     0.132 C 
HETATM   10  N5  UNL     1      23.059   1.553  51.023  1.00  0.00    -0.263 NA
ENDROOT
BRANCH   3  11
HETATM   11  C7  UNL     1      27.204   0.864  52.835  1.00  0.00     0.033 A 
HETATM   12  C8  UNL     1      28.300   1.435  53.430  1.00  0.00     0.032 A 
HETATM   13  C9  UNL     1      29.421   0.771  53.878  1.00  0.00     0.046 A 
HETATM   14  C10 UNL     1      29.424  -0.612  53.699  1.00  0.00     0.138 A 
HETATM   15  F1  UNL     1      30.524  -1.280  54.135  1.00  0.00    -0.204 F 
HETATM   16  C11 UNL     1      28.355  -1.223  53.111  1.00  0.00     0.074 A 
HETATM   17 CL1  UNL     1      28.461  -2.946  52.937  1.00  0.00    -0.081 Cl
HETATM   18  C12 UNL     1      27.257  -0.489  52.685  1.00  0.00     0.056 A 
ENDBRANCH   3  11
BRANCH   1  19
HETATM   19  N1  UNL     1      22.522   0.473  52.921  1.00  0.00     0.114 N 
BRANCH  19  20
HETATM   20  C2  UNL     1      22.840  -0.848  53.501  1.00  0.00     0.270 C 
HETATM   21  C1  UNL     1      22.300  -0.846  54.900  1.00  0.00     0.037 C 
ENDBRANCH  19  20
BRANCH  19  22
HETATM   22  C3  UNL     1      21.351   0.236  52.096  1.00  0.00     0.270 C 
HETATM   23  C4  UNL     1      20.154   0.956  52.714  1.00  0.00     0.037 C 
ENDBRANCH  19  22
ENDBRANCH   1  19
TORSDOF 4
ENDMDL
MODEL 2
REMARK VINA RESULT:      -7.8      1.678      4.213
REMARK  4 active torsions:
REMARK  status: ('A' for Active; 'I' for Inactive)
REMARK    1  A    between atoms: C2_2  and  N1_3 
REMARK    2  A    between atoms: N1_3  and  C3_4 
REMARK    3  A    between atoms: N1_3  and  C5_6 
REMARK    4  A    between atoms: N2_8  and  C7_9 
ROOT
HETATM    1  C5  UNL     1      22.856   2.455  51.866  1.00  0.00     0.361 C 
HETATM    2  C6  UNL     1      23.857   1.393  51.547  1.00  0.00     0.184 C 
HETATM    3  N2  UNL     1      24.498   0.727  52.717  1.00  0.00    -0.359 N 
HETATM    4  C13 UNL     1      23.527   0.050  53.418  1.00  0.00     0.274 C 
HETATM    5  N3  UNL     1      23.510  -0.911  54.417  1.00  0.00    -0.263 NA
HETATM    6  C14 UNL     1      22.278  -1.013  54.951  1.00  0.00     0.228 C 
HETATM    7  N4  UNL     1      21.672  -0.031  54.154  1.00  0.00    -0.253 NA
HETATM    8  C15 UNL     1      20.548   0.388  53.900  1.00  0.00     0.136 C 
HETATM    9  C16 UNL     1      20.753   1.499  52.915  1.00  0.00     0.132 C 
HETATM   10  N5  UNL     1      21.573   2.153  52.263  1.00  0.00    -0.263 NA
ENDROOT
BRANCH   3  11
HETATM   11  C7  UNL     1      25.882   0.814  53.026  1.00  0.00     0.033 A 
HETATM   12  C8  UNL     1      26.555   1.957  53.375  1.00  0.00     0.032 A 
HETATM   13  C9  UNL     1      27.897   2.052  53.673  1.00  0.00     0.046 A 
HETATM   14  C10 UNL     1      28.623   0.864  53.606  1.00  0.00     0.138 A 
HETATM   15  F1  UNL     1      29.948   0.943  53.898  1.00  0.00    -0.204 F 
HETATM   16  C11 UNL     1      27.995  -0.298  53.263  1.00  0.00     0.074 A 
HETATM   17 CL1  UNL     1      28.991  -1.718  53.211  1.00  0.00    -0.081 Cl
HETATM   18  C12 UNL     1      26.637  -0.319  52.977  1.00  0.00     0.056 A 
ENDBRANCH   3  11
BRANCH   1  19
HETATM   19  N1  UNL     1      22.631   3.100  50.519  1.00  0.00     0.114 N 
BRANCH  19  20
HETATM   20  C2  UNL     1      22.414   1.982  49.578  1.00  0.00     0.270 C 
HETATM   21  C1  UNL     1      22.652   2.526  48.201  1.00  0.00     0.037 C 
ENDBRANCH  19  20
BRANCH  19  22
HETATM   22  C3  UNL     1      23.892   3.687  50.103  1.00  0.00     0.270 C 
HETATM   23  C4  UNL     1      24.091   5.010  50.841  1.00  0.00     0.037 C 
ENDBRANCH  19  22
ENDBRANCH   1  19
TORSDOF 4
ENDMDL
MODEL 3
REMARK VINA RESULT:      -7.7      1.973      4.486
REMARK  4 active torsions:
REMARK  status: ('A' for Active; 'I' for Inactive)
REMARK    1  A    between atoms: C2_2  and  N1_3 
REMARK    2  A    between atoms: N1_3  and  C3_4 
REMARK    3  A    between atoms: N1_3  and  C5_6 
REMARK    4  A    between atoms: N2_8  and  C7_9 
ROOT
HETATM    1  C5  UNL     1      23.026   2.423  51.777  1.00  0.00     0.361 C 
HETATM    2  C6  UNL     1      23.805   1.197  51.426  1.00  0.00     0.184 C 
HETATM    3  N2  UNL     1      24.353   0.420  52.574  1.00  0.00    -0.359 N 
HETATM    4  C13 UNL     1      23.299  -0.072  53.308  1.00  0.00     0.274 C 
HETATM    5  N3  UNL     1      23.140  -1.019  54.308  1.00  0.00    -0.263 NA
HETATM    6  C14 UNL     1      21.929  -0.897  54.883  1.00  0.00     0.228 C 
HETATM    7  N4  UNL     1      21.486   0.183  54.106  1.00  0.00    -0.253 NA
HETATM    8  C15 UNL     1      20.449   0.801  53.890  1.00  0.00     0.136 C 
HETATM    9  C16 UNL     1      20.820   1.861  52.897  1.00  0.00     0.132 C 
HETATM   10  N5  UNL     1      21.724   2.357  52.217  1.00  0.00    -0.263 NA
ENDROOT
BRANCH   3  11
HETATM   11  C7  UNL     1      25.739   0.252  52.836  1.00  0.00     0.033 A 
HETATM   12  C8  UNL     1      26.411  -0.944  52.859  1.00  0.00     0.032 A 
HETATM   13  C9  UNL     1      27.754  -1.118  53.115  1.00  0.00     0.046 A 
HETATM   14  C10 UNL     1      28.482   0.043  53.374  1.00  0.00     0.138 A 
HETATM   15  F1  UNL     1      29.808  -0.114  53.628  1.00  0.00    -0.204 F 
HETATM   16  C11 UNL     1      27.854   1.255  53.362  1.00  0.00     0.074 A 
HETATM   17 CL1  UNL     1      28.852   2.635  53.696  1.00  0.00    -0.081 Cl
HETATM   18  C12 UNL     1      26.496   1.354  53.094  1.00  0.00     0.056 A 
ENDBRANCH   3  11
BRANCH   1  19
HETATM   19  N1  UNL     1      22.878   3.104  50.437  1.00  0.00     0.114 N 
BRANCH  19  20
HETATM   20  C2  UNL     1      22.354   2.069  49.524  1.00  0.00     0.270 C 
HETATM   21  C1  UNL     1      22.637   2.541  48.129  1.00  0.00     0.037 C 
ENDBRANCH  19  20
BRANCH  19  22
HETATM   22  C3  UNL     1      24.214   3.384  49.942  1.00  0.00     0.270 C 
HETATM   23  C4  UNL     1      24.664   4.745  50.472  1.00  0.00     0.037 C 
ENDBRANCH  19  22
ENDBRANCH   1  19
TORSDOF 4
ENDMDL
MODEL 4
REMARK VINA RESULT:      -7.5      3.565      6.810
REMARK  4 active torsions:
REMARK  status: ('A' for Active; 'I' for Inactive)
REMARK    1  A    between atoms: C2_2  and  N1_3 
REMARK    2  A    between atoms: N1_3  and  C3_4 
REMARK    3  A    between atoms: N1_3  and  C5_6 
REMARK    4  A    between atoms: N2_8  and  C7_9 
ROOT
HETATM    1  C5  UNL     1      25.811   0.035  53.346  1.00  0.00     0.361 C 
HETATM    2  C6  UNL     1      25.174   1.367  53.121  1.00  0.00     0.184 C 
HETATM    3  N2  UNL     1      23.803   1.346  52.537  1.00  0.00    -0.359 N 
HETATM    4  C13 UNL     1      22.957   0.737  53.435  1.00  0.00     0.274 C 
HETATM    5  N3  UNL     1      21.584   0.620  53.586  1.00  0.00    -0.263 NA
HETATM    6  C14 UNL     1      21.289  -0.342  54.481  1.00  0.00     0.228 C 
HETATM    7  N4  UNL     1      22.612  -0.709  54.769  1.00  0.00    -0.253 NA
HETATM    8  C15 UNL     1      23.223  -1.398  55.579  1.00  0.00     0.136 C 
HETATM    9  C16 UNL     1      24.667  -1.268  55.198  1.00  0.00     0.132 C 
HETATM   10  N5  UNL     1      25.480  -0.760  54.420  1.00  0.00    -0.263 NA
ENDROOT
BRANCH   3  11
HETATM   11  C7  UNL     1      23.471   1.868  51.258  1.00  0.00     0.033 A 
HETATM   12  C8  UNL     1      22.507   1.375  50.416  1.00  0.00     0.032 A 
HETATM   13  C9  UNL     1      22.181   1.873  49.174  1.00  0.00     0.046 A 
HETATM   14  C10 UNL     1      22.911   2.981  48.748  1.00  0.00     0.138 A 
HETATM   15  F1  UNL     1      22.599   3.482  47.524  1.00  0.00    -0.204 F 
HETATM   16  C11 UNL     1      23.881   3.506  49.553  1.00  0.00     0.074 A 
HETATM   17 CL1  UNL     1      24.728   4.885  48.928  1.00  0.00    -0.081 Cl
HETATM   18  C12 UNL     1      24.155   2.953  50.796  1.00  0.00     0.056 A 
ENDBRANCH   3  11
BRANCH   1  19
HETATM   19  N1  UNL     1      27.241   0.410  53.653  1.00  0.00     0.114 N 
BRANCH  19  20
HETATM   20  C2  UNL     1      27.520   1.607  52.835  1.00  0.00     0.270 C 
HETATM   21  C1  UNL     1      28.482   2.450  53.618  1.00  0.00     0.037 C 
ENDBRANCH  19  20
BRANCH  19  22
HETATM   22  C3  UNL     1      28.092  -0.623  53.088  1.00  0.00     0.270 C 
HETATM   23  C4  UNL     1      29.335  -0.775  53.964  1.00  0.00     0.037 C 
ENDBRANCH  19  22
ENDBRANCH   1  19
TORSDOF 4
ENDMDL
MODEL 5
REMARK VINA RESULT:      -7.5      3.492      5.842
REMARK  4 active torsions:
REMARK  status: ('A' for Active; 'I' for Inactive)
REMARK    1  A    between atoms: C2_2  and  N1_3 
REMARK    2  A    between atoms: N1_3  and  C3_4 
REMARK    3  A    between atoms: N1_3  and  C5_6 
REMARK    4  A    between atoms: N2_8  and  C7_9 
ROOT
HETATM    1  C5  UNL     1      25.099   0.070  52.961  1.00  0.00     0.361 C 
HETATM    2  C6  UNL     1      25.337   1.538  53.103  1.00  0.00     0.184 C 
HETATM    3  N2  UNL     1      24.555   2.419  52.188  1.00  0.00    -0.359 N 
HETATM    4  C13 UNL     1      23.220   2.283  52.491  1.00  0.00     0.274 C 
HETATM    5  N3  UNL     1      22.056   2.968  52.181  1.00  0.00    -0.263 NA
HETATM    6  C14 UNL     1      20.976   2.230  52.501  1.00  0.00     0.228 C 
HETATM    7  N4  UNL     1      21.676   1.119  52.991  1.00  0.00    -0.253 NA
HETATM    8  C15 UNL     1      21.449   0.082  53.605  1.00  0.00     0.136 C 
HETATM    9  C16 UNL     1      22.778  -0.598  53.740  1.00  0.00     0.132 C 
HETATM   10  N5  UNL     1      23.987  -0.542  53.493  1.00  0.00    -0.263 NA
ENDROOT
BRANCH   3  11
HETATM   11  C7  UNL     1      25.132   3.236  51.180  1.00  0.00     0.033 A 
HETATM   12  C8  UNL     1      26.202   2.899  50.390  1.00  0.00     0.032 A 
HETATM   13  C9  UNL     1      26.770   3.686  49.412  1.00  0.00     0.046 A 
HETATM   14  C10 UNL     1      26.190   4.939  49.222  1.00  0.00     0.138 A 
HETATM   15  F1  UNL     1      26.741   5.725  48.260  1.00  0.00    -0.204 F 
HETATM   16  C11 UNL     1      25.124   5.317  49.985  1.00  0.00     0.074 A 
HETATM   17 CL1  UNL     1      24.478   6.895  49.667  1.00  0.00    -0.081 Cl
HETATM   18  C12 UNL     1      24.602   4.470  50.953  1.00  0.00     0.056 A 
ENDBRANCH   3  11
BRANCH   1  19
HETATM   19  N1  UNL     1      26.217  -0.518  53.789  1.00  0.00     0.114 N 
BRANCH  19  20
HETATM   20  C2  UNL     1      26.789   0.616  54.542  1.00  0.00     0.270 C 
HETATM   21  C1  UNL     1      28.206   0.247  54.866  1.00  0.00     0.037 C 
ENDBRANCH  19  20
BRANCH  19  22
HETATM   22  C3  UNL     1      27.271  -0.916  52.873  1.00  0.00     0.270 C 
HETATM   23  C4  UNL     1      26.974  -2.323  52.356  1.00  0.00     0.037 C 
ENDBRANCH  19  22
ENDBRANCH   1  19
TORSDOF 4
ENDMDL
MODEL 6
REMARK VINA RESULT:      -7.4      2.020      4.474
REMARK  4 active torsions:
REMARK  status: ('A' for Active; 'I' for Inactive)
REMARK    1  A    between atoms: C2_2  and  N1_3 
REMARK    2  A    between atoms: N1_3  and  C3_4 
REMARK    3  A    between atoms: N1_3  and  C5_6 
REMARK    4  A    between atoms: N2_8  and  C7_9 
ROOT
HETATM    1  C5  UNL     1      23.321   3.167  51.840  1.00  0.00     0.361 C 
HETATM    2  C6  UNL     1      24.075   2.010  51.270  1.00  0.00     0.184 C 
HETATM    3  N2  UNL     1      24.415   0.917  52.226  1.00  0.00    -0.359 N 
HETATM    4  C13 UNL     1      23.244   0.348  52.670  1.00  0.00     0.274 C 
HETATM    5  N3  UNL     1      22.897  -0.807  53.354  1.00  0.00    -0.263 NA
HETATM    6  C14 UNL     1      21.626  -0.731  53.792  1.00  0.00     0.228 C 
HETATM    7  N4  UNL     1      21.354   0.548  53.284  1.00  0.00    -0.253 NA
HETATM    8  C15 UNL     1      20.392   1.290  53.119  1.00  0.00     0.136 C 
HETATM    9  C16 UNL     1      20.954   2.533  52.497  1.00  0.00     0.132 C 
HETATM   10  N5  UNL     1      21.968   3.106  52.088  1.00  0.00    -0.263 NA
ENDROOT
BRANCH   3  11
HETATM   11  C7  UNL     1      25.740   0.565  52.597  1.00  0.00     0.033 A 
HETATM   12  C8  UNL     1      26.262  -0.703  52.599  1.00  0.00     0.032 A 
HETATM   13  C9  UNL     1      27.545  -1.055  52.960  1.00  0.00     0.046 A 
HETATM   14  C10 UNL     1      28.375  -0.009  53.360  1.00  0.00     0.138 A 
HETATM   15  F1  UNL     1      29.643  -0.342  53.719  1.00  0.00    -0.204 F 
HETATM   16  C11 UNL     1      27.898   1.270  53.374  1.00  0.00     0.074 A 
HETATM   17 CL1  UNL     1      29.014   2.495  53.888  1.00  0.00    -0.081 Cl
HETATM   18  C12 UNL     1      26.593   1.550  52.995  1.00  0.00     0.056 A 
ENDBRANCH   3  11
BRANCH   1  19
HETATM   19  N1  UNL     1      23.397   4.181  50.723  1.00  0.00     0.114 N 
BRANCH  19  20
HETATM   20  C2  UNL     1      22.874   5.439  51.295  1.00  0.00     0.270 C 
HETATM   21  C1  UNL     1      23.977   6.449  51.196  1.00  0.00     0.037 C 
ENDBRANCH  19  20
BRANCH  19  22
HETATM   22  C3  UNL     1      22.415   3.800  49.724  1.00  0.00     0.270 C 
HETATM   23  C4  UNL     1      22.916   4.231  48.346  1.00  0.00     0.037 C 
ENDBRANCH  19  22
ENDBRANCH   1  19
TORSDOF 4
ENDMDL
MODEL 7
REMARK VINA RESULT:      -7.3      1.555      4.223
REMARK  4 active torsions:
REMARK  status: ('A' for Active; 'I' for Inactive)
REMARK    1  A    between atoms: C2_2  and  N1_3 
REMARK    2  A    between atoms: N1_3  and  C3_4 
REMARK    3  A    between atoms: N1_3  and  C5_6 
REMARK    4  A    between atoms: N2_8  and  C7_9 
ROOT
HETATM    1  C5  UNL     1      23.387   2.725  51.974  1.00  0.00     0.361 C 
HETATM    2  C6  UNL     1      24.177   1.521  51.579  1.00  0.00     0.184 C 
HETATM    3  N2  UNL     1      24.514   0.571  52.677  1.00  0.00    -0.359 N 
HETATM    4  C13 UNL     1      23.344   0.037  53.165  1.00  0.00     0.274 C 
HETATM    5  N3  UNL     1      23.002  -1.025  53.987  1.00  0.00    -0.263 NA
HETATM    6  C14 UNL     1      21.719  -0.921  54.381  1.00  0.00     0.228 C 
HETATM    7  N4  UNL     1      21.435   0.274  53.705  1.00  0.00    -0.253 NA
HETATM    8  C15 UNL     1      20.463   0.965  53.421  1.00  0.00     0.136 C 
HETATM    9  C16 UNL     1      21.017   2.129  52.655  1.00  0.00     0.132 C 
HETATM   10  N5  UNL     1      22.030   2.666  52.197  1.00  0.00    -0.263 NA
ENDROOT
BRANCH   3  11
HETATM   11  C7  UNL     1      25.836   0.300  53.121  1.00  0.00     0.033 A 
HETATM   12  C8  UNL     1      26.629   1.155  53.844  1.00  0.00     0.032 A 
HETATM   13  C9  UNL     1      27.913   0.904  54.277  1.00  0.00     0.046 A 
HETATM   14  C10 UNL     1      28.439  -0.342  53.938  1.00  0.00     0.138 A 
HETATM   15  F1  UNL     1      29.705  -0.603  54.358  1.00  0.00    -0.204 F 
HETATM   16  C11 UNL     1      27.686  -1.225  53.219  1.00  0.00     0.074 A 
HETATM   17 CL1  UNL     1      28.435  -2.746  52.851  1.00  0.00    -0.081 Cl
HETATM   18  C12 UNL     1      26.397  -0.903  52.817  1.00  0.00     0.056 A 
ENDBRANCH   3  11
BRANCH   1  19
HETATM   19  N1  UNL     1      23.471   3.586  50.736  1.00  0.00     0.114 N 
BRANCH  19  20
HETATM   20  C2  UNL     1      24.872   4.051  50.673  1.00  0.00     0.270 C 
HETATM   21  C1  UNL     1      25.302   3.930  49.242  1.00  0.00     0.037 C 
ENDBRANCH  19  20
BRANCH  19  22
HETATM   22  C3  UNL     1      22.700   4.790  50.991  1.00  0.00     0.270 C 
HETATM   23  C4  UNL     1      23.613   5.839  51.626  1.00  0.00     0.037 C 
ENDBRANCH  19  22
ENDBRANCH   1  19
TORSDOF 4
ENDMDL
MODEL 8
REMARK VINA RESULT:      -7.2      3.562      6.182
REMARK  4 active torsions:
REMARK  status: ('A' for Active; 'I' for Inactive)
REMARK    1  A    between atoms: C2_2  and  N1_3 
REMARK    2  A    between atoms: N1_3  and  C3_4 
REMARK    3  A    between atoms: N1_3  and  C5_6 
REMARK    4  A    between atoms: N2_8  and  C7_9 
ROOT
HETATM    1  C5  UNL     1      24.266   2.595  51.278  1.00  0.00     0.361 C 
HETATM    2  C6  UNL     1      23.529   2.464  52.572  1.00  0.00     0.184 C 
HETATM    3  N2  UNL     1      23.561   1.117  53.208  1.00  0.00    -0.359 N 
HETATM    4  C13 UNL     1      24.861   0.829  53.552  1.00  0.00     0.274 C 
HETATM    5  N3  UNL     1      25.494  -0.115  54.347  1.00  0.00    -0.263 NA
HETATM    6  C14 UNL     1      26.817  -0.129  54.097  1.00  0.00     0.228 C 
HETATM    7  N4  UNL     1      26.809   0.871  53.115  1.00  0.00    -0.253 NA
HETATM    8  C15 UNL     1      27.611   1.556  52.489  1.00  0.00     0.136 C 
HETATM    9  C16 UNL     1      26.777   2.418  51.590  1.00  0.00     0.132 C 
HETATM   10  N5  UNL     1      25.636   2.720  51.229  1.00  0.00    -0.263 NA
ENDROOT
BRANCH   3  11
HETATM   11  C7  UNL     1      22.417   0.296  53.398  1.00  0.00     0.033 A 
HETATM   12  C8  UNL     1      22.309  -0.733  54.298  1.00  0.00     0.032 A 
HETATM   13  C9  UNL     1      21.205  -1.536  54.487  1.00  0.00     0.046 A 
HETATM   14  C10 UNL     1      20.104  -1.263  53.676  1.00  0.00     0.138 A 
HETATM   15  F1  UNL     1      19.008  -2.047  53.852  1.00  0.00    -0.204 F 
HETATM   16  C11 UNL     1      20.167  -0.247  52.766  1.00  0.00     0.074 A 
HETATM   17 CL1  UNL     1      18.742   0.009  51.809  1.00  0.00    -0.081 Cl
HETATM   18  C12 UNL     1      21.313   0.523  52.632  1.00  0.00     0.056 A 
ENDBRANCH   3  11
BRANCH   1  19
HETATM   19  N1  UNL     1      23.803   3.943  50.779  1.00  0.00     0.114 N 
BRANCH  19  20
HETATM   20  C2  UNL     1      22.357   4.000  51.078  1.00  0.00     0.270 C 
HETATM   21  C1  UNL     1      22.017   5.445  51.290  1.00  0.00     0.037 C 
ENDBRANCH  19  20
BRANCH  19  22
HETATM   22  C3  UNL     1      23.874   3.917  49.329  1.00  0.00     0.270 C 
HETATM   23  C4  UNL     1      22.960   2.809  48.808  1.00  0.00     0.037 C 
ENDBRANCH  19  22
ENDBRANCH   1  19
TORSDOF 4
ENDMDL
MODEL 9
REMARK VINA RESULT:      -6.8      4.037      6.048
REMARK  4 active torsions:
REMARK  status: ('A' for Active; 'I' for Inactive)
REMARK    1  A    between atoms: C2_2  and  N1_3 
REMARK    2  A    between atoms: N1_3  and  C3_4 
REMARK    3  A    between atoms: N1_3  and  C5_6 
REMARK    4  A    between atoms: N2_8  and  C7_9 
ROOT
HETATM    1  C5  UNL     1      23.159   3.107  51.235  1.00  0.00     0.361 C 
HETATM    2  C6  UNL     1      24.093   3.105  50.069  1.00  0.00     0.184 C 
HETATM    3  N2  UNL     1      25.476   3.591  50.340  1.00  0.00    -0.359 N 
HETATM    4  C13 UNL     1      26.074   2.729  51.229  1.00  0.00     0.274 C 
HETATM    5  N3  UNL     1      27.366   2.501  51.677  1.00  0.00    -0.263 NA
HETATM    6  C14 UNL     1      27.352   1.727  52.779  1.00  0.00     0.228 C 
HETATM    7  N4  UNL     1      25.960   1.582  52.860  1.00  0.00    -0.253 NA
HETATM    8  C15 UNL     1      25.136   0.916  53.478  1.00  0.00     0.136 C 
HETATM    9  C16 UNL     1      23.800   1.374  52.974  1.00  0.00     0.132 C 
HETATM   10  N5  UNL     1      23.199   2.130  52.204  1.00  0.00    -0.263 NA
ENDROOT
BRANCH   3  11
HETATM   11  C7  UNL     1      26.038   4.762  49.764  1.00  0.00     0.033 A 
HETATM   12  C8  UNL     1      27.094   4.798  48.889  1.00  0.00     0.032 A 
HETATM   13  C9  UNL     1      27.648   5.928  48.327  1.00  0.00     0.046 A 
HETATM   14  C10 UNL     1      27.068   7.140  48.697  1.00  0.00     0.138 A 
HETATM   15  F1  UNL     1      27.604   8.263  48.150  1.00  0.00    -0.204 F 
HETATM   16  C11 UNL     1      26.015   7.153  49.566  1.00  0.00     0.074 A 
HETATM   17 CL1  UNL     1      25.368   8.715  49.958  1.00  0.00    -0.081 Cl
HETATM   18  C12 UNL     1      25.508   5.974  50.091  1.00  0.00     0.056 A 
ENDBRANCH   3  11
BRANCH   1  19
HETATM   19  N1  UNL     1      21.824   2.851  50.577  1.00  0.00     0.114 N 
BRANCH  19  20
HETATM   20  C2  UNL     1      22.131   2.116  49.333  1.00  0.00     0.270 C 
HETATM   21  C1  UNL     1      21.307   0.863  49.357  1.00  0.00     0.037 C 
ENDBRANCH  19  20
BRANCH  19  22
HETATM   22  C3  UNL     1      21.310   4.131  50.125  1.00  0.00     0.270 C 
HETATM   23  C4  UNL     1      19.794   4.155  50.322  1.00  0.00     0.037 C 
ENDBRANCH  19  22
ENDBRANCH   1  19
TORSDOF 4
ENDMDL
