MODEL 1
REMARK VINA RESULT:      -8.4      0.000      0.000
REMARK  8 active torsions:
REMARK  status: ('A' for Active; 'I' for Inactive)
REMARK    1  A    between atoms: C2_2  and  N1_3 
REMARK    2  A    between atoms: C2_2  and  N2_9 
REMARK    3  A    between atoms: N1_3  and  C3_4 
REMARK    4  A    between atoms: N2_9  and  C8_10 
REMARK    5  A    between atoms: N2_9  and  C16_19 
REMARK    6  A    between atoms: C8_10  and  C9_11 
REMARK    7  A    between atoms: C15_17  and  O1_18 
REMARK    8  A    between atoms: C17_20  and  S1_21 
ROOT
HETATM    1  N2  UNL     1      24.578   2.805  51.966  1.00  0.00    -0.332 N 
ENDROOT
BRANCH   1   2
HETATM    2  C2  UNL     1      23.237   2.328  51.791  1.00  0.00     0.094 C 
HETATM    3  C1  UNL     1      23.253   1.783  50.574  1.00  0.00     0.063 C 
BRANCH   2   4
HETATM    4  N1  UNL     1      21.883   2.092  52.157  1.00  0.00    -0.366 N 
HETATM    5  H3  UNL     1      21.255   2.924  52.245  1.00  0.00     0.162 HD
BRANCH   4   6
HETATM    6  C3  UNL     1      21.717   0.643  52.326  1.00  0.00     0.129 A 
HETATM    7  C4  UNL     1      21.999   0.262  53.743  1.00  0.00     0.002 A 
HETATM    8  C5  UNL     1      20.938  -0.252  54.296  1.00  0.00    -0.002 A 
HETATM    9  C6  UNL     1      19.845  -0.273  53.333  1.00  0.00    -0.002 A 
HETATM   10  C7  UNL     1      20.291   0.246  52.185  1.00  0.00     0.002 A 
ENDBRANCH   4   6
ENDBRANCH   2   4
ENDBRANCH   1   2
BRANCH   1  11
HETATM   11  C8  UNL     1      24.955   2.298  53.267  1.00  0.00     0.172 C 
BRANCH  11  12
HETATM   12  C9  UNL     1      25.965   1.239  53.228  1.00  0.00    -0.006 A 
HETATM   13  C10 UNL     1      25.609  -0.042  52.862  1.00  0.00     0.012 A 
HETATM   14  C11 UNL     1      26.450  -1.153  52.778  1.00  0.00     0.001 A 
HETATM   15  C12 UNL     1      27.777  -0.906  53.102  1.00  0.00     0.009 A 
HETATM   16  C13 UNL     1      28.185   0.355  53.473  1.00  0.00    -0.028 A 
HETATM   17  C14 UNL     1      29.631   0.494  53.797  1.00  0.00     0.051 C 
HETATM   18  C15 UNL     1      27.299   1.407  53.536  1.00  0.00     0.079 A 
BRANCH  18  19
HETATM   19  O1  UNL     1      27.738   2.661  53.912  1.00  0.00    -0.360 OA
HETATM   20  H17 UNL     1      28.153   2.759  54.829  1.00  0.00     0.217 HD
ENDBRANCH  18  19
ENDBRANCH  11  12
ENDBRANCH   1  11
BRANCH   1  21
HETATM   21  C16 UNL     1      25.206   3.593  50.942  1.00  0.00     0.030 A 
HETATM   22  C17 UNL     1      24.684   4.807  50.853  1.00  0.00     0.023 A 
HETATM   23  C18 UNL     1      25.226   5.718  49.850  1.00  0.00     0.058 A 
HETATM   24  C19 UNL     1      26.211   5.229  49.113  1.00  0.00     0.095 A 
HETATM   25  F1  UNL     1      26.749   6.044  48.165  1.00  0.00    -0.211 F 
HETATM   26  C20 UNL     1      26.859   3.893  49.139  1.00  0.00     0.076 A 
HETATM   27  C21 UNL     1      26.303   2.961  50.164  1.00  0.00     0.065 A 
BRANCH  22  28
HETATM   28  S1  UNL     1      23.368   5.353  51.891  1.00  0.00    -0.141 SA
HETATM   29  H18 UNL     1      23.874   6.187  52.904  1.00  0.00     0.107 HD
ENDBRANCH  22  28
ENDBRANCH   1  21
TORSDOF 8
ENDMDL
MODEL 2
REMARK VINA RESULT:      -8.0      2.575      5.429
REMARK  8 active torsions:
REMARK  status: ('A' for Active; 'I' for Inactive)
REMARK    1  A    between atoms: C2_2  and  N1_3 
REMARK    2  A    between atoms: C2_2  and  N2_9 
REMARK    3  A    between atoms: N1_3  and  C3_4 
REMARK    4  A    between atoms: N2_9  and  C8_10 
REMARK    5  A    between atoms: N2_9  and  C16_19 
REMARK    6  A    between atoms: C8_10  and  C9_11 
REMARK    7  A    between atoms: C15_17  and  O1_18 
REMARK    8  A    between atoms: C17_20  and  S1_21 
ROOT
HETATM    1  N2  UNL     1      24.381   1.807  51.597  1.00  0.00    -0.332 N 
ENDROOT
BRANCH   1   2
HETATM    2  C2  UNL     1      24.446   3.236  51.691  1.00  0.00     0.094 C 
HETATM    3  C1  UNL     1      24.236   3.476  52.986  1.00  0.00     0.063 C 
BRANCH   2   4
HETATM    4  N1  UNL     1      24.605   4.564  51.210  1.00  0.00    -0.366 N 
HETATM    5  H3  UNL     1      24.498   5.343  51.900  1.00  0.00     0.162 HD
BRANCH   4   6
HETATM    6  C3  UNL     1      24.896   4.483  49.773  1.00  0.00     0.129 A 
HETATM    7  C4  UNL     1      24.446   5.735  49.092  1.00  0.00     0.002 A 
HETATM    8  C5  UNL     1      25.461   6.351  48.557  1.00  0.00    -0.002 A 
HETATM    9  C6  UNL     1      26.682   5.598  48.812  1.00  0.00    -0.002 A 
HETATM   10  C7  UNL     1      26.360   4.510  49.518  1.00  0.00     0.002 A 
ENDBRANCH   4   6
ENDBRANCH   2   4
ENDBRANCH   1   2
BRANCH   1  11
HETATM   11  C8  UNL     1      25.648   1.445  51.002  1.00  0.00     0.172 C 
BRANCH  11  12
HETATM   12  C9  UNL     1      26.580   0.795  51.926  1.00  0.00    -0.006 A 
HETATM   13  C10 UNL     1      26.508  -0.566  52.136  1.00  0.00     0.012 A 
HETATM   14  C11 UNL     1      27.319  -1.327  52.980  1.00  0.00     0.001 A 
HETATM   15  C12 UNL     1      28.289  -0.607  53.663  1.00  0.00     0.009 A 
HETATM   16  C13 UNL     1      28.403   0.754  53.489  1.00  0.00    -0.028 A 
HETATM   17  C14 UNL     1      29.480   1.415  54.277  1.00  0.00     0.051 C 
HETATM   18  C15 UNL     1      27.568   1.443  52.639  1.00  0.00     0.079 A 
BRANCH  18  19
HETATM   19  O1  UNL     1      27.706   2.807  52.486  1.00  0.00    -0.360 OA
HETATM   20  H17 UNL     1      26.894   3.333  52.190  1.00  0.00     0.217 HD
ENDBRANCH  18  19
ENDBRANCH  11  12
ENDBRANCH   1  11
BRANCH   1  21
HETATM   21  C16 UNL     1      23.215   1.102  52.056  1.00  0.00     0.030 A 
HETATM   22  C17 UNL     1      22.242   1.106  51.158  1.00  0.00     0.023 A 
HETATM   23  C18 UNL     1      20.995   0.427  51.491  1.00  0.00     0.058 A 
HETATM   24  C19 UNL     1      20.960  -0.140  52.687  1.00  0.00     0.095 A 
HETATM   25  F1  UNL     1      19.816  -0.786  53.043  1.00  0.00    -0.211 F 
HETATM   26  C20 UNL     1      21.991  -0.196  53.754  1.00  0.00     0.076 A 
HETATM   27  C21 UNL     1      23.267   0.499  53.413  1.00  0.00     0.065 A 
BRANCH  22  28
HETATM   28  S1  UNL     1      22.399   1.896  49.590  1.00  0.00    -0.141 SA
HETATM   29  H18 UNL     1      23.074   3.122  49.738  1.00  0.00     0.107 HD
ENDBRANCH  22  28
ENDBRANCH   1  21
TORSDOF 8
ENDMDL
MODEL 3
REMARK VINA RESULT:      -7.9      2.254      5.564
REMARK  8 active torsions:
REMARK  status: ('A' for Active; 'I' for Inactive)
REMARK    1  A    between atoms: C2_2  and  N1_3 
REMARK    2  A    between atoms: C2_2  and  N2_9 
REMARK    3  A    between atoms: N1_3  and  C3_4 
REMARK    4  A    between atoms: N2_9  and  C8_10 
REMARK    5  A    between atoms: N2_9  and  C16_19 
REMARK    6  A    between atoms: C8_10  and  C9_11 
REMARK    7  A    between atoms: C15_17  and  O1_18 
REMARK    8  A    between atoms: C17_20  and  S1_21 
ROOT
HETATM    1  N2  UNL     1      25.096   1.899  52.175  1.00  0.00    -0.332 N 
ENDROOT
BRANCH   1   2
HETATM    2  C2  UNL     1      26.408   1.782  52.741  1.00  0.00     0.094 C 
HETATM    3  C1  UNL     1      26.245   2.193  54.000  1.00  0.00     0.063 C 
BRANCH   2   4
HETATM    4  N1  UNL     1      27.798   1.483  52.750  1.00  0.00    -0.366 N 
HETATM    5  H3  UNL     1      28.413   2.029  52.104  1.00  0.00     0.162 HD
BRANCH   4   6
HETATM    6  C3  UNL     1      28.014   0.413  53.732  1.00  0.00     0.129 A 
HETATM    7  C4  UNL     1      27.764  -0.917  53.097  1.00  0.00     0.002 A 
HETATM    8  C5  UNL     1      28.849  -1.636  53.106  1.00  0.00    -0.002 A 
HETATM    9  C6  UNL     1      29.928  -0.888  53.736  1.00  0.00    -0.002 A 
HETATM   10  C7  UNL     1      29.450   0.305  54.102  1.00  0.00     0.002 A 
ENDBRANCH   4   6
ENDBRANCH   2   4
ENDBRANCH   1   2
BRANCH   1  11
HETATM   11  C8  UNL     1      24.694   0.526  51.959  1.00  0.00     0.172 C 
BRANCH  11  12
HETATM   12  C9  UNL     1      23.505   0.124  52.713  1.00  0.00    -0.006 A 
HETATM   13  C10 UNL     1      23.641  -0.473  53.949  1.00  0.00     0.012 A 
HETATM   14  C11 UNL     1      22.613  -0.911  54.785  1.00  0.00     0.001 A 
HETATM   15  C12 UNL     1      21.332  -0.708  54.290  1.00  0.00     0.009 A 
HETATM   16  C13 UNL     1      21.141  -0.117  53.061  1.00  0.00    -0.028 A 
HETATM   17  C14 UNL     1      19.723   0.045  52.639  1.00  0.00     0.051 C 
HETATM   18  C15 UNL     1      22.204   0.292  52.288  1.00  0.00     0.079 A 
BRANCH  18  19
HETATM   19  O1  UNL     1      21.981   0.881  51.060  1.00  0.00    -0.360 OA
HETATM   20  H17 UNL     1      22.697   0.781  50.352  1.00  0.00     0.217 HD
ENDBRANCH  18  19
ENDBRANCH  11  12
ENDBRANCH   1  11
BRANCH   1  21
HETATM   21  C16 UNL     1      24.511   3.193  51.961  1.00  0.00     0.030 A 
HETATM   22  C17 UNL     1      25.020   3.805  50.903  1.00  0.00     0.023 A 
HETATM   23  C18 UNL     1      24.518   5.133  50.567  1.00  0.00     0.058 A 
HETATM   24  C19 UNL     1      23.580   5.605  51.373  1.00  0.00     0.095 A 
HETATM   25  F1  UNL     1      23.081   6.841  51.098  1.00  0.00    -0.211 F 
HETATM   26  C20 UNL     1      22.951   4.999  52.573  1.00  0.00     0.076 A 
HETATM   27  C21 UNL     1      23.465   3.641  52.917  1.00  0.00     0.065 A 
BRANCH  22  28
HETATM   28  S1  UNL     1      26.273   3.078  49.897  1.00  0.00    -0.141 SA
HETATM   29  H18 UNL     1      26.978   4.085  49.212  1.00  0.00     0.107 HD
ENDBRANCH  22  28
ENDBRANCH   1  21
TORSDOF 8
ENDMDL
MODEL 4
REMARK VINA RESULT:      -7.9      2.463      5.403
REMARK  8 active torsions:
REMARK  status: ('A' for Active; 'I' for Inactive)
REMARK    1  A    between atoms: C2_2  and  N1_3 
REMARK    2  A    between atoms: C2_2  and  N2_9 
REMARK    3  A    between atoms: N1_3  and  C3_4 
REMARK    4  A    between atoms: N2_9  and  C8_10 
REMARK    5  A    between atoms: N2_9  and  C16_19 
REMARK    6  A    between atoms: C8_10  and  C9_11 
REMARK    7  A    between atoms: C15_17  and  O1_18 
REMARK    8  A    between atoms: C17_20  and  S1_21 
ROOT
HETATM    1  N2  UNL     1      23.561   4.013  51.163  1.00  0.00    -0.332 N 
ENDROOT
BRANCH   1   2
HETATM    2  C2  UNL     1      24.375   5.171  50.940  1.00  0.00     0.094 C 
HETATM    3  C1  UNL     1      23.575   6.186  51.271  1.00  0.00     0.063 C 
BRANCH   2   4
HETATM    4  N1  UNL     1      25.548   5.885  50.568  1.00  0.00    -0.366 N 
HETATM    5  H3  UNL     1      25.972   6.521  51.282  1.00  0.00     0.162 HD
BRANCH   4   6
HETATM    6  C3  UNL     1      25.871   5.513  49.185  1.00  0.00     0.129 A 
HETATM    7  C4  UNL     1      26.588   6.639  48.511  1.00  0.00     0.002 A 
HETATM    8  C5  UNL     1      27.785   6.269  48.158  1.00  0.00    -0.002 A 
HETATM    9  C6  UNL     1      28.004   4.882  48.545  1.00  0.00    -0.002 A 
HETATM   10  C7  UNL     1      26.895   4.436  49.143  1.00  0.00     0.002 A 
ENDBRANCH   4   6
ENDBRANCH   2   4
ENDBRANCH   1   2
BRANCH   1  11
HETATM   11  C8  UNL     1      23.853   3.648  52.532  1.00  0.00     0.172 C 
BRANCH  11  12
HETATM   12  C9  UNL     1      24.249   2.250  52.710  1.00  0.00    -0.006 A 
HETATM   13  C10 UNL     1      23.305   1.303  53.048  1.00  0.00     0.012 A 
HETATM   14  C11 UNL     1      23.523  -0.060  53.252  1.00  0.00     0.001 A 
HETATM   15  C12 UNL     1      24.839  -0.472  53.088  1.00  0.00     0.009 A 
HETATM   16  C13 UNL     1      25.819   0.434  52.751  1.00  0.00    -0.028 A 
HETATM   17  C14 UNL     1      27.190  -0.128  52.604  1.00  0.00     0.051 C 
HETATM   18  C15 UNL     1      25.533   1.767  52.565  1.00  0.00     0.079 A 
BRANCH  18  19
HETATM   19  O1  UNL     1      26.537   2.651  52.227  1.00  0.00    -0.360 OA
HETATM   20  H17 UNL     1      27.321   2.738  52.861  1.00  0.00     0.217 HD
ENDBRANCH  18  19
ENDBRANCH  11  12
ENDBRANCH   1  11
BRANCH   1  21
HETATM   21  C16 UNL     1      22.720   3.504  50.115  1.00  0.00     0.030 A 
HETATM   22  C17 UNL     1      21.440   3.504  50.458  1.00  0.00     0.023 A 
HETATM   23  C18 UNL     1      20.468   3.011  49.487  1.00  0.00     0.058 A 
HETATM   24  C19 UNL     1      20.975   2.604  48.334  1.00  0.00     0.095 A 
HETATM   25  F1  UNL     1      20.106   2.135  47.397  1.00  0.00    -0.211 F 
HETATM   26  C20 UNL     1      22.383   2.566  47.863  1.00  0.00     0.076 A 
HETATM   27  C21 UNL     1      23.376   3.070  48.856  1.00  0.00     0.065 A 
BRANCH  22  28
HETATM   28  S1  UNL     1      20.876   4.071  52.028  1.00  0.00    -0.141 SA
HETATM   29  H18 UNL     1      21.720   3.582  53.043  1.00  0.00     0.107 HD
ENDBRANCH  22  28
ENDBRANCH   1  21
TORSDOF 8
ENDMDL
MODEL 5
REMARK VINA RESULT:      -7.9      1.594      2.659
REMARK  8 active torsions:
REMARK  status: ('A' for Active; 'I' for Inactive)
REMARK    1  A    between atoms: C2_2  and  N1_3 
REMARK    2  A    between atoms: C2_2  and  N2_9 
REMARK    3  A    between atoms: N1_3  and  C3_4 
REMARK    4  A    between atoms: N2_9  and  C8_10 
REMARK    5  A    between atoms: N2_9  and  C16_19 
REMARK    6  A    between atoms: C8_10  and  C9_11 
REMARK    7  A    between atoms: C15_17  and  O1_18 
REMARK    8  A    between atoms: C17_20  and  S1_21 
ROOT
HETATM    1  N2  UNL     1      24.379   2.345  51.582  1.00  0.00    -0.332 N 
ENDROOT
BRANCH   1   2
HETATM    2  C2  UNL     1      23.172   1.760  51.077  1.00  0.00     0.094 C 
HETATM    3  C1  UNL     1      22.587   1.257  52.165  1.00  0.00     0.063 C 
BRANCH   2   4
HETATM    4  N1  UNL     1      22.220   1.394  50.086  1.00  0.00    -0.366 N 
HETATM    5  H3  UNL     1      22.023   0.374  49.960  1.00  0.00     0.162 HD
BRANCH   4   6
HETATM    6  C3  UNL     1      21.736   2.630  49.460  1.00  0.00     0.129 A 
HETATM    7  C4  UNL     1      22.595   2.975  48.286  1.00  0.00     0.002 A 
HETATM    8  C5  UNL     1      21.893   2.964  47.189  1.00  0.00    -0.002 A 
HETATM    9  C6  UNL     1      20.511   2.619  47.496  1.00  0.00    -0.002 A 
HETATM   10  C7  UNL     1      20.413   2.423  48.814  1.00  0.00     0.002 A 
ENDBRANCH   4   6
ENDBRANCH   2   4
ENDBRANCH   1   2
BRANCH   1  11
HETATM   11  C8  UNL     1      24.547   1.721  52.876  1.00  0.00     0.172 C 
BRANCH  11  12
HETATM   12  C9  UNL     1      25.785   0.952  53.015  1.00  0.00    -0.006 A 
HETATM   13  C10 UNL     1      25.831  -0.363  52.602  1.00  0.00     0.012 A 
HETATM   14  C11 UNL     1      26.928  -1.223  52.669  1.00  0.00     0.001 A 
HETATM   15  C12 UNL     1      28.077  -0.663  53.211  1.00  0.00     0.009 A 
HETATM   16  C13 UNL     1      28.084   0.646  53.639  1.00  0.00    -0.028 A 
HETATM   17  C14 UNL     1      29.374   1.131  54.202  1.00  0.00     0.051 C 
HETATM   18  C15 UNL     1      26.963   1.439  53.544  1.00  0.00     0.079 A 
BRANCH  18  19
HETATM   19  O1  UNL     1      27.000   2.747  53.981  1.00  0.00    -0.360 OA
HETATM   20  H17 UNL     1      26.605   3.457  53.377  1.00  0.00     0.217 HD
ENDBRANCH  18  19
ENDBRANCH  11  12
ENDBRANCH   1  11
BRANCH   1  21
HETATM   21  C16 UNL     1      25.097   3.315  50.802  1.00  0.00     0.030 A 
HETATM   22  C17 UNL     1      24.609   4.537  50.950  1.00  0.00     0.023 A 
HETATM   23  C18 UNL     1      25.243   5.625  50.212  1.00  0.00     0.058 A 
HETATM   24  C19 UNL     1      26.267   5.273  49.451  1.00  0.00     0.095 A 
HETATM   25  F1  UNL     1      26.890   6.255  48.743  1.00  0.00    -0.211 F 
HETATM   26  C20 UNL     1      26.881   3.941  49.222  1.00  0.00     0.076 A 
HETATM   27  C21 UNL     1      26.233   2.828  49.976  1.00  0.00     0.065 A 
BRANCH  22  28
HETATM   28  S1  UNL     1      23.235   4.892  51.995  1.00  0.00    -0.141 SA
HETATM   29  H18 UNL     1      22.531   6.003  51.497  1.00  0.00     0.107 HD
ENDBRANCH  22  28
ENDBRANCH   1  21
TORSDOF 8
ENDMDL
MODEL 6
REMARK VINA RESULT:      -7.7      2.338      4.750
REMARK  8 active torsions:
REMARK  status: ('A' for Active; 'I' for Inactive)
REMARK    1  A    between atoms: C2_2  and  N1_3 
REMARK    2  A    between atoms: C2_2  and  N2_9 
REMARK    3  A    between atoms: N1_3  and  C3_4 
REMARK    4  A    between atoms: N2_9  and  C8_10 
REMARK    5  A    between atoms: N2_9  and  C16_19 
REMARK    6  A    between atoms: C8_10  and  C9_11 
REMARK    7  A    between atoms: C15_17  and  O1_18 
REMARK    8  A    between atoms: C17_20  and  S1_21 
ROOT
HETATM    1  N2  UNL     1      23.950   4.381  50.954  1.00  0.00    -0.332 N 
ENDROOT
BRANCH   1   2
HETATM    2  C2  UNL     1      24.136   3.750  52.228  1.00  0.00     0.094 C 
HETATM    3  C1  UNL     1      23.683   4.654  53.097  1.00  0.00     0.063 C 
BRANCH   2   4
HETATM    4  N1  UNL     1      24.525   2.714  53.121  1.00  0.00    -0.366 N 
HETATM    5  H3  UNL     1      24.801   2.992  54.091  1.00  0.00     0.162 HD
BRANCH   4   6
HETATM    6  C3  UNL     1      24.431   1.443  52.392  1.00  0.00     0.129 A 
HETATM    7  C4  UNL     1      25.678   0.645  52.599  1.00  0.00     0.002 A 
HETATM    8  C5  UNL     1      25.406  -0.477  53.201  1.00  0.00    -0.002 A 
HETATM    9  C6  UNL     1      23.975  -0.559  53.460  1.00  0.00    -0.002 A 
HETATM   10  C7  UNL     1      23.402   0.554  52.993  1.00  0.00     0.002 A 
ENDBRANCH   4   6
ENDBRANCH   2   4
ENDBRANCH   1   2
BRANCH   1  11
HETATM   11  C8  UNL     1      22.512   4.436  50.807  1.00  0.00     0.172 C 
BRANCH  11  12
HETATM   12  C9  UNL     1      21.906   3.176  50.373  1.00  0.00    -0.006 A 
HETATM   13  C10 UNL     1      22.269   2.614  49.167  1.00  0.00     0.012 A 
HETATM   14  C11 UNL     1      21.785   1.426  48.617  1.00  0.00     0.001 A 
HETATM   15  C12 UNL     1      20.840   0.767  49.392  1.00  0.00     0.009 A 
HETATM   16  C13 UNL     1      20.442   1.286  50.604  1.00  0.00    -0.028 A 
HETATM   17  C14 UNL     1      19.424   0.489  51.341  1.00  0.00     0.051 C 
HETATM   18  C15 UNL     1      20.963   2.465  51.086  1.00  0.00     0.079 A 
BRANCH  18  19
HETATM   19  O1  UNL     1      20.544   2.961  52.305  1.00  0.00    -0.360 OA
HETATM   20  H17 UNL     1      20.788   2.436  53.135  1.00  0.00     0.217 HD
ENDBRANCH  18  19
ENDBRANCH  11  12
ENDBRANCH   1  11
BRANCH   1  21
HETATM   21  C16 UNL     1      25.086   4.787  50.173  1.00  0.00     0.030 A 
HETATM   22  C17 UNL     1      25.101   6.093  49.954  1.00  0.00     0.023 A 
HETATM   23  C18 UNL     1      26.200   6.646  49.169  1.00  0.00     0.058 A 
HETATM   24  C19 UNL     1      27.094   5.766  48.746  1.00  0.00     0.095 A 
HETATM   25  F1  UNL     1      28.138   6.237  48.010  1.00  0.00    -0.211 F 
HETATM   26  C20 UNL     1      27.160   4.296  48.939  1.00  0.00     0.076 A 
HETATM   27  C21 UNL     1      26.036   3.730  49.741  1.00  0.00     0.065 A 
BRANCH  22  28
HETATM   28  S1  UNL     1      23.853   7.175  50.569  1.00  0.00    -0.141 SA
HETATM   29  H18 UNL     1      23.701   8.271  49.700  1.00  0.00     0.107 HD
ENDBRANCH  22  28
ENDBRANCH   1  21
TORSDOF 8
ENDMDL
MODEL 7
REMARK VINA RESULT:      -7.4      2.910      6.055
REMARK  8 active torsions:
REMARK  status: ('A' for Active; 'I' for Inactive)
REMARK    1  A    between atoms: C2_2  and  N1_3 
REMARK    2  A    between atoms: C2_2  and  N2_9 
REMARK    3  A    between atoms: N1_3  and  C3_4 
REMARK    4  A    between atoms: N2_9  and  C8_10 
REMARK    5  A    between atoms: N2_9  and  C16_19 
REMARK    6  A    between atoms: C8_10  and  C9_11 
REMARK    7  A    between atoms: C15_17  and  O1_18 
REMARK    8  A    between atoms: C17_20  and  S1_21 
ROOT
HETATM    1  N2  UNL     1      23.630   3.330  50.988  1.00  0.00    -0.332 N 
ENDROOT
BRANCH   1   2
HETATM    2  C2  UNL     1      24.956   3.794  50.702  1.00  0.00     0.094 C 
HETATM    3  C1  UNL     1      25.645   2.672  50.491  1.00  0.00     0.063 C 
BRANCH   2   4
HETATM    4  N1  UNL     1      25.982   4.760  50.509  1.00  0.00    -0.366 N 
HETATM    5  H3  UNL     1      26.411   5.185  51.363  1.00  0.00     0.162 HD
BRANCH   4   6
HETATM    6  C3  UNL     1      26.177   4.916  49.062  1.00  0.00     0.129 A 
HETATM    7  C4  UNL     1      25.726   6.274  48.632  1.00  0.00     0.002 A 
HETATM    8  C5  UNL     1      26.724   6.950  48.139  1.00  0.00    -0.002 A 
HETATM    9  C6  UNL     1      27.933   6.139  48.180  1.00  0.00    -0.002 A 
HETATM   10  C7  UNL     1      27.623   4.955  48.716  1.00  0.00     0.002 A 
ENDBRANCH   4   6
ENDBRANCH   2   4
ENDBRANCH   1   2
BRANCH   1  11
HETATM   11  C8  UNL     1      23.652   3.093  52.415  1.00  0.00     0.172 C 
BRANCH  11  12
HETATM   12  C9  UNL     1      23.208   1.754  52.807  1.00  0.00    -0.006 A 
HETATM   13  C10 UNL     1      24.135   0.760  53.040  1.00  0.00     0.012 A 
HETATM   14  C11 UNL     1      23.873  -0.558  53.417  1.00  0.00     0.001 A 
HETATM   15  C12 UNL     1      22.527  -0.865  53.565  1.00  0.00     0.009 A 
HETATM   16  C13 UNL     1      21.561   0.091  53.345  1.00  0.00    -0.028 A 
HETATM   17  C14 UNL     1      20.155  -0.360  53.535  1.00  0.00     0.051 C 
HETATM   18  C15 UNL     1      21.892   1.374  52.974  1.00  0.00     0.079 A 
BRANCH  18  19
HETATM   19  O1  UNL     1      20.901   2.311  52.760  1.00  0.00    -0.360 OA
HETATM   20  H17 UNL     1      20.173   2.394  53.458  1.00  0.00     0.217 HD
ENDBRANCH  18  19
ENDBRANCH  11  12
ENDBRANCH   1  11
BRANCH   1  21
HETATM   21  C16 UNL     1      22.661   3.207  49.934  1.00  0.00     0.030 A 
HETATM   22  C17 UNL     1      22.046   4.353  49.684  1.00  0.00     0.023 A 
HETATM   23  C18 UNL     1      21.031   4.375  48.636  1.00  0.00     0.058 A 
HETATM   24  C19 UNL     1      20.823   3.220  48.024  1.00  0.00     0.095 A 
HETATM   25  F1  UNL     1      19.885   3.192  47.038  1.00  0.00    -0.211 F 
HETATM   26  C20 UNL     1      21.457   1.894  48.233  1.00  0.00     0.076 A 
HETATM   27  C21 UNL     1      22.494   1.871  49.305  1.00  0.00     0.065 A 
BRANCH  22  28
HETATM   28  S1  UNL     1      22.405   5.836  50.566  1.00  0.00    -0.141 SA
HETATM   29  H18 UNL     1      21.231   6.598  50.717  1.00  0.00     0.107 HD
ENDBRANCH  22  28
ENDBRANCH   1  21
TORSDOF 8
ENDMDL
MODEL 8
REMARK VINA RESULT:      -7.4      2.974      4.903
REMARK  8 active torsions:
REMARK  status: ('A' for Active; 'I' for Inactive)
REMARK    1  A    between atoms: C2_2  and  N1_3 
REMARK    2  A    between atoms: C2_2  and  N2_9 
REMARK    3  A    between atoms: N1_3  and  C3_4 
REMARK    4  A    between atoms: N2_9  and  C8_10 
REMARK    5  A    between atoms: N2_9  and  C16_19 
REMARK    6  A    between atoms: C8_10  and  C9_11 
REMARK    7  A    between atoms: C15_17  and  O1_18 
REMARK    8  A    between atoms: C17_20  and  S1_21 
ROOT
HETATM    1  N2  UNL     1      23.294   3.044  50.953  1.00  0.00    -0.332 N 
ENDROOT
BRANCH   1   2
HETATM    2  C2  UNL     1      23.508   1.951  51.856  1.00  0.00     0.094 C 
HETATM    3  C1  UNL     1      24.181   2.505  52.866  1.00  0.00     0.063 C 
BRANCH   2   4
HETATM    4  N1  UNL     1      23.425   0.607  52.314  1.00  0.00    -0.366 N 
HETATM    5  H3  UNL     1      23.974  -0.115  51.793  1.00  0.00     0.162 HD
BRANCH   4   6
HETATM    6  C3  UNL     1      22.528   0.591  53.476  1.00  0.00     0.129 A 
HETATM    7  C4  UNL     1      21.113   0.421  53.023  1.00  0.00     0.002 A 
HETATM    8  C5  UNL     1      20.615  -0.685  53.495  1.00  0.00    -0.002 A 
HETATM    9  C6  UNL     1      21.616  -1.370  54.301  1.00  0.00    -0.002 A 
HETATM   10  C7  UNL     1      22.731  -0.634  54.295  1.00  0.00     0.002 A 
ENDBRANCH   4   6
ENDBRANCH   2   4
ENDBRANCH   1   2
BRANCH   1  11
HETATM   11  C8  UNL     1      24.191   4.069  51.439  1.00  0.00     0.172 C 
BRANCH  11  12
HETATM   12  C9  UNL     1      24.865   4.826  50.383  1.00  0.00    -0.006 A 
HETATM   13  C10 UNL     1      24.198   5.839  49.725  1.00  0.00     0.012 A 
HETATM   14  C11 UNL     1      24.699   6.645  48.703  1.00  0.00     0.001 A 
HETATM   15  C12 UNL     1      26.009   6.374  48.334  1.00  0.00     0.009 A 
HETATM   16  C13 UNL     1      26.720   5.373  48.958  1.00  0.00    -0.028 A 
HETATM   17  C14 UNL     1      28.114   5.177  48.475  1.00  0.00     0.051 C 
HETATM   18  C15 UNL     1      26.162   4.614  49.962  1.00  0.00     0.079 A 
BRANCH  18  19
HETATM   19  O1  UNL     1      26.899   3.618  50.569  1.00  0.00    -0.360 OA
HETATM   20  H17 UNL     1      27.497   3.880  51.343  1.00  0.00     0.217 HD
ENDBRANCH  18  19
ENDBRANCH  11  12
ENDBRANCH   1  11
BRANCH   1  21
HETATM   21  C16 UNL     1      22.351   2.921  49.876  1.00  0.00     0.030 A 
HETATM   22  C17 UNL     1      21.143   3.341  50.219  1.00  0.00     0.023 A 
HETATM   23  C18 UNL     1      20.081   3.272  49.221  1.00  0.00     0.058 A 
HETATM   24  C19 UNL     1      20.441   2.786  48.043  1.00  0.00     0.095 A 
HETATM   25  F1  UNL     1      19.483   2.704  47.079  1.00  0.00    -0.211 F 
HETATM   26  C20 UNL     1      21.759   2.294  47.569  1.00  0.00     0.076 A 
HETATM   27  C21 UNL     1      22.844   2.364  48.590  1.00  0.00     0.065 A 
BRANCH  22  28
HETATM   28  S1  UNL     1      20.776   3.972  51.824  1.00  0.00    -0.141 SA
HETATM   29  H18 UNL     1      19.396   3.858  52.077  1.00  0.00     0.107 HD
ENDBRANCH  22  28
ENDBRANCH   1  21
TORSDOF 8
ENDMDL
MODEL 9
REMARK VINA RESULT:      -7.2      6.810     10.493
REMARK  8 active torsions:
REMARK  status: ('A' for Active; 'I' for Inactive)
REMARK    1  A    between atoms: C2_2  and  N1_3 
REMARK    2  A    between atoms: C2_2  and  N2_9 
REMARK    3  A    between atoms: N1_3  and  C3_4 
REMARK    4  A    between atoms: N2_9  and  C8_10 
REMARK    5  A    between atoms: N2_9  and  C16_19 
REMARK    6  A    between atoms: C8_10  and  C9_11 
REMARK    7  A    between atoms: C15_17  and  O1_18 
REMARK    8  A    between atoms: C17_20  and  S1_21 
ROOT
HETATM    1  N2  UNL     1      31.125   7.098  48.067  1.00  0.00    -0.332 N 
ENDROOT
BRANCH   1   2
HETATM    2  C2  UNL     1      32.263   6.321  48.464  1.00  0.00     0.094 C 
HETATM    3  C1  UNL     1      31.893   5.797  49.634  1.00  0.00     0.063 C 
BRANCH   2   4
HETATM    4  N1  UNL     1      33.570   5.774  48.344  1.00  0.00    -0.366 N 
HETATM    5  H3  UNL     1      34.372   6.370  48.652  1.00  0.00     0.162 HD
BRANCH   4   6
HETATM    6  C3  UNL     1      33.435   4.426  47.778  1.00  0.00     0.129 A 
HETATM    7  C4  UNL     1      33.217   4.514  46.302  1.00  0.00     0.002 A 
HETATM    8  C5  UNL     1      34.192   3.933  45.663  1.00  0.00    -0.002 A 
HETATM    9  C6  UNL     1      35.154   3.400  46.618  1.00  0.00    -0.002 A 
HETATM   10  C7  UNL     1      34.721   3.683  47.850  1.00  0.00     0.002 A 
ENDBRANCH   4   6
ENDBRANCH   2   4
ENDBRANCH   1   2
BRANCH   1  11
HETATM   11  C8  UNL     1      30.181   6.107  47.599  1.00  0.00     0.172 C 
BRANCH  11  12
HETATM   12  C9  UNL     1      28.780   6.519  47.700  1.00  0.00    -0.006 A 
HETATM   13  C10 UNL     1      28.312   7.567  46.935  1.00  0.00     0.012 A 
HETATM   14  C11 UNL     1      27.013   8.076  46.919  1.00  0.00     0.001 A 
HETATM   15  C12 UNL     1      26.124   7.437  47.772  1.00  0.00     0.009 A 
HETATM   16  C13 UNL     1      26.540   6.386  48.558  1.00  0.00    -0.028 A 
HETATM   17  C14 UNL     1      25.497   5.783  49.432  1.00  0.00     0.051 C 
HETATM   18  C15 UNL     1      27.840   5.934  48.524  1.00  0.00     0.079 A 
BRANCH  18  19
HETATM   19  O1  UNL     1      28.228   4.878  49.323  1.00  0.00    -0.360 OA
HETATM   20  H17 UNL     1      28.850   4.188  48.921  1.00  0.00     0.217 HD
ENDBRANCH  18  19
ENDBRANCH  11  12
ENDBRANCH   1  11
BRANCH   1  21
HETATM   21  C16 UNL     1      31.143   8.529  48.197  1.00  0.00     0.030 A 
HETATM   22  C17 UNL     1      31.697   9.119  47.149  1.00  0.00     0.023 A 
HETATM   23  C18 UNL     1      31.784  10.576  47.146  1.00  0.00     0.058 A 
HETATM   24  C19 UNL     1      31.287  11.176  48.216  1.00  0.00     0.095 A 
HETATM   25  F1  UNL     1      31.345  12.535  48.258  1.00  0.00    -0.211 F 
HETATM   26  C20 UNL     1      30.652  10.604  49.430  1.00  0.00     0.076 A 
HETATM   27  C21 UNL     1      30.564   9.114  49.433  1.00  0.00     0.065 A 
BRANCH  22  28
HETATM   28  S1  UNL     1      32.328   8.217  45.772  1.00  0.00    -0.141 SA
HETATM   29  H18 UNL     1      32.130   6.838  45.975  1.00  0.00     0.107 HD
ENDBRANCH  22  28
ENDBRANCH   1  21
TORSDOF 8
ENDMDL
