MODEL 1
REMARK VINA RESULT:      -8.5      0.000      0.000
REMARK  7 active torsions:
REMARK  status: ('A' for Active; 'I' for Inactive)
REMARK    1  A    between atoms: C4_4  and  N1_5 
REMARK    2  A    between atoms: N1_5  and  C5_6 
REMARK    3  A    between atoms: N4_16  and  O1_17 
REMARK    4  A    between atoms: O1_17  and  C13_18 
REMARK    5  A    between atoms: C13_18  and  C14_19 
REMARK    6  A    between atoms: C14_19  and  C15_20 
REMARK    7  A    between atoms: C15_20  and  N5_21 
ROOT
HETATM    1  C5  UNL     1      24.738  -0.590  54.065  1.00  0.00     0.142 A 
HETATM    2  N2  UNL     1      24.917  -1.181  55.242  1.00  0.00    -0.224 NA
HETATM    3  C6  UNL     1      23.973  -1.622  56.069  1.00  0.00     0.236 A 
HETATM    4  N3  UNL     1      22.707  -1.450  55.669  1.00  0.00    -0.241 NA
HETATM    5  C7  UNL     1      22.403  -0.859  54.486  1.00  0.00     0.075 A 
HETATM    6  C8  UNL     1      21.069  -0.732  54.170  1.00  0.00     0.071 A 
HETATM    7  C9  UNL     1      20.702  -0.149  52.999  1.00  0.00     0.099 A 
HETATM    8  C10 UNL     1      21.693   0.309  52.140  1.00  0.00     0.091 A 
HETATM    9  C11 UNL     1      23.001   0.152  52.511  1.00  0.00     0.052 A 
HETATM   10  C12 UNL     1      23.434  -0.429  53.682  1.00  0.00     0.041 A 
HETATM   11  N4  UNL     1      21.295   0.920  50.907  1.00  0.00    -0.254 N 
HETATM   12  C20 UNL     1      20.004   0.490  50.349  1.00  0.00     0.183 C 
HETATM   13  C21 UNL     1      18.936   0.325  51.372  1.00  0.00     0.198 C 
HETATM   14  O3  UNL     1      19.366  -0.009  52.657  1.00  0.00    -0.347 OA
ENDROOT
BRANCH  11  15
HETATM   15  O1  UNL     1      22.167   1.840  50.388  1.00  0.00    -0.278 OA
BRANCH  15  16
HETATM   16  C13 UNL     1      21.601   2.717  49.508  1.00  0.00     0.203 C 
BRANCH  16  17
HETATM   17  C14 UNL     1      22.337   4.027  49.389  1.00  0.00     0.059 C 
BRANCH  17  18
HETATM   18  C15 UNL     1      23.808   3.780  49.168  1.00  0.00     0.275 C 
BRANCH  18  19
HETATM   19  N5  UNL     1      24.670   4.384  50.132  1.00  0.00     0.092 N 
HETATM   20  C16 UNL     1      25.978   3.784  50.244  1.00  0.00     0.298 C 
HETATM   21  C17 UNL     1      25.841   2.507  51.041  1.00  0.00     0.198 C 
HETATM   22  O2  UNL     1      25.478   2.879  52.337  1.00  0.00    -0.388 OA
HETATM   23  C18 UNL     1      24.224   3.481  52.374  1.00  0.00     0.198 C 
HETATM   24  C19 UNL     1      24.110   4.635  51.415  1.00  0.00     0.298 C 
ENDBRANCH  18  19
ENDBRANCH  17  18
ENDBRANCH  16  17
ENDBRANCH  15  16
ENDBRANCH  11  15
BRANCH   1  25
HETATM   25  N1  UNL     1      25.755  -0.128  53.197  1.00  0.00    -0.340 N 
HETATM   26  H4  UNL     1      25.548   0.374  52.333  1.00  0.00     0.167 HD
BRANCH  25  27
HETATM   27  C4  UNL     1      27.163  -0.246  53.318  1.00  0.00     0.033 A 
HETATM   28  C3  UNL     1      28.033   0.787  53.689  1.00  0.00     0.029 A 
HETATM   29  C2  UNL     1      29.389   0.628  53.792  1.00  0.00     0.002 A 
HETATM   30  C1  UNL     1      29.985  -0.582  53.531  1.00  0.00     0.000 A 
HETATM   31  C23 UNL     1      29.166  -1.617  53.163  1.00  0.00     0.002 A 
HETATM   32  C22 UNL     1      27.804  -1.427  53.068  1.00  0.00     0.029 A 
ENDBRANCH  25  27
ENDBRANCH   1  25
TORSDOF 7
ENDMDL
MODEL 2
REMARK VINA RESULT:      -8.4      1.132      1.812
REMARK  7 active torsions:
REMARK  status: ('A' for Active; 'I' for Inactive)
REMARK    1  A    between atoms: C4_4  and  N1_5 
REMARK    2  A    between atoms: N1_5  and  C5_6 
REMARK    3  A    between atoms: N4_16  and  O1_17 
REMARK    4  A    between atoms: O1_17  and  C13_18 
REMARK    5  A    between atoms: C13_18  and  C14_19 
REMARK    6  A    between atoms: C14_19  and  C15_20 
REMARK    7  A    between atoms: C15_20  and  N5_21 
ROOT
HETATM    1  C5  UNL     1      24.759  -0.486  54.141  1.00  0.00     0.142 A 
HETATM    2  N2  UNL     1      24.946  -1.164  55.269  1.00  0.00    -0.224 NA
HETATM    3  C6  UNL     1      24.011  -1.709  56.041  1.00  0.00     0.236 A 
HETATM    4  N3  UNL     1      22.744  -1.554  55.636  1.00  0.00    -0.241 NA
HETATM    5  C7  UNL     1      22.431  -0.881  54.502  1.00  0.00     0.075 A 
HETATM    6  C8  UNL     1      21.097  -0.780  54.175  1.00  0.00     0.071 A 
HETATM    7  C9  UNL     1      20.722  -0.117  53.050  1.00  0.00     0.099 A 
HETATM    8  C10 UNL     1      21.705   0.448  52.248  1.00  0.00     0.091 A 
HETATM    9  C11 UNL     1      23.013   0.313  52.626  1.00  0.00     0.052 A 
HETATM   10  C12 UNL     1      23.455  -0.345  53.752  1.00  0.00     0.041 A 
HETATM   11  N4  UNL     1      21.298   1.143  51.063  1.00  0.00    -0.254 N 
HETATM   12  C20 UNL     1      20.033   0.710  50.451  1.00  0.00     0.183 C 
HETATM   13  C21 UNL     1      18.959   0.420  51.439  1.00  0.00     0.198 C 
HETATM   14  O3  UNL     1      19.386  -0.002  52.699  1.00  0.00    -0.347 OA
ENDROOT
BRANCH  11  15
HETATM   15  O1  UNL     1      22.138   2.137  50.635  1.00  0.00    -0.278 OA
BRANCH  15  16
HETATM   16  C13 UNL     1      22.027   2.435  49.307  1.00  0.00     0.203 C 
BRANCH  16  17
HETATM   17  C14 UNL     1      23.290   2.983  48.694  1.00  0.00     0.059 C 
BRANCH  17  18
HETATM   18  C15 UNL     1      23.495   4.416  49.119  1.00  0.00     0.275 C 
BRANCH  18  19
HETATM   19  N5  UNL     1      24.481   4.607  50.133  1.00  0.00     0.092 N 
HETATM   20  C16 UNL     1      24.028   5.320  51.302  1.00  0.00     0.298 C 
HETATM   21  C17 UNL     1      23.972   6.791  50.960  1.00  0.00     0.198 C 
HETATM   22  O2  UNL     1      25.288   7.205  50.746  1.00  0.00    -0.388 OA
HETATM   23  C18 UNL     1      25.856   6.584  49.638  1.00  0.00     0.198 C 
HETATM   24  C19 UNL     1      25.750   5.084  49.702  1.00  0.00     0.298 C 
ENDBRANCH  18  19
ENDBRANCH  17  18
ENDBRANCH  16  17
ENDBRANCH  15  16
ENDBRANCH  11  15
BRANCH   1  25
HETATM   25  N1  UNL     1      25.768   0.086  53.331  1.00  0.00    -0.340 N 
HETATM   26  H4  UNL     1      25.554   0.722  52.562  1.00  0.00     0.167 HD
BRANCH  25  27
HETATM   27  C4  UNL     1      27.174  -0.078  53.395  1.00  0.00     0.033 A 
HETATM   28  C3  UNL     1      27.861  -1.275  53.154  1.00  0.00     0.029 A 
HETATM   29  C2  UNL     1      29.223  -1.389  53.229  1.00  0.00     0.002 A 
HETATM   30  C1  UNL     1      30.011  -0.310  53.551  1.00  0.00     0.000 A 
HETATM   31  C23 UNL     1      29.375   0.879  53.794  1.00  0.00     0.002 A 
HETATM   32  C22 UNL     1      28.001   0.963  53.712  1.00  0.00     0.029 A 
ENDBRANCH  25  27
ENDBRANCH   1  25
TORSDOF 7
ENDMDL
MODEL 3
REMARK VINA RESULT:      -8.2      1.842      6.109
REMARK  7 active torsions:
REMARK  status: ('A' for Active; 'I' for Inactive)
REMARK    1  A    between atoms: C4_4  and  N1_5 
REMARK    2  A    between atoms: N1_5  and  C5_6 
REMARK    3  A    between atoms: N4_16  and  O1_17 
REMARK    4  A    between atoms: O1_17  and  C13_18 
REMARK    5  A    between atoms: C13_18  and  C14_19 
REMARK    6  A    between atoms: C14_19  and  C15_20 
REMARK    7  A    between atoms: C15_20  and  N5_21 
ROOT
HETATM    1  C5  UNL     1      21.914   0.133  52.874  1.00  0.00     0.142 A 
HETATM    2  N2  UNL     1      21.002  -0.573  53.534  1.00  0.00    -0.224 NA
HETATM    3  C6  UNL     1      21.208  -1.373  54.576  1.00  0.00     0.236 A 
HETATM    4  N3  UNL     1      22.474  -1.476  55.003  1.00  0.00    -0.241 NA
HETATM    5  C7  UNL     1      23.488  -0.803  54.407  1.00  0.00     0.075 A 
HETATM    6  C8  UNL     1      24.752  -0.978  54.924  1.00  0.00     0.071 A 
HETATM    7  C9  UNL     1      25.809  -0.330  54.369  1.00  0.00     0.099 A 
HETATM    8  C10 UNL     1      25.585   0.505  53.282  1.00  0.00     0.091 A 
HETATM    9  C11 UNL     1      24.306   0.639  52.814  1.00  0.00     0.052 A 
HETATM   10  C12 UNL     1      23.197   0.009  53.332  1.00  0.00     0.041 A 
HETATM   11  N4  UNL     1      26.706   1.185  52.706  1.00  0.00    -0.254 N 
HETATM   12  C20 UNL     1      27.836   1.465  53.605  1.00  0.00     0.183 C 
HETATM   13  C21 UNL     1      28.156   0.344  54.529  1.00  0.00     0.198 C 
HETATM   14  O3  UNL     1      27.091  -0.489  54.872  1.00  0.00    -0.347 OA
ENDROOT
BRANCH  11  15
HETATM   15  O1  UNL     1      26.597   1.498  51.377  1.00  0.00    -0.278 OA
BRANCH  15  16
HETATM   16  C13 UNL     1      26.675   2.834  51.104  1.00  0.00     0.203 C 
BRANCH  16  17
HETATM   17  C14 UNL     1      26.425   3.180  49.659  1.00  0.00     0.059 C 
BRANCH  17  18
HETATM   18  C15 UNL     1      25.162   3.995  49.530  1.00  0.00     0.275 C 
BRANCH  18  19
HETATM   19  N5  UNL     1      23.991   3.377  50.061  1.00  0.00     0.092 N 
HETATM   20  C16 UNL     1      23.196   2.648  49.103  1.00  0.00     0.298 C 
HETATM   21  C17 UNL     1      22.404   3.650  48.294  1.00  0.00     0.198 C 
HETATM   22  O2  UNL     1      21.495   4.247  49.170  1.00  0.00    -0.388 OA
HETATM   23  C18 UNL     1      22.135   4.986  50.159  1.00  0.00     0.198 C 
HETATM   24  C19 UNL     1      23.172   4.184  50.899  1.00  0.00     0.298 C 
ENDBRANCH  18  19
ENDBRANCH  17  18
ENDBRANCH  16  17
ENDBRANCH  15  16
ENDBRANCH  11  15
BRANCH   1  25
HETATM   25  N1  UNL     1      21.675   0.981  51.766  1.00  0.00    -0.340 N 
HETATM   26  H4  UNL     1      22.418   1.262  51.126  1.00  0.00     0.167 HD
BRANCH  25  27
HETATM   27  C4  UNL     1      20.464   1.578  51.335  1.00  0.00     0.033 A 
HETATM   28  C3  UNL     1      19.833   2.665  51.952  1.00  0.00     0.029 A 
HETATM   29  C2  UNL     1      18.661   3.211  51.501  1.00  0.00     0.002 A 
HETATM   30  C1  UNL     1      18.024   2.709  50.392  1.00  0.00     0.000 A 
HETATM   31  C23 UNL     1      18.611   1.644  49.761  1.00  0.00     0.002 A 
HETATM   32  C22 UNL     1      19.791   1.117  50.238  1.00  0.00     0.029 A 
ENDBRANCH  25  27
ENDBRANCH   1  25
TORSDOF 7
ENDMDL
MODEL 4
REMARK VINA RESULT:      -8.1      2.302      5.074
REMARK  7 active torsions:
REMARK  status: ('A' for Active; 'I' for Inactive)
REMARK    1  A    between atoms: C4_4  and  N1_5 
REMARK    2  A    between atoms: N1_5  and  C5_6 
REMARK    3  A    between atoms: N4_16  and  O1_17 
REMARK    4  A    between atoms: O1_17  and  C13_18 
REMARK    5  A    between atoms: C13_18  and  C14_19 
REMARK    6  A    between atoms: C14_19  and  C15_20 
REMARK    7  A    between atoms: C15_20  and  N5_21 
ROOT
HETATM    1  C5  UNL     1      26.642   2.147  51.837  1.00  0.00     0.142 A 
HETATM    2  N2  UNL     1      27.877   2.387  52.264  1.00  0.00    -0.224 NA
HETATM    3  C6  UNL     1      28.441   1.936  53.381  1.00  0.00     0.236 A 
HETATM    4  N3  UNL     1      27.677   1.158  54.158  1.00  0.00    -0.241 NA
HETATM    5  C7  UNL     1      26.401   0.845  53.825  1.00  0.00     0.075 A 
HETATM    6  C8  UNL     1      25.702   0.037  54.694  1.00  0.00     0.071 A 
HETATM    7  C9  UNL     1      24.419  -0.311  54.414  1.00  0.00     0.099 A 
HETATM    8  C10 UNL     1      23.837   0.162  53.245  1.00  0.00     0.091 A 
HETATM    9  C11 UNL     1      24.584   0.962  52.423  1.00  0.00     0.052 A 
HETATM   10  C12 UNL     1      25.885   1.348  52.651  1.00  0.00     0.041 A 
HETATM   11  N4  UNL     1      22.485  -0.212  52.960  1.00  0.00    -0.254 N 
HETATM   12  C20 UNL     1      22.025  -1.491  53.523  1.00  0.00     0.183 C 
HETATM   13  C21 UNL     1      22.490  -1.731  54.916  1.00  0.00     0.198 C 
HETATM   14  O3  UNL     1      23.695  -1.124  55.272  1.00  0.00    -0.347 OA
ENDROOT
BRANCH  11  15
HETATM   15  O1  UNL     1      21.770   0.669  52.191  1.00  0.00    -0.278 OA
BRANCH  15  16
HETATM   16  C13 UNL     1      20.849   1.401  52.883  1.00  0.00     0.203 C 
BRANCH  16  17
HETATM   17  C14 UNL     1      19.867   2.136  52.008  1.00  0.00     0.059 C 
BRANCH  17  18
HETATM   18  C15 UNL     1      20.238   3.595  51.919  1.00  0.00     0.275 C 
BRANCH  18  19
HETATM   19  N5  UNL     1      21.577   3.850  51.495  1.00  0.00     0.092 N 
HETATM   20  C16 UNL     1      22.128   5.109  51.934  1.00  0.00     0.298 C 
HETATM   21  C17 UNL     1      21.554   6.201  51.060  1.00  0.00     0.198 C 
HETATM   22  O2  UNL     1      22.053   5.991  49.773  1.00  0.00    -0.388 OA
HETATM   23  C18 UNL     1      21.599   4.796  49.227  1.00  0.00     0.198 C 
HETATM   24  C19 UNL     1      21.863   3.615  50.123  1.00  0.00     0.298 C 
ENDBRANCH  18  19
ENDBRANCH  17  18
ENDBRANCH  16  17
ENDBRANCH  15  16
ENDBRANCH  11  15
BRANCH   1  25
HETATM   25  N1  UNL     1      26.058   2.635  50.644  1.00  0.00    -0.340 N 
HETATM   26  H4  UNL     1      25.423   2.072  50.079  1.00  0.00     0.167 HD
BRANCH  25  27
HETATM   27  C4  UNL     1      26.210   3.899  50.020  1.00  0.00     0.033 A 
HETATM   28  C3  UNL     1      25.364   4.999  50.204  1.00  0.00     0.029 A 
HETATM   29  C2  UNL     1      25.548   6.203  49.578  1.00  0.00     0.002 A 
HETATM   30  C1  UNL     1      26.599   6.403  48.716  1.00  0.00     0.000 A 
HETATM   31  C23 UNL     1      27.449   5.348  48.510  1.00  0.00     0.002 A 
HETATM   32  C22 UNL     1      27.237   4.148  49.154  1.00  0.00     0.029 A 
ENDBRANCH  25  27
ENDBRANCH   1  25
TORSDOF 7
ENDMDL
MODEL 5
REMARK VINA RESULT:      -8.1      1.907      2.485
REMARK  7 active torsions:
REMARK  status: ('A' for Active; 'I' for Inactive)
REMARK    1  A    between atoms: C4_4  and  N1_5 
REMARK    2  A    between atoms: N1_5  and  C5_6 
REMARK    3  A    between atoms: N4_16  and  O1_17 
REMARK    4  A    between atoms: O1_17  and  C13_18 
REMARK    5  A    between atoms: C13_18  and  C14_19 
REMARK    6  A    between atoms: C14_19  and  C15_20 
REMARK    7  A    between atoms: C15_20  and  N5_21 
ROOT
HETATM    1  C5  UNL     1      24.045  -0.216  53.703  1.00  0.00     0.142 A 
HETATM    2  N2  UNL     1      23.908  -1.144  54.646  1.00  0.00    -0.224 NA
HETATM    3  C6  UNL     1      22.796  -1.459  55.304  1.00  0.00     0.236 A 
HETATM    4  N3  UNL     1      21.698  -0.766  54.979  1.00  0.00    -0.241 NA
HETATM    5  C7  UNL     1      21.717   0.205  54.032  1.00  0.00     0.075 A 
HETATM    6  C8  UNL     1      20.532   0.857  53.774  1.00  0.00     0.071 A 
HETATM    7  C9  UNL     1      20.489   1.839  52.836  1.00  0.00     0.099 A 
HETATM    8  C10 UNL     1      21.654   2.163  52.152  1.00  0.00     0.091 A 
HETATM    9  C11 UNL     1      22.799   1.477  52.454  1.00  0.00     0.052 A 
HETATM   10  C12 UNL     1      22.906   0.476  53.392  1.00  0.00     0.041 A 
HETATM   11  N4  UNL     1      21.595   3.198  51.164  1.00  0.00    -0.254 N 
HETATM   12  C20 UNL     1      20.296   3.405  50.507  1.00  0.00     0.183 C 
HETATM   13  C21 UNL     1      19.137   3.323  51.435  1.00  0.00     0.198 C 
HETATM   14  O3  UNL     1      19.309   2.511  52.557  1.00  0.00    -0.347 OA
ENDROOT
BRANCH  11  15
HETATM   15  O1  UNL     1      22.763   3.881  50.944  1.00  0.00    -0.278 OA
BRANCH  15  16
HETATM   16  C13 UNL     1      22.927   4.984  51.731  1.00  0.00     0.203 C 
BRANCH  16  17
HETATM   17  C14 UNL     1      23.378   6.211  50.981  1.00  0.00     0.059 C 
BRANCH  17  18
HETATM   18  C15 UNL     1      24.830   6.081  50.596  1.00  0.00     0.275 C 
BRANCH  18  19
HETATM   19  N5  UNL     1      25.061   5.704  49.239  1.00  0.00     0.092 N 
HETATM   20  C16 UNL     1      25.464   4.332  49.045  1.00  0.00     0.298 C 
HETATM   21  C17 UNL     1      26.925   4.217  49.415  1.00  0.00     0.198 C 
HETATM   22  O2  UNL     1      27.638   4.962  48.474  1.00  0.00    -0.388 OA
HETATM   23  C18 UNL     1      27.338   6.319  48.548  1.00  0.00     0.198 C 
HETATM   24  C19 UNL     1      25.860   6.588  48.462  1.00  0.00     0.298 C 
ENDBRANCH  18  19
ENDBRANCH  17  18
ENDBRANCH  16  17
ENDBRANCH  15  16
ENDBRANCH  11  15
BRANCH   1  25
HETATM   25  N1  UNL     1      25.236   0.106  53.013  1.00  0.00    -0.340 N 
HETATM   26  H4  UNL     1      25.231   0.578  52.108  1.00  0.00     0.167 HD
BRANCH  25  27
HETATM   27  C4  UNL     1      26.584  -0.133  53.384  1.00  0.00     0.033 A 
HETATM   28  C3  UNL     1      27.433  -1.073  52.788  1.00  0.00     0.029 A 
HETATM   29  C2  UNL     1      28.730  -1.271  53.181  1.00  0.00     0.002 A 
HETATM   30  C1  UNL     1      29.283  -0.540  54.204  1.00  0.00     0.000 A 
HETATM   31  C23 UNL     1      28.482   0.391  54.813  1.00  0.00     0.002 A 
HETATM   32  C22 UNL     1      27.180   0.567  54.396  1.00  0.00     0.029 A 
ENDBRANCH  25  27
ENDBRANCH   1  25
TORSDOF 7
ENDMDL
MODEL 6
REMARK VINA RESULT:      -8.1      2.261      5.724
REMARK  7 active torsions:
REMARK  status: ('A' for Active; 'I' for Inactive)
REMARK    1  A    between atoms: C4_4  and  N1_5 
REMARK    2  A    between atoms: N1_5  and  C5_6 
REMARK    3  A    between atoms: N4_16  and  O1_17 
REMARK    4  A    between atoms: O1_17  and  C13_18 
REMARK    5  A    between atoms: C13_18  and  C14_19 
REMARK    6  A    between atoms: C14_19  and  C15_20 
REMARK    7  A    between atoms: C15_20  and  N5_21 
ROOT
HETATM    1  C5  UNL     1      21.946  -0.244  52.766  1.00  0.00     0.142 A 
HETATM    2  N2  UNL     1      21.040  -0.927  53.458  1.00  0.00    -0.224 NA
HETATM    3  C6  UNL     1      21.232  -1.589  54.595  1.00  0.00     0.236 A 
HETATM    4  N3  UNL     1      22.475  -1.563  55.093  1.00  0.00    -0.241 NA
HETATM    5  C7  UNL     1      23.481  -0.898  54.474  1.00  0.00     0.075 A 
HETATM    6  C8  UNL     1      24.722  -0.933  55.071  1.00  0.00     0.071 A 
HETATM    7  C9  UNL     1      25.769  -0.286  54.498  1.00  0.00     0.099 A 
HETATM    8  C10 UNL     1      25.561   0.404  53.310  1.00  0.00     0.091 A 
HETATM    9  C11 UNL     1      24.305   0.402  52.767  1.00  0.00     0.052 A 
HETATM   10  C12 UNL     1      23.206  -0.234  53.299  1.00  0.00     0.041 A 
HETATM   11  N4  UNL     1      26.672   1.084  52.716  1.00  0.00    -0.254 N 
HETATM   12  C20 UNL     1      27.731   1.536  53.632  1.00  0.00     0.183 C 
HETATM   13  C21 UNL     1      28.062   0.549  54.695  1.00  0.00     0.198 C 
HETATM   14  O3  UNL     1      27.028  -0.306  55.079  1.00  0.00    -0.347 OA
ENDROOT
BRANCH  11  15
HETATM   15  O1  UNL     1      26.621   1.237  51.355  1.00  0.00    -0.278 OA
BRANCH  15  16
HETATM   16  C13 UNL     1      26.595   2.535  50.934  1.00  0.00     0.203 C 
BRANCH  16  17
HETATM   17  C14 UNL     1      25.234   3.010  50.496  1.00  0.00     0.059 C 
BRANCH  17  18
HETATM   18  C15 UNL     1      25.370   4.068  49.430  1.00  0.00     0.275 C 
BRANCH  18  19
HETATM   19  N5  UNL     1      25.775   5.351  49.906  1.00  0.00     0.092 N 
HETATM   20  C16 UNL     1      24.735   6.128  50.535  1.00  0.00     0.298 C 
HETATM   21  C17 UNL     1      23.864   6.712  49.446  1.00  0.00     0.198 C 
HETATM   22  O2  UNL     1      24.653   7.626  48.746  1.00  0.00    -0.388 OA
HETATM   23  C18 UNL     1      25.710   7.005  48.088  1.00  0.00     0.198 C 
HETATM   24  C19 UNL     1      26.538   6.148  49.008  1.00  0.00     0.298 C 
ENDBRANCH  18  19
ENDBRANCH  17  18
ENDBRANCH  16  17
ENDBRANCH  15  16
ENDBRANCH  11  15
BRANCH   1  25
HETATM   25  N1  UNL     1      21.723   0.455  51.556  1.00  0.00    -0.340 N 
HETATM   26  H4  UNL     1      21.672  -0.019  50.654  1.00  0.00     0.167 HD
BRANCH  25  27
HETATM   27  C4  UNL     1      21.538   1.844  51.341  1.00  0.00     0.033 A 
HETATM   28  C3  UNL     1      21.644   2.493  50.105  1.00  0.00     0.029 A 
HETATM   29  C2  UNL     1      21.458   3.840  49.944  1.00  0.00     0.002 A 
HETATM   30  C1  UNL     1      21.150   4.648  51.011  1.00  0.00     0.000 A 
HETATM   31  C23 UNL     1      21.038   4.049  52.239  1.00  0.00     0.002 A 
HETATM   32  C22 UNL     1      21.231   2.691  52.370  1.00  0.00     0.029 A 
ENDBRANCH  25  27
ENDBRANCH   1  25
TORSDOF 7
ENDMDL
MODEL 7
REMARK VINA RESULT:      -7.5      5.307      9.046
REMARK  7 active torsions:
REMARK  status: ('A' for Active; 'I' for Inactive)
REMARK    1  A    between atoms: C4_4  and  N1_5 
REMARK    2  A    between atoms: N1_5  and  C5_6 
REMARK    3  A    between atoms: N4_16  and  O1_17 
REMARK    4  A    between atoms: O1_17  and  C13_18 
REMARK    5  A    between atoms: C13_18  and  C14_19 
REMARK    6  A    between atoms: C14_19  and  C15_20 
REMARK    7  A    between atoms: C15_20  and  N5_21 
ROOT
HETATM    1  C5  UNL     1      30.640   6.465  47.622  1.00  0.00     0.142 A 
HETATM    2  N2  UNL     1      31.272   7.405  46.927  1.00  0.00    -0.224 NA
HETATM    3  C6  UNL     1      30.730   8.467  46.338  1.00  0.00     0.236 A 
HETATM    4  N3  UNL     1      29.403   8.600  46.460  1.00  0.00    -0.241 NA
HETATM    5  C7  UNL     1      28.653   7.702  47.146  1.00  0.00     0.075 A 
HETATM    6  C8  UNL     1      27.297   7.931  47.211  1.00  0.00     0.071 A 
HETATM    7  C9  UNL     1      26.494   7.067  47.884  1.00  0.00     0.099 A 
HETATM    8  C10 UNL     1      27.067   5.960  48.497  1.00  0.00     0.091 A 
HETATM    9  C11 UNL     1      28.421   5.788  48.396  1.00  0.00     0.052 A 
HETATM   10  C12 UNL     1      29.286   6.627  47.730  1.00  0.00     0.041 A 
HETATM   11  N4  UNL     1      26.211   5.056  49.205  1.00  0.00    -0.254 N 
HETATM   12  C20 UNL     1      24.974   5.625  49.762  1.00  0.00     0.183 C 
HETATM   13  C21 UNL     1      24.298   6.589  48.853  1.00  0.00     0.198 C 
HETATM   14  O3  UNL     1      25.126   7.276  47.964  1.00  0.00    -0.347 OA
ENDROOT
BRANCH  11  15
HETATM   15  O1  UNL     1      26.644   3.759  49.282  1.00  0.00    -0.278 OA
BRANCH  15  16
HETATM   16  C13 UNL     1      26.618   3.229  50.540  1.00  0.00     0.203 C 
BRANCH  16  17
HETATM   17  C14 UNL     1      25.394   2.400  50.830  1.00  0.00     0.059 C 
BRANCH  17  18
HETATM   18  C15 UNL     1      25.446   1.872  52.242  1.00  0.00     0.275 C 
BRANCH  18  19
HETATM   19  N5  UNL     1      26.668   1.226  52.598  1.00  0.00     0.092 N 
HETATM   20  C16 UNL     1      26.797  -0.135  52.137  1.00  0.00     0.298 C 
HETATM   21  C17 UNL     1      25.968  -1.016  53.043  1.00  0.00     0.198 C 
HETATM   22  O2  UNL     1      26.571  -0.980  54.302  1.00  0.00    -0.388 OA
HETATM   23  C18 UNL     1      26.521   0.291  54.866  1.00  0.00     0.198 C 
HETATM   24  C19 UNL     1      27.080   1.350  53.953  1.00  0.00     0.298 C 
ENDBRANCH  18  19
ENDBRANCH  17  18
ENDBRANCH  16  17
ENDBRANCH  15  16
ENDBRANCH  11  15
BRANCH   1  25
HETATM   25  N1  UNL     1      31.234   5.341  48.242  1.00  0.00    -0.340 N 
HETATM   26  H4  UNL     1      30.829   4.896  49.067  1.00  0.00     0.167 HD
BRANCH  25  27
HETATM   27  C4  UNL     1      32.417   4.642  47.894  1.00  0.00     0.033 A 
HETATM   28  C3  UNL     1      33.714   5.001  48.283  1.00  0.00     0.029 A 
HETATM   29  C2  UNL     1      34.830   4.296  47.922  1.00  0.00     0.002 A 
HETATM   30  C1  UNL     1      34.738   3.170  47.141  1.00  0.00     0.000 A 
HETATM   31  C23 UNL     1      33.486   2.787  46.739  1.00  0.00     0.002 A 
HETATM   32  C22 UNL     1      32.380   3.517  47.119  1.00  0.00     0.029 A 
ENDBRANCH  25  27
ENDBRANCH   1  25
TORSDOF 7
ENDMDL
MODEL 8
REMARK VINA RESULT:      -7.5      3.518      5.007
REMARK  7 active torsions:
REMARK  status: ('A' for Active; 'I' for Inactive)
REMARK    1  A    between atoms: C4_4  and  N1_5 
REMARK    2  A    between atoms: N1_5  and  C5_6 
REMARK    3  A    between atoms: N4_16  and  O1_17 
REMARK    4  A    between atoms: O1_17  and  C13_18 
REMARK    5  A    between atoms: C13_18  and  C14_19 
REMARK    6  A    between atoms: C14_19  and  C15_20 
REMARK    7  A    between atoms: C15_20  and  N5_21 
ROOT
HETATM    1  C5  UNL     1      24.392   1.132  52.200  1.00  0.00     0.142 A 
HETATM    2  N2  UNL     1      23.736   0.175  52.849  1.00  0.00    -0.224 NA
HETATM    3  C6  UNL     1      22.475   0.212  53.269  1.00  0.00     0.236 A 
HETATM    4  N3  UNL     1      21.795   1.336  53.008  1.00  0.00    -0.241 NA
HETATM    5  C7  UNL     1      22.361   2.379  52.352  1.00  0.00     0.075 A 
HETATM    6  C8  UNL     1      21.574   3.488  52.135  1.00  0.00     0.071 A 
HETATM    7  C9  UNL     1      22.085   4.565  51.483  1.00  0.00     0.099 A 
HETATM    8  C10 UNL     1      23.403   4.520  51.046  1.00  0.00     0.091 A 
HETATM    9  C11 UNL     1      24.132   3.388  51.293  1.00  0.00     0.052 A 
HETATM   10  C12 UNL     1      23.672   2.268  51.947  1.00  0.00     0.041 A 
HETATM   11  N4  UNL     1      23.930   5.660  50.359  1.00  0.00    -0.254 N 
HETATM   12  C20 UNL     1      22.961   6.493  49.630  1.00  0.00     0.183 C 
HETATM   13  C21 UNL     1      21.685   6.705  50.364  1.00  0.00     0.198 C 
HETATM   14  O3  UNL     1      21.314   5.694  51.251  1.00  0.00    -0.347 OA
ENDROOT
BRANCH  11  15
HETATM   15  O1  UNL     1      25.284   5.846  50.460  1.00  0.00    -0.278 OA
BRANCH  15  16
HETATM   16  C13 UNL     1      25.800   6.732  49.559  1.00  0.00     0.203 C 
BRANCH  16  17
HETATM   17  C14 UNL     1      26.799   6.127  48.607  1.00  0.00     0.059 C 
BRANCH  17  18
HETATM   18  C15 UNL     1      28.018   7.009  48.500  1.00  0.00     0.275 C 
BRANCH  18  19
HETATM   19  N5  UNL     1      28.991   6.577  47.551  1.00  0.00     0.092 N 
HETATM   20  C16 UNL     1      29.987   5.668  48.065  1.00  0.00     0.298 C 
HETATM   21  C17 UNL     1      30.992   6.475  48.855  1.00  0.00     0.198 C 
HETATM   22  O2  UNL     1      31.657   7.295  47.943  1.00  0.00    -0.388 OA
HETATM   23  C18 UNL     1      30.803   8.227  47.362  1.00  0.00     0.198 C 
HETATM   24  C19 UNL     1      29.586   7.589  46.748  1.00  0.00     0.298 C 
ENDBRANCH  18  19
ENDBRANCH  17  18
ENDBRANCH  16  17
ENDBRANCH  15  16
ENDBRANCH  11  15
BRANCH   1  25
HETATM   25  N1  UNL     1      25.735   1.076  51.760  1.00  0.00    -0.340 N 
HETATM   26  H4  UNL     1      25.984   1.052  50.771  1.00  0.00     0.167 HD
BRANCH  25  27
HETATM   27  C4  UNL     1      26.931   1.040  52.521  1.00  0.00     0.033 A 
HETATM   28  C3  UNL     1      27.645   2.162  52.959  1.00  0.00     0.029 A 
HETATM   29  C2  UNL     1      28.798   2.080  53.693  1.00  0.00     0.002 A 
HETATM   30  C1  UNL     1      29.330   0.864  54.048  1.00  0.00     0.000 A 
HETATM   31  C23 UNL     1      28.660  -0.258  53.637  1.00  0.00     0.002 A 
HETATM   32  C22 UNL     1      27.501  -0.143  52.899  1.00  0.00     0.029 A 
ENDBRANCH  25  27
ENDBRANCH   1  25
TORSDOF 7
ENDMDL
MODEL 9
REMARK VINA RESULT:      -7.4      2.033      5.708
REMARK  7 active torsions:
REMARK  status: ('A' for Active; 'I' for Inactive)
REMARK    1  A    between atoms: C4_4  and  N1_5 
REMARK    2  A    between atoms: N1_5  and  C5_6 
REMARK    3  A    between atoms: N4_16  and  O1_17 
REMARK    4  A    between atoms: O1_17  and  C13_18 
REMARK    5  A    between atoms: C13_18  and  C14_19 
REMARK    6  A    between atoms: C14_19  and  C15_20 
REMARK    7  A    between atoms: C15_20  and  N5_21 
ROOT
HETATM    1  C5  UNL     1      26.010   3.446  50.794  1.00  0.00     0.142 A 
HETATM    2  N2  UNL     1      27.143   3.734  50.162  1.00  0.00    -0.224 NA
HETATM    3  C6  UNL     1      27.289   4.513  49.094  1.00  0.00     0.236 A 
HETATM    4  N3  UNL     1      26.171   5.064  48.605  1.00  0.00    -0.241 NA
HETATM    5  C7  UNL     1      24.957   4.842  49.167  1.00  0.00     0.075 A 
HETATM    6  C8  UNL     1      23.871   5.458  48.587  1.00  0.00     0.071 A 
HETATM    7  C9  UNL     1      22.629   5.274  49.106  1.00  0.00     0.099 A 
HETATM    8  C10 UNL     1      22.484   4.460  50.223  1.00  0.00     0.091 A 
HETATM    9  C11 UNL     1      23.603   3.877  50.753  1.00  0.00     0.052 A 
HETATM   10  C12 UNL     1      24.885   4.025  50.273  1.00  0.00     0.041 A 
HETATM   11  N4  UNL     1      21.171   4.275  50.762  1.00  0.00    -0.254 N 
HETATM   12  C20 UNL     1      20.210   5.366  50.541  1.00  0.00     0.183 C 
HETATM   13  C21 UNL     1      20.279   5.955  49.176  1.00  0.00     0.198 C 
HETATM   14  O3  UNL     1      21.519   5.883  48.541  1.00  0.00    -0.347 OA
ENDROOT
BRANCH  11  15
HETATM   15  O1  UNL     1      20.958   3.095  51.425  1.00  0.00    -0.278 OA
BRANCH  15  16
HETATM   16  C13 UNL     1      20.430   2.101  50.652  1.00  0.00     0.203 C 
BRANCH  16  17
HETATM   17  C14 UNL     1      21.312   0.886  50.529  1.00  0.00     0.059 C 
BRANCH  17  18
HETATM   18  C15 UNL     1      22.003   0.608  51.841  1.00  0.00     0.275 C 
BRANCH  18  19
HETATM   19  N5  UNL     1      21.569  -0.574  52.511  1.00  0.00     0.092 N 
HETATM   20  C16 UNL     1      20.386  -0.419  53.322  1.00  0.00     0.298 C 
HETATM   21  C17 UNL     1      20.788   0.265  54.609  1.00  0.00     0.198 C 
HETATM   22  O2  UNL     1      21.611  -0.627  55.299  1.00  0.00    -0.388 OA
HETATM   23  C18 UNL     1      22.799  -0.873  54.618  1.00  0.00     0.198 C 
HETATM   24  C19 UNL     1      22.568  -1.317  53.198  1.00  0.00     0.298 C 
ENDBRANCH  18  19
ENDBRANCH  17  18
ENDBRANCH  16  17
ENDBRANCH  15  16
ENDBRANCH  11  15
BRANCH   1  25
HETATM   25  N1  UNL     1      25.874   2.616  51.931  1.00  0.00    -0.340 N 
HETATM   26  H4  UNL     1      25.090   2.703  52.579  1.00  0.00     0.167 HD
BRANCH  25  27
HETATM   27  C4  UNL     1      26.716   1.571  52.389  1.00  0.00     0.033 A 
HETATM   28  C3  UNL     1      26.482   0.203  52.205  1.00  0.00     0.029 A 
HETATM   29  C2  UNL     1      27.324  -0.774  52.666  1.00  0.00     0.002 A 
HETATM   30  C1  UNL     1      28.473  -0.457  53.349  1.00  0.00     0.000 A 
HETATM   31  C23 UNL     1      28.737   0.872  53.549  1.00  0.00     0.002 A 
HETATM   32  C22 UNL     1      27.870   1.833  53.074  1.00  0.00     0.029 A 
ENDBRANCH  25  27
ENDBRANCH   1  25
TORSDOF 7
ENDMDL
