MODEL 1
REMARK VINA RESULT:      -8.5      0.000      0.000
REMARK  4 active torsions:
REMARK  status: ('A' for Active; 'I' for Inactive)
REMARK    1  A    between atoms: N1_2  and  C2_3 
REMARK    2  A    between atoms: C8_11  and  N3_12 
REMARK    3  A    between atoms: N3_12  and  C9_13 
REMARK    4  A    between atoms: C13_17  and  C14_18 
ROOT
HETATM    1  C2  UNL     1      19.608   0.919  50.481  1.00  0.00     0.051 A 
HETATM    2  C3  UNL     1      19.978   0.213  51.581  1.00  0.00     0.063 A 
HETATM    3  C4  UNL     1      21.281   0.244  51.962  1.00  0.00     0.071 A 
HETATM    4  C5  UNL     1      22.197   0.963  51.242  1.00  0.00     0.088 A 
HETATM    5  C6  UNL     1      21.934   1.722  50.089  1.00  0.00     0.060 A 
HETATM    6  C7  UNL     1      20.583   1.609  49.831  1.00  0.00     0.062 A 
HETATM    7 CL1  UNL     1      20.296   2.659  48.409  1.00  0.00    -0.082 Cl
HETATM    8  N2  UNL     1      23.435   0.946  51.807  1.00  0.00    -0.227 NA
HETATM    9  C8  UNL     1      23.763   0.320  52.929  1.00  0.00     0.157 A 
HETATM   10  C16 UNL     1      22.771  -0.373  53.589  1.00  0.00     0.104 A 
HETATM   11  C17 UNL     1      22.781  -1.115  54.790  1.00  0.00     0.151 A 
HETATM   12  N4  UNL     1      21.525  -1.576  54.985  1.00  0.00    -0.253 NA
HETATM   13  C18 UNL     1      20.756  -1.162  53.985  1.00  0.00     0.215 A 
HETATM   14  N5  UNL     1      21.507  -0.442  53.147  1.00  0.00    -0.299 N 
ENDROOT
BRANCH   9  15
HETATM   15  N3  UNL     1      25.026   0.381  53.439  1.00  0.00    -0.339 N 
HETATM   16  H7  UNL     1      24.875  -0.086  54.383  1.00  0.00     0.167 HD
BRANCH  15  17
HETATM   17  C9  UNL     1      26.356   0.651  53.506  1.00  0.00     0.034 A 
HETATM   18  C10 UNL     1      27.100   1.722  53.566  1.00  0.00     0.029 A 
HETATM   19  C11 UNL     1      28.305   2.311  53.633  1.00  0.00     0.003 A 
HETATM   20  C12 UNL     1      29.135   1.164  53.627  1.00  0.00     0.010 A 
HETATM   21  C13 UNL     1      28.718  -0.176  53.567  1.00  0.00    -0.028 A 
HETATM   22  C15 UNL     1      27.330  -0.428  53.506  1.00  0.00     0.039 A 
BRANCH  21  23
HETATM   23  C14 UNL     1      29.667  -1.333  53.533  1.00  0.00     0.261 C 
HETATM   24  F1  UNL     1      28.976  -2.488  53.180  1.00  0.00    -0.251 F 
ENDBRANCH  21  23
ENDBRANCH  15  17
ENDBRANCH   9  15
BRANCH   1  25
HETATM   25  N1  UNL     1      18.356   1.201  49.746  1.00  0.00    -0.393 N 
HETATM   26  C1  UNL     1      17.215   1.455  49.108  1.00  0.00     0.146 C 
HETATM   27  H4  UNL     1      17.853   1.165  50.658  1.00  0.00     0.159 HD
ENDBRANCH   1  25
TORSDOF 4
ENDMDL
MODEL 2
REMARK VINA RESULT:      -8.1      2.329      3.522
REMARK  4 active torsions:
REMARK  status: ('A' for Active; 'I' for Inactive)
REMARK    1  A    between atoms: N1_2  and  C2_3 
REMARK    2  A    between atoms: C8_11  and  N3_12 
REMARK    3  A    between atoms: N3_12  and  C9_13 
REMARK    4  A    between atoms: C13_17  and  C14_18 
ROOT
HETATM    1  C2  UNL     1      18.811  -0.133  52.218  1.00  0.00     0.051 A 
HETATM    2  C3  UNL     1      19.854   0.616  51.773  1.00  0.00     0.063 A 
HETATM    3  C4  UNL     1      21.081   0.404  52.314  1.00  0.00     0.071 A 
HETATM    4  C5  UNL     1      21.253  -0.537  53.295  1.00  0.00     0.088 A 
HETATM    5  C6  UNL     1      20.253  -1.363  53.836  1.00  0.00     0.060 A 
HETATM    6  C7  UNL     1      19.075  -1.048  53.189  1.00  0.00     0.062 A 
HETATM    7 CL1  UNL     1      17.863  -2.183  53.859  1.00  0.00    -0.082 Cl
HETATM    8  N2  UNL     1      22.556  -0.671  53.667  1.00  0.00    -0.227 NA
HETATM    9  C8  UNL     1      23.576   0.009  53.163  1.00  0.00     0.157 A 
HETATM   10  C16 UNL     1      23.306   0.930  52.175  1.00  0.00     0.104 A 
HETATM   11  C17 UNL     1      24.147   1.787  51.432  1.00  0.00     0.151 A 
HETATM   12  N4  UNL     1      23.359   2.477  50.576  1.00  0.00    -0.253 NA
HETATM   13  C18 UNL     1      22.100   2.093  50.749  1.00  0.00     0.215 A 
HETATM   14  N5  UNL     1      22.070   1.167  51.711  1.00  0.00    -0.299 N 
ENDROOT
BRANCH   9  15
HETATM   15  N3  UNL     1      24.857  -0.211  53.577  1.00  0.00    -0.339 N 
HETATM   16  H7  UNL     1      24.704  -0.322  54.624  1.00  0.00     0.167 HD
BRANCH  15  17
HETATM   17  C9  UNL     1      26.202  -0.386  53.502  1.00  0.00     0.034 A 
HETATM   18  C10 UNL     1      27.011  -1.346  53.144  1.00  0.00     0.029 A 
HETATM   19  C11 UNL     1      28.251  -1.827  52.958  1.00  0.00     0.003 A 
HETATM   20  C12 UNL     1      29.010  -0.707  53.377  1.00  0.00     0.010 A 
HETATM   21  C13 UNL     1      28.510   0.522  53.840  1.00  0.00    -0.028 A 
HETATM   22  C15 UNL     1      27.108   0.678  53.901  1.00  0.00     0.039 A 
BRANCH  21  23
HETATM   23  C14 UNL     1      29.385   1.647  54.295  1.00  0.00     0.261 C 
HETATM   24  F1  UNL     1      28.800   2.859  53.947  1.00  0.00    -0.251 F 
ENDBRANCH  21  23
ENDBRANCH  15  17
ENDBRANCH   9  15
BRANCH   1  25
HETATM   25  N1  UNL     1      17.371  -0.275  51.911  1.00  0.00    -0.393 N 
HETATM   26  C1  UNL     1      16.075  -0.378  51.622  1.00  0.00     0.146 C 
HETATM   27  H4  UNL     1      17.409   0.665  51.463  1.00  0.00     0.159 HD
ENDBRANCH   1  25
TORSDOF 4
ENDMDL
MODEL 3
REMARK VINA RESULT:      -8.0      2.125      3.197
REMARK  4 active torsions:
REMARK  status: ('A' for Active; 'I' for Inactive)
REMARK    1  A    between atoms: N1_2  and  C2_3 
REMARK    2  A    between atoms: C8_11  and  N3_12 
REMARK    3  A    between atoms: N3_12  and  C9_13 
REMARK    4  A    between atoms: C13_17  and  C14_18 
ROOT
HETATM    1  C2  UNL     1      18.843  -0.134  52.354  1.00  0.00     0.051 A 
HETATM    2  C3  UNL     1      19.796   0.692  51.848  1.00  0.00     0.063 A 
HETATM    3  C4  UNL     1      21.073   0.550  52.284  1.00  0.00     0.071 A 
HETATM    4  C5  UNL     1      21.384  -0.400  53.221  1.00  0.00     0.088 A 
HETATM    5  C6  UNL     1      20.487  -1.302  53.817  1.00  0.00     0.060 A 
HETATM    6  C7  UNL     1      19.243  -1.052  53.274  1.00  0.00     0.062 A 
HETATM    7 CL1  UNL     1      18.165  -2.280  54.006  1.00  0.00    -0.082 Cl
HETATM    8  N2  UNL     1      22.719  -0.456  53.485  1.00  0.00    -0.227 NA
HETATM    9  C8  UNL     1      23.649   0.302  52.921  1.00  0.00     0.157 A 
HETATM   10  C16 UNL     1      23.242   1.226  51.983  1.00  0.00     0.104 A 
HETATM   11  C17 UNL     1      23.963   2.153  51.201  1.00  0.00     0.151 A 
HETATM   12  N4  UNL     1      23.066   2.808  50.429  1.00  0.00    -0.253 NA
HETATM   13  C18 UNL     1      21.852   2.338  50.691  1.00  0.00     0.215 A 
HETATM   14  N5  UNL     1      21.960   1.390  51.626  1.00  0.00    -0.299 N 
ENDROOT
BRANCH   9  15
HETATM   15  N3  UNL     1      24.971   0.158  53.226  1.00  0.00    -0.339 N 
HETATM   16  H7  UNL     1      24.977  -0.843  53.585  1.00  0.00     0.167 HD
BRANCH  15  17
HETATM   17  C9  UNL     1      26.285   0.477  53.355  1.00  0.00     0.034 A 
HETATM   18  C10 UNL     1      26.980   1.570  53.521  1.00  0.00     0.029 A 
HETATM   19  C11 UNL     1      28.155   2.201  53.672  1.00  0.00     0.003 A 
HETATM   20  C12 UNL     1      29.034   1.094  53.605  1.00  0.00     0.010 A 
HETATM   21  C13 UNL     1      28.678  -0.254  53.428  1.00  0.00    -0.028 A 
HETATM   22  C15 UNL     1      27.305  -0.558  53.303  1.00  0.00     0.039 A 
BRANCH  21  23
HETATM   23  C14 UNL     1      29.678  -1.364  53.335  1.00  0.00     0.261 C 
HETATM   24  F1  UNL     1      30.665  -1.179  54.296  1.00  0.00    -0.251 F 
ENDBRANCH  21  23
ENDBRANCH  15  17
ENDBRANCH   9  15
BRANCH   1  25
HETATM   25  N1  UNL     1      17.394  -0.364  52.158  1.00  0.00    -0.393 N 
HETATM   26  C1  UNL     1      16.086  -0.556  52.005  1.00  0.00     0.146 C 
HETATM   27  H4  UNL     1      17.226   0.165  53.040  1.00  0.00     0.159 HD
ENDBRANCH   1  25
TORSDOF 4
ENDMDL
MODEL 4
REMARK VINA RESULT:      -8.0      4.750      6.176
REMARK  4 active torsions:
REMARK  status: ('A' for Active; 'I' for Inactive)
REMARK    1  A    between atoms: N1_2  and  C2_3 
REMARK    2  A    between atoms: C8_11  and  N3_12 
REMARK    3  A    between atoms: N3_12  and  C9_13 
REMARK    4  A    between atoms: C13_17  and  C14_18 
ROOT
HETATM    1  C2  UNL     1      25.923   7.040  48.771  1.00  0.00     0.051 A 
HETATM    2  C3  UNL     1      25.026   6.464  49.613  1.00  0.00     0.063 A 
HETATM    3  C4  UNL     1      25.278   5.209  50.065  1.00  0.00     0.071 A 
HETATM    4  C5  UNL     1      26.405   4.541  49.667  1.00  0.00     0.088 A 
HETATM    5  C6  UNL     1      27.395   5.030  48.799  1.00  0.00     0.060 A 
HETATM    6  C7  UNL     1      27.017   6.306  48.434  1.00  0.00     0.062 A 
HETATM    7 CL1  UNL     1      28.352   6.905  47.401  1.00  0.00    -0.082 Cl
HETATM    8  N2  UNL     1      26.537   3.330  50.275  1.00  0.00    -0.227 NA
HETATM    9  C8  UNL     1      25.695   2.816  51.161  1.00  0.00     0.157 A 
HETATM   10  C16 UNL     1      24.591   3.564  51.505  1.00  0.00     0.104 A 
HETATM   11  C17 UNL     1      23.534   3.322  52.409  1.00  0.00     0.151 A 
HETATM   12  N4  UNL     1      22.719   4.400  52.370  1.00  0.00    -0.253 NA
HETATM   13  C18 UNL     1      23.212   5.279  51.505  1.00  0.00     0.215 A 
HETATM   14  N5  UNL     1      24.334   4.773  50.986  1.00  0.00    -0.299 N 
ENDROOT
BRANCH   9  15
HETATM   15  N3  UNL     1      25.921   1.603  51.742  1.00  0.00    -0.339 N 
HETATM   16  H7  UNL     1      24.941   1.365  52.079  1.00  0.00     0.167 HD
BRANCH  15  17
HETATM   17  C9  UNL     1      26.601   0.502  52.158  1.00  0.00     0.034 A 
HETATM   18  C10 UNL     1      26.398  -0.787  52.166  1.00  0.00     0.029 A 
HETATM   19  C11 UNL     1      26.795  -2.036  52.459  1.00  0.00     0.003 A 
HETATM   20  C12 UNL     1      28.049  -1.757  53.055  1.00  0.00     0.010 A 
HETATM   21  C13 UNL     1      28.629  -0.490  53.240  1.00  0.00    -0.028 A 
HETATM   22  C15 UNL     1      27.903   0.635  52.791  1.00  0.00     0.039 A 
BRANCH  21  23
HETATM   23  C14 UNL     1      29.951  -0.280  53.910  1.00  0.00     0.261 C 
HETATM   24  F1  UNL     1      30.574  -1.508  54.100  1.00  0.00    -0.251 F 
ENDBRANCH  21  23
ENDBRANCH  15  17
ENDBRANCH   9  15
BRANCH   1  25
HETATM   25  N1  UNL     1      26.083   8.341  48.085  1.00  0.00    -0.393 N 
HETATM   26  C1  UNL     1      26.217   9.525  47.490  1.00  0.00     0.146 C 
HETATM   27  H4  UNL     1      25.652   8.795  48.918  1.00  0.00     0.159 HD
ENDBRANCH   1  25
TORSDOF 4
ENDMDL
MODEL 5
REMARK VINA RESULT:      -7.9      5.428      7.426
REMARK  4 active torsions:
REMARK  status: ('A' for Active; 'I' for Inactive)
REMARK    1  A    between atoms: N1_2  and  C2_3 
REMARK    2  A    between atoms: C8_11  and  N3_12 
REMARK    3  A    between atoms: N3_12  and  C9_13 
REMARK    4  A    between atoms: C13_17  and  C14_18 
ROOT
HETATM    1  C2  UNL     1      27.511   7.537  48.396  1.00  0.00     0.051 A 
HETATM    2  C3  UNL     1      26.339   7.336  49.052  1.00  0.00     0.063 A 
HETATM    3  C4  UNL     1      26.023   6.074  49.440  1.00  0.00     0.071 A 
HETATM    4  C5  UNL     1      26.866   5.031  49.162  1.00  0.00     0.088 A 
HETATM    5  C6  UNL     1      28.095   5.116  48.487  1.00  0.00     0.060 A 
HETATM    6  C7  UNL     1      28.289   6.445  48.168  1.00  0.00     0.062 A 
HETATM    7 CL1  UNL     1      29.901   6.502  47.389  1.00  0.00    -0.082 Cl
HETATM    8  N2  UNL     1      26.432   3.853  49.690  1.00  0.00    -0.227 NA
HETATM    9  C8  UNL     1      25.325   3.688  50.401  1.00  0.00     0.157 A 
HETATM   10  C16 UNL     1      24.542   4.797  50.636  1.00  0.00     0.104 A 
HETATM   11  C17 UNL     1      23.339   4.965  51.354  1.00  0.00     0.151 A 
HETATM   12  N4  UNL     1      23.007   6.274  51.278  1.00  0.00    -0.253 NA
HETATM   13  C18 UNL     1      23.929   6.909  50.563  1.00  0.00     0.215 A 
HETATM   14  N5  UNL     1      24.848   6.020  50.177  1.00  0.00    -0.299 N 
ENDROOT
BRANCH   9  15
HETATM   15  N3  UNL     1      24.981   2.473  50.916  1.00  0.00    -0.339 N 
HETATM   16  H7  UNL     1      24.323   2.122  50.158  1.00  0.00     0.167 HD
BRANCH  15  17
HETATM   17  C9  UNL     1      24.950   1.423  51.779  1.00  0.00     0.034 A 
HETATM   18  C10 UNL     1      24.095   0.924  52.628  1.00  0.00     0.029 A 
HETATM   19  C11 UNL     1      23.753   0.006  53.547  1.00  0.00     0.003 A 
HETATM   20  C12 UNL     1      24.940  -0.766  53.570  1.00  0.00     0.010 A 
HETATM   21  C13 UNL     1      26.098  -0.551  52.804  1.00  0.00    -0.028 A 
HETATM   22  C15 UNL     1      26.099   0.543  51.911  1.00  0.00     0.039 A 
BRANCH  21  23
HETATM   23  C14 UNL     1      27.326  -1.400  52.912  1.00  0.00     0.261 C 
HETATM   24  F1  UNL     1      27.102  -2.621  52.286  1.00  0.00    -0.251 F 
ENDBRANCH  21  23
ENDBRANCH  15  17
ENDBRANCH   9  15
BRANCH   1  25
HETATM   25  N1  UNL     1      28.259   8.687  47.841  1.00  0.00    -0.393 N 
HETATM   26  C1  UNL     1      28.907   9.735  47.336  1.00  0.00     0.146 C 
HETATM   27  H4  UNL     1      27.342   9.127  47.611  1.00  0.00     0.159 HD
ENDBRANCH   1  25
TORSDOF 4
ENDMDL
MODEL 6
REMARK VINA RESULT:      -7.9      5.404      7.098
REMARK  4 active torsions:
REMARK  status: ('A' for Active; 'I' for Inactive)
REMARK    1  A    between atoms: N1_2  and  C2_3 
REMARK    2  A    between atoms: C8_11  and  N3_12 
REMARK    3  A    between atoms: N3_12  and  C9_13 
REMARK    4  A    between atoms: C13_17  and  C14_18 
ROOT
HETATM    1  C2  UNL     1      23.841   0.773  52.767  1.00  0.00     0.051 A 
HETATM    2  C3  UNL     1      23.525   1.817  51.956  1.00  0.00     0.063 A 
HETATM    3  C4  UNL     1      24.535   2.495  51.352  1.00  0.00     0.071 A 
HETATM    4  C5  UNL     1      25.838   2.135  51.569  1.00  0.00     0.088 A 
HETATM    5  C6  UNL     1      26.284   1.083  52.387  1.00  0.00     0.060 A 
HETATM    6  C7  UNL     1      25.161   0.483  52.919  1.00  0.00     0.062 A 
HETATM    7 CL1  UNL     1      25.785  -0.893  53.879  1.00  0.00    -0.082 Cl
HETATM    8  N2  UNL     1      26.712   2.869  50.826  1.00  0.00    -0.227 NA
HETATM    9  C8  UNL     1      26.384   3.831  49.975  1.00  0.00     0.157 A 
HETATM   10  C16 UNL     1      25.045   4.118  49.817  1.00  0.00     0.104 A 
HETATM   11  C17 UNL     1      24.372   5.049  48.997  1.00  0.00     0.151 A 
HETATM   12  N4  UNL     1      23.048   4.900  49.227  1.00  0.00    -0.253 NA
HETATM   13  C18 UNL     1      22.875   3.942  50.130  1.00  0.00     0.215 A 
HETATM   14  N5  UNL     1      24.075   3.476  50.484  1.00  0.00    -0.299 N 
ENDROOT
BRANCH   9  15
HETATM   15  N3  UNL     1      27.327   4.497  49.249  1.00  0.00    -0.339 N 
HETATM   16  H7  UNL     1      28.095   3.762  49.210  1.00  0.00     0.167 HD
BRANCH  15  17
HETATM   17  C9  UNL     1      27.907   5.500  48.538  1.00  0.00     0.034 A 
HETATM   18  C10 UNL     1      27.520   6.629  48.010  1.00  0.00     0.029 A 
HETATM   19  C11 UNL     1      27.779   7.749  47.317  1.00  0.00     0.003 A 
HETATM   20  C12 UNL     1      29.154   7.554  47.046  1.00  0.00     0.010 A 
HETATM   21  C13 UNL     1      29.941   6.458  47.439  1.00  0.00    -0.028 A 
HETATM   22  C15 UNL     1      29.315   5.434  48.183  1.00  0.00     0.039 A 
BRANCH  21  23
HETATM   23  C14 UNL     1      31.388   6.313  47.082  1.00  0.00     0.261 C 
HETATM   24  F1  UNL     1      31.732   4.966  47.082  1.00  0.00    -0.251 F 
ENDBRANCH  21  23
ENDBRANCH  15  17
ENDBRANCH   9  15
BRANCH   1  25
HETATM   25  N1  UNL     1      23.112  -0.234  53.569  1.00  0.00    -0.393 N 
HETATM   26  C1  UNL     1      22.439  -1.146  54.268  1.00  0.00     0.146 C 
HETATM   27  H4  UNL     1      22.469  -0.363  52.759  1.00  0.00     0.159 HD
ENDBRANCH   1  25
TORSDOF 4
ENDMDL
MODEL 7
REMARK VINA RESULT:      -7.8      3.996      8.179
REMARK  4 active torsions:
REMARK  status: ('A' for Active; 'I' for Inactive)
REMARK    1  A    between atoms: N1_2  and  C2_3 
REMARK    2  A    between atoms: C8_11  and  N3_12 
REMARK    3  A    between atoms: N3_12  and  C9_13 
REMARK    4  A    between atoms: C13_17  and  C14_18 
ROOT
HETATM    1  C2  UNL     1      25.960   1.717  53.281  1.00  0.00     0.051 A 
HETATM    2  C3  UNL     1      24.784   2.264  52.876  1.00  0.00     0.063 A 
HETATM    3  C4  UNL     1      23.656   1.516  52.971  1.00  0.00     0.071 A 
HETATM    4  C5  UNL     1      23.712   0.236  53.454  1.00  0.00     0.088 A 
HETATM    5  C6  UNL     1      24.865  -0.435  53.895  1.00  0.00     0.060 A 
HETATM    6  C7  UNL     1      25.921   0.442  53.754  1.00  0.00     0.062 A 
HETATM    7 CL1  UNL     1      27.339  -0.434  54.406  1.00  0.00    -0.082 Cl
HETATM    8  N2  UNL     1      22.481  -0.339  53.553  1.00  0.00    -0.227 NA
HETATM    9  C8  UNL     1      21.332   0.238  53.231  1.00  0.00     0.157 A 
HETATM   10  C16 UNL     1      21.374   1.532  52.759  1.00  0.00     0.104 A 
HETATM   11  C17 UNL     1      20.355   2.420  52.355  1.00  0.00     0.151 A 
HETATM   12  N4  UNL     1      20.953   3.577  51.992  1.00  0.00    -0.253 NA
HETATM   13  C18 UNL     1      22.265   3.449  52.152  1.00  0.00     0.215 A 
HETATM   14  N5  UNL     1      22.516   2.220  52.610  1.00  0.00    -0.299 N 
ENDROOT
BRANCH   9  15
HETATM   15  N3  UNL     1      20.139  -0.405  53.389  1.00  0.00    -0.339 N 
HETATM   16  H7  UNL     1      20.220  -0.713  54.404  1.00  0.00     0.167 HD
BRANCH  15  17
HETATM   17  C9  UNL     1      18.911  -0.895  53.077  1.00  0.00     0.034 A 
HETATM   18  C10 UNL     1      17.874  -0.483  52.401  1.00  0.00     0.029 A 
HETATM   19  C11 UNL     1      16.630  -0.671  51.931  1.00  0.00     0.003 A 
HETATM   20  C12 UNL     1      16.360  -1.953  52.467  1.00  0.00     0.010 A 
HETATM   21  C13 UNL     1      17.221  -2.733  53.257  1.00  0.00    -0.028 A 
HETATM   22  C15 UNL     1      18.494  -2.201  53.560  1.00  0.00     0.039 A 
BRANCH  21  23
HETATM   23  C14 UNL     1      16.843  -4.071  53.812  1.00  0.00     0.261 C 
HETATM   24  F1  UNL     1      16.474  -4.916  52.771  1.00  0.00    -0.251 F 
ENDBRANCH  21  23
ENDBRANCH  15  17
ENDBRANCH   9  15
BRANCH   1  25
HETATM   25  N1  UNL     1      27.372   2.146  53.395  1.00  0.00    -0.393 N 
HETATM   26  C1  UNL     1      28.650   2.505  53.496  1.00  0.00     0.146 C 
HETATM   27  H4  UNL     1      27.643   1.139  53.376  1.00  0.00     0.159 HD
ENDBRANCH   1  25
TORSDOF 4
ENDMDL
MODEL 8
REMARK VINA RESULT:      -7.6      7.552      9.447
REMARK  4 active torsions:
REMARK  status: ('A' for Active; 'I' for Inactive)
REMARK    1  A    between atoms: N1_2  and  C2_3 
REMARK    2  A    between atoms: C8_11  and  N3_12 
REMARK    3  A    between atoms: N3_12  and  C9_13 
REMARK    4  A    between atoms: C13_17  and  C14_18 
ROOT
HETATM    1  C2  UNL     1      24.888   5.649  49.187  1.00  0.00     0.051 A 
HETATM    2  C3  UNL     1      25.776   6.574  48.736  1.00  0.00     0.063 A 
HETATM    3  C4  UNL     1      27.062   6.189  48.532  1.00  0.00     0.071 A 
HETATM    4  C5  UNL     1      27.449   4.901  48.789  1.00  0.00     0.088 A 
HETATM    5  C6  UNL     1      26.626   3.866  49.261  1.00  0.00     0.060 A 
HETATM    6  C7  UNL     1      25.359   4.393  49.409  1.00  0.00     0.062 A 
HETATM    7 CL1  UNL     1      24.343   3.014  49.930  1.00  0.00    -0.082 Cl
HETATM    8  N2  UNL     1      28.750   4.671  48.457  1.00  0.00    -0.227 NA
HETATM    9  C8  UNL     1      29.583   5.563  47.938  1.00  0.00     0.157 A 
HETATM   10  C16 UNL     1      29.101   6.833  47.708  1.00  0.00     0.104 A 
HETATM   11  C17 UNL     1      29.706   7.985  47.163  1.00  0.00     0.151 A 
HETATM   12  N4  UNL     1      28.771   8.961  47.151  1.00  0.00    -0.253 NA
HETATM   13  C18 UNL     1      27.640   8.477  47.651  1.00  0.00     0.215 A 
HETATM   14  N5  UNL     1      27.841   7.200  47.987  1.00  0.00    -0.299 N 
ENDROOT
BRANCH   9  15
HETATM   15  N3  UNL     1      30.865   5.236  47.609  1.00  0.00    -0.339 N 
HETATM   16  H7  UNL     1      30.878   5.517  46.583  1.00  0.00     0.167 HD
BRANCH  15  17
HETATM   17  C9  UNL     1      32.139   4.787  47.760  1.00  0.00     0.034 A 
HETATM   18  C10 UNL     1      32.759   3.646  47.637  1.00  0.00     0.029 A 
HETATM   19  C11 UNL     1      33.878   2.906  47.697  1.00  0.00     0.003 A 
HETATM   20  C12 UNL     1      34.803   3.899  48.102  1.00  0.00     0.010 A 
HETATM   21  C13 UNL     1      34.527   5.255  48.346  1.00  0.00    -0.028 A 
HETATM   22  C15 UNL     1      33.197   5.695  48.174  1.00  0.00     0.039 A 
BRANCH  21  23
HETATM   23  C14 UNL     1      35.562   6.236  48.803  1.00  0.00     0.261 C 
HETATM   24  F1  UNL     1      36.176   5.757  49.955  1.00  0.00    -0.251 F 
ENDBRANCH  21  23
ENDBRANCH  15  17
ENDBRANCH   9  15
BRANCH   1  25
HETATM   25  N1  UNL     1      23.443   5.599  49.502  1.00  0.00    -0.393 N 
HETATM   26  C1  UNL     1      22.139   5.537  49.765  1.00  0.00     0.146 C 
HETATM   27  H4  UNL     1      23.321   4.967  48.683  1.00  0.00     0.159 HD
ENDBRANCH   1  25
TORSDOF 4
ENDMDL
MODEL 9
REMARK VINA RESULT:      -7.4      8.398     10.292
REMARK  4 active torsions:
REMARK  status: ('A' for Active; 'I' for Inactive)
REMARK    1  A    between atoms: N1_2  and  C2_3 
REMARK    2  A    between atoms: C8_11  and  N3_12 
REMARK    3  A    between atoms: N3_12  and  C9_13 
REMARK    4  A    between atoms: C13_17  and  C14_18 
ROOT
HETATM    1  C2  UNL     1      25.411   6.333  48.593  1.00  0.00     0.051 A 
HETATM    2  C3  UNL     1      26.416   7.160  48.203  1.00  0.00     0.063 A 
HETATM    3  C4  UNL     1      27.684   6.677  48.194  1.00  0.00     0.071 A 
HETATM    4  C5  UNL     1      27.938   5.389  48.583  1.00  0.00     0.088 A 
HETATM    5  C6  UNL     1      26.986   4.448  49.011  1.00  0.00     0.060 A 
HETATM    6  C7  UNL     1      25.754   5.068  48.956  1.00  0.00     0.062 A 
HETATM    7 CL1  UNL     1      24.580   3.802  49.430  1.00  0.00    -0.082 Cl
HETATM    8  N2  UNL     1      29.249   5.049  48.439  1.00  0.00    -0.227 NA
HETATM    9  C8  UNL     1      30.205   5.842  47.976  1.00  0.00     0.157 A 
HETATM   10  C16 UNL     1      29.853   7.121  47.603  1.00  0.00     0.104 A 
HETATM   11  C17 UNL     1      30.607   8.186  47.067  1.00  0.00     0.151 A 
HETATM   12  N4  UNL     1      29.757   9.219  46.869  1.00  0.00    -0.253 NA
HETATM   13  C18 UNL     1      28.539   8.849  47.249  1.00  0.00     0.215 A 
HETATM   14  N5  UNL     1      28.600   7.590  47.691  1.00  0.00    -0.299 N 
ENDROOT
BRANCH   9  15
HETATM   15  N3  UNL     1      31.491   5.408  47.839  1.00  0.00    -0.339 N 
HETATM   16  H7  UNL     1      31.906   5.739  48.760  1.00  0.00     0.167 HD
BRANCH  15  17
HETATM   17  C9  UNL     1      32.577   4.814  47.277  1.00  0.00     0.034 A 
HETATM   18  C10 UNL     1      33.531   4.018  47.676  1.00  0.00     0.029 A 
HETATM   19  C11 UNL     1      34.644   3.308  47.434  1.00  0.00     0.003 A 
HETATM   20  C12 UNL     1      34.833   3.614  46.065  1.00  0.00     0.010 A 
HETATM   21  C13 UNL     1      34.023   4.441  45.268  1.00  0.00    -0.028 A 
HETATM   22  C15 UNL     1      32.898   5.039  45.877  1.00  0.00     0.039 A 
BRANCH  21  23
HETATM   23  C14 UNL     1      34.313   4.739  43.830  1.00  0.00     0.261 C 
HETATM   24  F1  UNL     1      33.226   4.360  43.051  1.00  0.00    -0.251 F 
ENDBRANCH  21  23
ENDBRANCH  15  17
ENDBRANCH   9  15
BRANCH   1  25
HETATM   25  N1  UNL     1      23.938   6.402  48.720  1.00  0.00    -0.393 N 
HETATM   26  C1  UNL     1      22.611   6.471  48.807  1.00  0.00     0.146 C 
HETATM   27  H4  UNL     1      23.898   6.659  47.711  1.00  0.00     0.159 HD
ENDBRANCH   1  25
TORSDOF 4
ENDMDL
