MODEL 1
REMARK VINA RESULT:      -8.4      0.000      0.000
REMARK  3 active torsions:
REMARK  status: ('A' for Active; 'I' for Inactive)
REMARK    1  A    between atoms: S1_1  and  C1_2 
REMARK    2  A    between atoms: C4_8  and  C5_9 
REMARK    3  A    between atoms: C12_17  and  C13_18 
ROOT
HETATM    1  C1  UNL     1      22.722   5.362  48.990  1.00  0.00     0.162 C 
HETATM    2  C2  UNL     1      23.236   5.105  50.193  1.00  0.00     0.071 C 
HETATM    3  N1  UNL     1      22.476   5.461  51.401  1.00  0.00    -0.244 NA
HETATM    4  C3  UNL     1      22.436   4.415  52.241  1.00  0.00     0.222 C 
HETATM    5  N2  UNL     1      23.537   3.626  51.777  1.00  0.00    -0.296 N 
HETATM    6  N3  UNL     1      24.832   4.301  51.672  1.00  0.00    -0.216 NA
HETATM    7  C4  UNL     1      24.607   4.446  50.190  1.00  0.00     0.104 C 
HETATM    8  C11 UNL     1      24.494   2.935  49.908  1.00  0.00     0.070 C 
HETATM    9  C12 UNL     1      24.033   2.336  51.239  1.00  0.00     0.139 C 
HETATM   10  H4  UNL     1      25.606   3.697  51.885  1.00  0.00     0.148 HD
ENDROOT
BRANCH   7  11
HETATM   11  C5  UNL     1      25.645   5.141  49.515  1.00  0.00    -0.028 A 
HETATM   12  C6  UNL     1      25.723   6.430  49.126  1.00  0.00     0.011 A 
HETATM   13  C7  UNL     1      26.770   7.047  48.472  1.00  0.00     0.024 A 
HETATM   14  C8  UNL     1      27.883   6.259  48.172  1.00  0.00     0.034 A 
HETATM   15 CL1  UNL     1      29.221   7.021  47.344  1.00  0.00    -0.084 Cl
HETATM   16  C9  UNL     1      27.872   4.925  48.542  1.00  0.00     0.024 A 
HETATM   17  C10 UNL     1      26.772   4.369  49.204  1.00  0.00     0.011 A 
ENDBRANCH   7  11
BRANCH   1  18
HETATM   18  S1  UNL     1      21.147   6.126  48.702  1.00  0.00    -0.224 SA
HETATM   19  H1  UNL     1      20.562   6.390  49.978  1.00  0.00     0.086 HD
ENDBRANCH   1  18
BRANCH   9  20
HETATM   20  C13 UNL     1      25.051   1.836  52.117  1.00  0.00    -0.034 A 
HETATM   21  C14 UNL     1      24.972   1.728  53.470  1.00  0.00     0.011 A 
HETATM   22  C15 UNL     1      26.013   1.230  54.221  1.00  0.00     0.019 A 
HETATM   23  C16 UNL     1      27.180   0.822  53.616  1.00  0.00     0.011 A 
HETATM   24 BR1  UNL     1      28.646   0.125  54.638  1.00  0.00    -0.051 Br
HETATM   25  C17 UNL     1      27.297   0.915  52.260  1.00  0.00     0.019 A 
HETATM   26  C18 UNL     1      26.255   1.411  51.542  1.00  0.00     0.011 A 
ENDBRANCH   9  20
TORSDOF 3
ENDMDL
MODEL 2
REMARK VINA RESULT:      -7.9      3.898      6.158
REMARK  3 active torsions:
REMARK  status: ('A' for Active; 'I' for Inactive)
REMARK    1  A    between atoms: S1_1  and  C1_2 
REMARK    2  A    between atoms: C4_8  and  C5_9 
REMARK    3  A    between atoms: C12_17  and  C13_18 
ROOT
HETATM    1  C1  UNL     1      22.731   0.116  53.774  1.00  0.00     0.162 C 
HETATM    2  C2  UNL     1      22.808   0.611  52.539  1.00  0.00     0.071 C 
HETATM    3  N1  UNL     1      21.843   0.176  51.518  1.00  0.00    -0.244 NA
HETATM    4  C3  UNL     1      21.325   1.245  50.894  1.00  0.00     0.222 C 
HETATM    5  N2  UNL     1      22.295   2.256  51.190  1.00  0.00    -0.296 N 
HETATM    6  N3  UNL     1      23.687   1.947  50.858  1.00  0.00    -0.216 NA
HETATM    7  C4  UNL     1      23.931   1.611  52.306  1.00  0.00     0.104 C 
HETATM    8  C11 UNL     1      23.552   3.004  52.847  1.00  0.00     0.070 C 
HETATM    9  C12 UNL     1      22.607   3.576  51.787  1.00  0.00     0.139 C 
HETATM   10  H4  UNL     1      24.207   2.753  50.559  1.00  0.00     0.148 HD
ENDROOT
BRANCH   7  11
HETATM   11  C5  UNL     1      25.249   1.162  52.580  1.00  0.00    -0.028 A 
HETATM   12  C6  UNL     1      25.869   0.013  52.240  1.00  0.00     0.011 A 
HETATM   13  C7  UNL     1      27.163  -0.362  52.538  1.00  0.00     0.024 A 
HETATM   14  C8  UNL     1      27.931   0.541  53.274  1.00  0.00     0.034 A 
HETATM   15 CL1  UNL     1      29.575   0.086  53.662  1.00  0.00    -0.084 Cl
HETATM   16  C9  UNL     1      27.360   1.742  53.659  1.00  0.00     0.024 A 
HETATM   17  C10 UNL     1      26.039   2.053  53.320  1.00  0.00     0.011 A 
ENDBRANCH   7  11
BRANCH   1  18
HETATM   18  S1  UNL     1      21.525  -1.066  54.320  1.00  0.00    -0.224 SA
HETATM   19  H1  UNL     1      20.253  -0.629  53.839  1.00  0.00     0.086 HD
ENDBRANCH   1  18
BRANCH   9  20
HETATM   20  C13 UNL     1      23.190   4.410  50.776  1.00  0.00    -0.034 A 
HETATM   21  C14 UNL     1      22.836   4.457  49.463  1.00  0.00     0.011 A 
HETATM   22  C15 UNL     1      23.463   5.299  48.573  1.00  0.00     0.019 A 
HETATM   23  C16 UNL     1      24.479   6.129  48.990  1.00  0.00     0.011 A 
HETATM   24 BR1  UNL     1      25.369   7.312  47.770  1.00  0.00    -0.051 Br
HETATM   25  C17 UNL     1      24.862   6.110  50.299  1.00  0.00     0.019 A 
HETATM   26  C18 UNL     1      24.227   5.268  51.158  1.00  0.00     0.011 A 
ENDBRANCH   9  20
TORSDOF 3
ENDMDL
MODEL 3
REMARK VINA RESULT:      -7.9      5.081      7.391
REMARK  3 active torsions:
REMARK  status: ('A' for Active; 'I' for Inactive)
REMARK    1  A    between atoms: S1_1  and  C1_2 
REMARK    2  A    between atoms: C4_8  and  C5_9 
REMARK    3  A    between atoms: C12_17  and  C13_18 
ROOT
HETATM    1  C1  UNL     1      31.735   9.535  47.105  1.00  0.00     0.162 C 
HETATM    2  C2  UNL     1      30.943   9.099  48.084  1.00  0.00     0.071 C 
HETATM    3  N1  UNL     1      30.484  10.035  49.122  1.00  0.00    -0.244 NA
HETATM    4  C3  UNL     1      29.157   9.923  49.284  1.00  0.00     0.222 C 
HETATM    5  N2  UNL     1      28.900   8.634  48.717  1.00  0.00    -0.296 N 
HETATM    6  N3  UNL     1      29.695   7.518  49.235  1.00  0.00    -0.216 NA
HETATM    7  C4  UNL     1      30.583   7.622  48.024  1.00  0.00     0.104 C 
HETATM    8  C11 UNL     1      29.464   7.367  46.996  1.00  0.00     0.070 C 
HETATM    9  C12 UNL     1      28.186   7.811  47.711  1.00  0.00     0.139 C 
HETATM   10  H4  UNL     1      29.183   6.654  49.263  1.00  0.00     0.148 HD
ENDROOT
BRANCH   7  11
HETATM   11  C5  UNL     1      31.667   6.704  48.023  1.00  0.00    -0.028 A 
HETATM   12  C6  UNL     1      32.768   6.652  48.800  1.00  0.00     0.011 A 
HETATM   13  C7  UNL     1      33.788   5.724  48.748  1.00  0.00     0.024 A 
HETATM   14  C8  UNL     1      33.680   4.717  47.787  1.00  0.00     0.034 A 
HETATM   15 CL1  UNL     1      34.962   3.530  47.705  1.00  0.00    -0.084 Cl
HETATM   16  C9  UNL     1      32.575   4.707  46.954  1.00  0.00     0.024 A 
HETATM   17  C10 UNL     1      31.580   5.684  47.066  1.00  0.00     0.011 A 
ENDBRANCH   7  11
BRANCH   1  18
HETATM   18  S1  UNL     1      32.311  11.205  46.933  1.00  0.00    -0.224 SA
HETATM   19  H1  UNL     1      31.911  11.662  45.641  1.00  0.00     0.086 HD
ENDBRANCH   1  18
BRANCH   9  20
HETATM   20  C13 UNL     1      27.436   6.800  48.397  1.00  0.00    -0.034 A 
HETATM   21  C14 UNL     1      26.315   6.990  49.144  1.00  0.00     0.011 A 
HETATM   22  C15 UNL     1      25.669   5.943  49.762  1.00  0.00     0.019 A 
HETATM   23  C16 UNL     1      26.144   4.657  49.640  1.00  0.00     0.011 A 
HETATM   24 BR1  UNL     1      25.263   3.180  50.490  1.00  0.00    -0.051 Br
HETATM   25  C17 UNL     1      27.266   4.426  48.899  1.00  0.00     0.019 A 
HETATM   26  C18 UNL     1      27.886   5.478  48.299  1.00  0.00     0.011 A 
ENDBRANCH   9  20
TORSDOF 3
ENDMDL
MODEL 4
REMARK VINA RESULT:      -7.9      3.914      5.351
REMARK  3 active torsions:
REMARK  status: ('A' for Active; 'I' for Inactive)
REMARK    1  A    between atoms: S1_1  and  C1_2 
REMARK    2  A    between atoms: C4_8  and  C5_9 
REMARK    3  A    between atoms: C12_17  and  C13_18 
ROOT
HETATM    1  C1  UNL     1      27.451   2.211  53.057  1.00  0.00     0.162 C 
HETATM    2  C2  UNL     1      26.487   1.514  52.456  1.00  0.00     0.071 C 
HETATM    3  N1  UNL     1      26.583   0.048  52.386  1.00  0.00    -0.244 NA
HETATM    4  C3  UNL     1      25.429  -0.506  52.787  1.00  0.00     0.222 C 
HETATM    5  N2  UNL     1      24.514   0.585  52.638  1.00  0.00    -0.296 N 
HETATM    6  N3  UNL     1      24.478   1.239  51.329  1.00  0.00    -0.216 NA
HETATM    7  C4  UNL     1      25.345   2.339  51.884  1.00  0.00     0.104 C 
HETATM    8  C11 UNL     1      24.359   2.762  52.990  1.00  0.00     0.070 C 
HETATM    9  C12 UNL     1      23.528   1.505  53.255  1.00  0.00     0.139 C 
HETATM   10  H4  UNL     1      23.560   1.564  51.079  1.00  0.00     0.148 HD
ENDROOT
BRANCH   7  11
HETATM   11  C5  UNL     1      25.694   3.333  50.932  1.00  0.00    -0.028 A 
HETATM   12  C6  UNL     1      26.665   3.343  49.996  1.00  0.00     0.011 A 
HETATM   13  C7  UNL     1      26.950   4.347  49.093  1.00  0.00     0.024 A 
HETATM   14  C8  UNL     1      26.150   5.490  49.143  1.00  0.00     0.034 A 
HETATM   15 CL1  UNL     1      26.494   6.775  48.008  1.00  0.00    -0.084 Cl
HETATM   16  C9  UNL     1      25.133   5.550  50.080  1.00  0.00     0.024 A 
HETATM   17  C10 UNL     1      24.904   4.490  50.964  1.00  0.00     0.011 A 
ENDBRANCH   7  11
BRANCH   1  18
HETATM   18  S1  UNL     1      28.897   1.505  53.806  1.00  0.00    -0.224 SA
HETATM   19  H1  UNL     1      28.514   1.018  55.093  1.00  0.00     0.086 HD
ENDBRANCH   1  18
BRANCH   9  20
HETATM   20  C13 UNL     1      22.284   1.383  52.550  1.00  0.00    -0.034 A 
HETATM   21  C14 UNL     1      21.642   0.226  52.236  1.00  0.00     0.011 A 
HETATM   22  C15 UNL     1      20.447   0.222  51.554  1.00  0.00     0.019 A 
HETATM   23  C16 UNL     1      19.859   1.404  51.164  1.00  0.00     0.011 A 
HETATM   24 BR1  UNL     1      18.194   1.427  50.212  1.00  0.00    -0.051 Br
HETATM   25  C17 UNL     1      20.473   2.586  51.461  1.00  0.00     0.019 A 
HETATM   26  C18 UNL     1      21.654   2.562  52.135  1.00  0.00     0.011 A 
ENDBRANCH   9  20
TORSDOF 3
ENDMDL
MODEL 5
REMARK VINA RESULT:      -7.8      1.532      1.951
REMARK  3 active torsions:
REMARK  status: ('A' for Active; 'I' for Inactive)
REMARK    1  A    between atoms: S1_1  and  C1_2 
REMARK    2  A    between atoms: C4_8  and  C5_9 
REMARK    3  A    between atoms: C12_17  and  C13_18 
ROOT
HETATM    1  C1  UNL     1      23.972   7.295  47.805  1.00  0.00     0.162 C 
HETATM    2  C2  UNL     1      24.154   6.934  49.075  1.00  0.00     0.071 C 
HETATM    3  N1  UNL     1      23.336   7.549  50.132  1.00  0.00    -0.244 NA
HETATM    4  C3  UNL     1      22.823   6.597  50.925  1.00  0.00     0.222 C 
HETATM    5  N2  UNL     1      23.689   5.491  50.653  1.00  0.00    -0.296 N 
HETATM    6  N3  UNL     1      25.126   5.729  50.802  1.00  0.00    -0.216 NA
HETATM    7  C4  UNL     1      25.229   5.884  49.307  1.00  0.00     0.104 C 
HETATM    8  C11 UNL     1      24.707   4.473  48.975  1.00  0.00     0.070 C 
HETATM    9  C12 UNL     1      23.851   4.093  50.185  1.00  0.00     0.139 C 
HETATM   10  H4  UNL     1      25.624   4.923  51.139  1.00  0.00     0.148 HD
ENDROOT
BRANCH   7  11
HETATM   11  C5  UNL     1      26.536   6.201  48.849  1.00  0.00    -0.028 A 
HETATM   12  C6  UNL     1      27.092   7.392  48.552  1.00  0.00     0.011 A 
HETATM   13  C7  UNL     1      28.378   7.632  48.111  1.00  0.00     0.024 A 
HETATM   14  C8  UNL     1      29.210   6.523  47.952  1.00  0.00     0.034 A 
HETATM   15 CL1  UNL     1      30.844   6.803  47.395  1.00  0.00    -0.084 Cl
HETATM   16  C9  UNL     1      28.705   5.266  48.239  1.00  0.00     0.024 A 
HETATM   17  C10 UNL     1      27.389   5.101  48.681  1.00  0.00     0.011 A 
ENDBRANCH   7  11
BRANCH   1  18
HETATM   18  S1  UNL     1      22.790   8.497  47.251  1.00  0.00    -0.224 SA
HETATM   19  H1  UNL     1      21.908   7.839  46.341  1.00  0.00     0.086 HD
ENDBRANCH   1  18
BRANCH   9  20
HETATM   20  C13 UNL     1      24.487   3.333  51.222  1.00  0.00    -0.034 A 
HETATM   21  C14 UNL     1      24.108   3.269  52.527  1.00  0.00     0.011 A 
HETATM   22  C15 UNL     1      24.792   2.505  53.445  1.00  0.00     0.019 A 
HETATM   23  C16 UNL     1      25.895   1.774  53.064  1.00  0.00     0.011 A 
HETATM   24 BR1  UNL     1      26.866   0.700  54.322  1.00  0.00    -0.051 Br
HETATM   25  C17 UNL     1      26.305   1.813  51.763  1.00  0.00     0.019 A 
HETATM   26  C18 UNL     1      25.612   2.576  50.877  1.00  0.00     0.011 A 
ENDBRANCH   9  20
TORSDOF 3
ENDMDL
MODEL 6
REMARK VINA RESULT:      -7.7      4.599      6.411
REMARK  3 active torsions:
REMARK  status: ('A' for Active; 'I' for Inactive)
REMARK    1  A    between atoms: S1_1  and  C1_2 
REMARK    2  A    between atoms: C4_8  and  C5_9 
REMARK    3  A    between atoms: C12_17  and  C13_18 
ROOT
HETATM    1  C1  UNL     1      20.166   3.843  50.761  1.00  0.00     0.162 C 
HETATM    2  C2  UNL     1      21.170   3.027  50.442  1.00  0.00     0.071 C 
HETATM    3  N1  UNL     1      21.916   3.243  49.193  1.00  0.00    -0.244 NA
HETATM    4  C3  UNL     1      23.235   3.227  49.440  1.00  0.00     0.222 C 
HETATM    5  N2  UNL     1      23.289   2.544  50.697  1.00  0.00    -0.296 N 
HETATM    6  N3  UNL     1      22.619   1.245  50.768  1.00  0.00    -0.216 NA
HETATM    7  C4  UNL     1      21.449   1.914  51.441  1.00  0.00     0.104 C 
HETATM    8  C11 UNL     1      22.252   2.441  52.646  1.00  0.00     0.070 C 
HETATM    9  C12 UNL     1      23.687   2.549  52.125  1.00  0.00     0.139 C 
HETATM   10  H4  UNL     1      23.088   0.595  51.374  1.00  0.00     0.148 HD
ENDROOT
BRANCH   7  11
HETATM   11  C5  UNL     1      20.371   1.036  51.731  1.00  0.00    -0.028 A 
HETATM   12  C6  UNL     1      19.257   0.757  51.025  1.00  0.00     0.011 A 
HETATM   13  C7  UNL     1      18.244  -0.115  51.366  1.00  0.00     0.024 A 
HETATM   14  C8  UNL     1      18.374  -0.795  52.578  1.00  0.00     0.034 A 
HETATM   15 CL1  UNL     1      17.101  -1.906  53.029  1.00  0.00    -0.084 Cl
HETATM   16  C9  UNL     1      19.493  -0.558  53.357  1.00  0.00     0.024 A 
HETATM   17  C10 UNL     1      20.480   0.343  52.944  1.00  0.00     0.011 A 
ENDBRANCH   7  11
BRANCH   1  18
HETATM   18  S1  UNL     1      19.624   5.218  49.778  1.00  0.00    -0.224 SA
HETATM   19  H1  UNL     1      18.201   5.281  49.883  1.00  0.00     0.086 HD
ENDBRANCH   1  18
BRANCH   9  20
HETATM   20  C13 UNL     1      24.554   1.432  52.363  1.00  0.00    -0.034 A 
HETATM   21  C14 UNL     1      24.302   0.370  53.175  1.00  0.00     0.011 A 
HETATM   22  C15 UNL     1      25.208  -0.654  53.332  1.00  0.00     0.019 A 
HETATM   23  C16 UNL     1      26.411  -0.635  52.663  1.00  0.00     0.011 A 
HETATM   24 BR1  UNL     1      27.690  -2.050  52.863  1.00  0.00    -0.051 Br
HETATM   25  C17 UNL     1      26.699   0.414  51.838  1.00  0.00     0.019 A 
HETATM   26  C18 UNL     1      25.788   1.413  51.702  1.00  0.00     0.011 A 
ENDBRANCH   9  20
TORSDOF 3
ENDMDL
MODEL 7
REMARK VINA RESULT:      -7.6      3.777      5.674
REMARK  3 active torsions:
REMARK  status: ('A' for Active; 'I' for Inactive)
REMARK    1  A    between atoms: S1_1  and  C1_2 
REMARK    2  A    between atoms: C4_8  and  C5_9 
REMARK    3  A    between atoms: C12_17  and  C13_18 
ROOT
HETATM    1  C1  UNL     1      28.134  10.389  47.408  1.00  0.00     0.162 C 
HETATM    2  C2  UNL     1      27.714   9.643  48.429  1.00  0.00     0.071 C 
HETATM    3  N1  UNL     1      26.831  10.232  49.447  1.00  0.00    -0.244 NA
HETATM    4  C3  UNL     1      25.778   9.429  49.660  1.00  0.00     0.222 C 
HETATM    5  N2  UNL     1      26.256   8.179  49.150  1.00  0.00    -0.296 N 
HETATM    6  N3  UNL     1      27.533   7.698  49.680  1.00  0.00    -0.216 NA
HETATM    7  C4  UNL     1      28.212   8.206  48.435  1.00  0.00     0.104 C 
HETATM    8  C11 UNL     1      27.400   7.335  47.458  1.00  0.00     0.070 C 
HETATM    9  C12 UNL     1      26.092   7.052  48.201  1.00  0.00     0.139 C 
HETATM   10  H4  UNL     1      27.572   6.697  49.757  1.00  0.00     0.148 HD
ENDROOT
BRANCH   7  11
HETATM   11  C5  UNL     1      29.620   8.021  48.430  1.00  0.00    -0.028 A 
HETATM   12  C6  UNL     1      30.572   8.549  49.225  1.00  0.00     0.011 A 
HETATM   13  C7  UNL     1      31.933   8.323  49.168  1.00  0.00     0.024 A 
HETATM   14  C8  UNL     1      32.389   7.449  48.179  1.00  0.00     0.034 A 
HETATM   15 CL1  UNL     1      34.109   7.148  48.089  1.00  0.00    -0.084 Cl
HETATM   16  C9  UNL     1      31.466   6.869  47.326  1.00  0.00     0.024 A 
HETATM   17  C10 UNL     1      30.100   7.148  47.445  1.00  0.00     0.011 A 
ENDBRANCH   7  11
BRANCH   1  18
HETATM   18  S1  UNL     1      27.711  12.094  47.155  1.00  0.00    -0.224 SA
HETATM   19  H1  UNL     1      28.890  12.762  46.703  1.00  0.00     0.086 HD
ENDBRANCH   1  18
BRANCH   9  20
HETATM   20  C13 UNL     1      26.016   5.831  48.948  1.00  0.00    -0.034 A 
HETATM   21  C14 UNL     1      26.889   4.789  48.888  1.00  0.00     0.011 A 
HETATM   22  C15 UNL     1      26.722   3.658  49.653  1.00  0.00     0.019 A 
HETATM   23  C16 UNL     1      25.654   3.545  50.514  1.00  0.00     0.011 A 
HETATM   24 BR1  UNL     1      25.399   1.980  51.593  1.00  0.00    -0.051 Br
HETATM   25  C17 UNL     1      24.757   4.570  50.603  1.00  0.00     0.019 A 
HETATM   26  C18 UNL     1      24.944   5.676  49.835  1.00  0.00     0.011 A 
ENDBRANCH   9  20
TORSDOF 3
ENDMDL
MODEL 8
REMARK VINA RESULT:      -7.6      1.963      2.529
REMARK  3 active torsions:
REMARK  status: ('A' for Active; 'I' for Inactive)
REMARK    1  A    between atoms: S1_1  and  C1_2 
REMARK    2  A    between atoms: C4_8  and  C5_9 
REMARK    3  A    between atoms: C12_17  and  C13_18 
ROOT
HETATM    1  C1  UNL     1      20.647   3.900  50.239  1.00  0.00     0.162 C 
HETATM    2  C2  UNL     1      21.283   3.515  51.345  1.00  0.00     0.071 C 
HETATM    3  N1  UNL     1      20.510   3.169  52.548  1.00  0.00    -0.244 NA
HETATM    4  C3  UNL     1      20.925   1.991  53.036  1.00  0.00     0.222 C 
HETATM    5  N2  UNL     1      22.221   1.867  52.439  1.00  0.00    -0.296 N 
HETATM    6  N3  UNL     1      23.142   2.989  52.629  1.00  0.00    -0.216 NA
HETATM    7  C4  UNL     1      22.800   3.472  51.244  1.00  0.00     0.104 C 
HETATM    8  C11 UNL     1      23.271   2.195  50.521  1.00  0.00     0.070 C 
HETATM    9  C12 UNL     1      23.151   1.096  51.580  1.00  0.00     0.139 C 
HETATM   10  H4  UNL     1      24.101   2.698  52.708  1.00  0.00     0.148 HD
ENDROOT
BRANCH   7  11
HETATM   11  C5  UNL     1      23.448   4.682  50.879  1.00  0.00    -0.028 A 
HETATM   12  C6  UNL     1      23.364   5.914  51.420  1.00  0.00     0.011 A 
HETATM   13  C7  UNL     1      24.028   7.054  51.016  1.00  0.00     0.024 A 
HETATM   14  C8  UNL     1      24.889   6.933  49.924  1.00  0.00     0.034 A 
HETATM   15 CL1  UNL     1      25.740   8.366  49.395  1.00  0.00    -0.084 Cl
HETATM   16  C9  UNL     1      25.024   5.696  49.318  1.00  0.00     0.024 A 
HETATM   17  C10 UNL     1      24.317   4.584  49.784  1.00  0.00     0.011 A 
ENDBRANCH   7  11
BRANCH   1  18
HETATM   18  S1  UNL     1      18.886   4.043  50.079  1.00  0.00    -0.224 SA
HETATM   19  H1  UNL     1      18.628   4.907  48.971  1.00  0.00     0.086 HD
ENDBRANCH   1  18
BRANCH   9  20
HETATM   20  C13 UNL     1      24.329   0.791  52.340  1.00  0.00    -0.034 A 
HETATM   21  C14 UNL     1      24.376   0.141  53.534  1.00  0.00     0.011 A 
HETATM   22  C15 UNL     1      25.566  -0.101  54.182  1.00  0.00     0.019 A 
HETATM   23  C16 UNL     1      26.759   0.311  53.632  1.00  0.00     0.011 A 
HETATM   24 BR1  UNL     1      28.431  -0.016  54.513  1.00  0.00    -0.051 Br
HETATM   25  C17 UNL     1      26.752   0.965  52.435  1.00  0.00     0.019 A 
HETATM   26  C18 UNL     1      25.563   1.193  51.817  1.00  0.00     0.011 A 
ENDBRANCH   9  20
TORSDOF 3
ENDMDL
MODEL 9
REMARK VINA RESULT:      -7.4      3.983      5.669
REMARK  3 active torsions:
REMARK  status: ('A' for Active; 'I' for Inactive)
REMARK    1  A    between atoms: S1_1  and  C1_2 
REMARK    2  A    between atoms: C4_8  and  C5_9 
REMARK    3  A    between atoms: C12_17  and  C13_18 
ROOT
HETATM    1  C1  UNL     1      24.965   4.702  50.442  1.00  0.00     0.162 C 
HETATM    2  C2  UNL     1      23.934   4.358  51.214  1.00  0.00     0.071 C 
HETATM    3  N1  UNL     1      23.053   5.401  51.761  1.00  0.00    -0.244 NA
HETATM    4  C3  UNL     1      21.770   5.081  51.536  1.00  0.00     0.222 C 
HETATM    5  N2  UNL     1      21.858   3.672  51.298  1.00  0.00    -0.296 N 
HETATM    6  N3  UNL     1      22.536   2.874  52.321  1.00  0.00    -0.216 NA
HETATM    7  C4  UNL     1      23.771   2.866  51.458  1.00  0.00     0.104 C 
HETATM    8  C11 UNL     1      23.105   2.177  50.252  1.00  0.00     0.070 C 
HETATM    9  C12 UNL     1      21.620   2.523  50.391  1.00  0.00     0.139 C 
HETATM   10  H4  UNL     1      22.138   1.958  52.430  1.00  0.00     0.148 HD
ENDROOT
BRANCH   7  11
HETATM   11  C5  UNL     1      24.877   2.193  52.042  1.00  0.00    -0.028 A 
HETATM   12  C6  UNL     1      25.762   1.333  51.498  1.00  0.00     0.011 A 
HETATM   13  C7  UNL     1      26.824   0.713  52.125  1.00  0.00     0.024 A 
HETATM   14  C8  UNL     1      27.016   1.000  53.477  1.00  0.00     0.034 A 
HETATM   15 CL1  UNL     1      28.356   0.226  54.291  1.00  0.00    -0.084 Cl
HETATM   16  C9  UNL     1      26.145   1.876  54.102  1.00  0.00     0.024 A 
HETATM   17  C10 UNL     1      25.089   2.466  53.400  1.00  0.00     0.011 A 
ENDBRANCH   7  11
BRANCH   1  18
HETATM   18  S1  UNL     1      25.390   6.367  49.999  1.00  0.00    -0.224 SA
HETATM   19  H1  UNL     1      26.566   6.305  49.191  1.00  0.00     0.086 HD
ENDBRANCH   1  18
BRANCH   9  20
HETATM   20  C13 UNL     1      20.789   1.570  51.068  1.00  0.00    -0.034 A 
HETATM   21  C14 UNL     1      21.203   0.440  51.701  1.00  0.00     0.011 A 
HETATM   22  C15 UNL     1      20.316  -0.410  52.322  1.00  0.00     0.019 A 
HETATM   23  C16 UNL     1      18.966  -0.137  52.321  1.00  0.00     0.011 A 
HETATM   24 BR1  UNL     1      17.709  -1.304  53.180  1.00  0.00    -0.051 Br
HETATM   25  C17 UNL     1      18.513   0.988  51.696  1.00  0.00     0.019 A 
HETATM   26  C18 UNL     1      19.410   1.810  51.089  1.00  0.00     0.011 A 
ENDBRANCH   9  20
TORSDOF 3
ENDMDL
