MODEL 1
REMARK VINA RESULT:     -10.5      0.000      0.000
REMARK  1 active torsions:
REMARK  status: ('A' for Active; 'I' for Inactive)
REMARK    1  A    between atoms: C2_4  and  C3_5 
REMARK       I    between atoms: C3_5  and  N3_6 
ROOT
HETATM    1  C1  UNL     1      21.687   4.586  51.072  1.00  0.00     0.180 C 
HETATM    2  N1  UNL     1      21.109   3.273  51.131  1.00  0.00    -0.271 N 
HETATM    3  N2  UNL     1      19.990   2.937  50.517  1.00  0.00    -0.166 NA
HETATM    4  C2  UNL     1      19.678   1.654  50.739  1.00  0.00     0.153 A 
HETATM    5  C4  UNL     1      20.655   1.125  51.546  1.00  0.00     0.009 A 
HETATM    6  C5  UNL     1      21.523   2.168  51.765  1.00  0.00     0.084 A 
HETATM    7  C6  UNL     1      22.725   2.093  52.560  1.00  0.00     0.065 C 
HETATM    8  N4  UNL     1      23.517   3.143  52.732  1.00  0.00    -0.162 NA
HETATM    9  C7  UNL     1      24.640   2.910  53.524  1.00  0.00     0.248 A 
HETATM   10  N5  UNL     1      25.030   3.290  52.330  1.00  0.00    -0.202 NA
HETATM   11  N6  UNL     1      25.999   2.789  53.909  1.00  0.00    -0.293 N 
HETATM   12  N7  UNL     1      26.532   1.516  53.917  1.00  0.00    -0.311 N 
HETATM   13  C8  UNL     1      26.381   0.784  55.097  1.00  0.00     0.144 C 
HETATM   14  C9  UNL     1      25.763  -0.553  55.079  1.00  0.00     0.030 C 
HETATM   15  C10 UNL     1      25.050  -0.964  53.814  1.00  0.00     0.014 C 
HETATM   16  C11 UNL     1      23.909  -0.119  53.494  1.00  0.00    -0.013 C 
HETATM   17  C12 UNL     1      22.972   0.749  53.153  1.00  0.00    -0.036 C 
HETATM   18  C13 UNL     1      21.664   0.166  53.500  1.00  0.00     0.045 C 
HETATM   19  C14 UNL     1      20.969  -0.164  52.175  1.00  0.00     0.048 C 
HETATM   20  C15 UNL     1      26.015  -1.137  52.664  1.00  0.00     0.045 C 
HETATM   21  C16 UNL     1      27.323  -0.463  52.994  1.00  0.00    -0.046 A 
HETATM   22  C17 UNL     1      28.524  -0.925  53.339  1.00  0.00     0.005 A 
HETATM   23  C18 UNL     1      29.419   0.197  53.541  1.00  0.00    -0.001 A 
HETATM   24  C19 UNL     1      28.803   1.333  53.329  1.00  0.00     0.010 A 
HETATM   25  C20 UNL     1      27.390   1.052  52.952  1.00  0.00     0.085 A 
HETATM   26  C21 UNL     1      27.229   1.509  51.534  1.00  0.00     0.050 C 
HETATM   27  H6  UNL     1      24.300   3.498  51.636  1.00  0.00     0.145 HD
HETATM   28  H7  UNL     1      26.619   3.606  54.194  1.00  0.00     0.184 HD
ENDROOT
BRANCH   4  29
HETATM   29  C3  UNL     1      18.529   0.920  50.236  1.00  0.00     0.270 C 
HETATM   30  N3  UNL     1      17.845   1.334  49.065  1.00  0.00    -0.365 N 
HETATM   31  H4  UNL     1      17.224   1.955  48.493  1.00  0.00     0.159 HD
HETATM   32  H5  UNL     1      17.974   0.718  48.216  1.00  0.00     0.159 HD
HETATM   33  O1  UNL     1      18.081  -0.097  50.787  1.00  0.00    -0.266 OA
ENDBRANCH   4  29
TORSDOF 1
ENDMDL
MODEL 2
REMARK VINA RESULT:      -9.8      3.112      7.450
REMARK  1 active torsions:
REMARK  status: ('A' for Active; 'I' for Inactive)
REMARK    1  A    between atoms: C2_4  and  C3_5 
REMARK       I    between atoms: C3_5  and  N3_6 
ROOT
HETATM    1  C1  UNL     1      23.581  -0.886  54.752  1.00  0.00     0.180 C 
HETATM    2  N1  UNL     1      24.777  -0.571  54.025  1.00  0.00    -0.271 N 
HETATM    3  N2  UNL     1      25.927  -1.195  54.199  1.00  0.00    -0.166 NA
HETATM    4  C2  UNL     1      26.877  -0.704  53.394  1.00  0.00     0.153 A 
HETATM    5  C4  UNL     1      26.309   0.301  52.652  1.00  0.00     0.009 A 
HETATM    6  C5  UNL     1      25.003   0.349  53.078  1.00  0.00     0.084 A 
HETATM    7  C6  UNL     1      24.001   1.255  52.574  1.00  0.00     0.065 C 
HETATM    8  N4  UNL     1      22.756   1.248  53.035  1.00  0.00    -0.162 NA
HETATM    9  C7  UNL     1      21.905   2.182  52.446  1.00  0.00     0.248 A 
HETATM   10  N5  UNL     1      21.430   0.978  52.235  1.00  0.00    -0.202 NA
HETATM   11  N6  UNL     1      20.816   2.721  51.716  1.00  0.00    -0.293 N 
HETATM   12  N7  UNL     1      21.064   3.089  50.409  1.00  0.00    -0.311 N 
HETATM   13  C8  UNL     1      21.532   4.389  50.206  1.00  0.00     0.144 C 
HETATM   14  C9  UNL     1      22.779   4.632  49.461  1.00  0.00     0.030 C 
HETATM   15  C10 UNL     1      23.662   3.437  49.190  1.00  0.00     0.014 C 
HETATM   16  C11 UNL     1      24.171   2.809  50.401  1.00  0.00    -0.013 C 
HETATM   17  C12 UNL     1      24.498   2.177  51.514  1.00  0.00    -0.036 C 
HETATM   18  C13 UNL     1      25.894   2.520  51.839  1.00  0.00     0.045 C 
HETATM   19  C14 UNL     1      26.720   1.250  51.609  1.00  0.00     0.048 C 
HETATM   20  C15 UNL     1      23.005   2.467  48.236  1.00  0.00     0.045 C 
HETATM   21  C16 UNL     1      21.527   2.754  48.158  1.00  0.00    -0.046 A 
HETATM   22  C17 UNL     1      20.757   3.320  47.230  1.00  0.00     0.005 A 
HETATM   23  C18 UNL     1      19.387   3.335  47.700  1.00  0.00    -0.001 A 
HETATM   24  C19 UNL     1      19.292   2.795  48.890  1.00  0.00     0.010 A 
HETATM   25  C20 UNL     1      20.646   2.355  49.328  1.00  0.00     0.085 A 
HETATM   26  C21 UNL     1      20.601   0.861  49.418  1.00  0.00     0.050 C 
HETATM   27  H6  UNL     1      21.961   0.184  52.617  1.00  0.00     0.145 HD
HETATM   28  H7  UNL     1      19.837   2.862  52.111  1.00  0.00     0.184 HD
ENDROOT
BRANCH   4  29
HETATM   29  C3  UNL     1      28.263  -1.129  53.295  1.00  0.00     0.270 C 
HETATM   30  N3  UNL     1      28.608  -2.498  53.159  1.00  0.00    -0.365 N 
HETATM   31  H4  UNL     1      28.720  -3.489  53.481  1.00  0.00     0.159 HD
HETATM   32  H5  UNL     1      28.978  -2.786  52.212  1.00  0.00     0.159 HD
HETATM   33  O1  UNL     1      29.218  -0.337  53.321  1.00  0.00    -0.266 OA
ENDBRANCH   4  29
TORSDOF 1
ENDMDL
MODEL 3
REMARK VINA RESULT:      -9.5      2.918      4.411
REMARK  1 active torsions:
REMARK  status: ('A' for Active; 'I' for Inactive)
REMARK    1  A    between atoms: C2_4  and  C3_5 
REMARK       I    between atoms: C3_5  and  N3_6 
ROOT
HETATM    1  C1  UNL     1      17.104   1.835  50.840  1.00  0.00     0.180 C 
HETATM    2  N1  UNL     1      17.655   0.800  51.668  1.00  0.00    -0.271 N 
HETATM    3  N2  UNL     1      17.015  -0.314  51.972  1.00  0.00    -0.166 NA
HETATM    4  C2  UNL     1      17.756  -1.104  52.758  1.00  0.00     0.153 A 
HETATM    5  C4  UNL     1      18.951  -0.464  52.977  1.00  0.00     0.009 A 
HETATM    6  C5  UNL     1      18.842   0.716  52.282  1.00  0.00     0.084 A 
HETATM    7  C6  UNL     1      19.866   1.730  52.207  1.00  0.00     0.065 C 
HETATM    8  N4  UNL     1      19.692   2.850  51.517  1.00  0.00    -0.162 NA
HETATM    9  C7  UNL     1      20.773   3.729  51.540  1.00  0.00     0.248 A 
HETATM   10  N5  UNL     1      20.535   3.377  50.299  1.00  0.00    -0.202 NA
HETATM   11  N6  UNL     1      21.856   4.525  51.087  1.00  0.00    -0.293 N 
HETATM   12  N7  UNL     1      23.121   3.991  51.225  1.00  0.00    -0.311 N 
HETATM   13  C8  UNL     1      23.768   4.228  52.439  1.00  0.00     0.144 C 
HETATM   14  C9  UNL     1      24.294   3.110  53.242  1.00  0.00     0.030 C 
HETATM   15  C10 UNL     1      23.854   1.719  52.854  1.00  0.00     0.014 C 
HETATM   16  C11 UNL     1      22.419   1.511  52.982  1.00  0.00    -0.013 C 
HETATM   17  C12 UNL     1      21.102   1.396  52.968  1.00  0.00    -0.036 C 
HETATM   18  C13 UNL     1      20.697   0.660  54.178  1.00  0.00     0.045 C 
HETATM   19  C14 UNL     1      20.200  -0.711  53.708  1.00  0.00     0.048 C 
HETATM   20  C15 UNL     1      24.406   1.318  51.506  1.00  0.00     0.045 C 
HETATM   21  C16 UNL     1      24.879   2.543  50.767  1.00  0.00    -0.046 A 
HETATM   22  C17 UNL     1      26.087   3.032  50.492  1.00  0.00     0.005 A 
HETATM   23  C18 UNL     1      25.938   4.262  49.741  1.00  0.00    -0.001 A 
HETATM   24  C19 UNL     1      24.674   4.544  49.546  1.00  0.00     0.010 A 
HETATM   25  C20 UNL     1      23.842   3.480  50.175  1.00  0.00     0.085 A 
HETATM   26  C21 UNL     1      23.131   2.779  49.058  1.00  0.00     0.050 C 
HETATM   27  H6  UNL     1      19.756   2.725  50.132  1.00  0.00     0.145 HD
HETATM   28  H7  UNL     1      21.752   5.495  50.660  1.00  0.00     0.184 HD
ENDROOT
BRANCH   4  29
HETATM   29  C3  UNL     1      17.399  -2.405  53.298  1.00  0.00     0.270 C 
HETATM   30  N3  UNL     1      16.154  -3.014  52.995  1.00  0.00    -0.365 N 
HETATM   31  H4  UNL     1      15.113  -3.128  53.040  1.00  0.00     0.159 HD
HETATM   32  H5  UNL     1      16.197  -3.853  52.354  1.00  0.00     0.159 HD
HETATM   33  O1  UNL     1      18.146  -3.057  54.044  1.00  0.00    -0.266 OA
ENDBRANCH   4  29
TORSDOF 1
ENDMDL
MODEL 4
REMARK VINA RESULT:      -9.4      2.967      6.545
REMARK  1 active torsions:
REMARK  status: ('A' for Active; 'I' for Inactive)
REMARK    1  A    between atoms: C2_4  and  C3_5 
REMARK       I    between atoms: C3_5  and  N3_6 
ROOT
HETATM    1  C1  UNL     1      26.247   0.765  52.855  1.00  0.00     0.180 C 
HETATM    2  N1  UNL     1      24.849   0.500  53.038  1.00  0.00    -0.271 N 
HETATM    3  N2  UNL     1      24.375  -0.362  53.918  1.00  0.00    -0.166 NA
HETATM    4  C2  UNL     1      23.038  -0.415  53.880  1.00  0.00     0.153 A 
HETATM    5  C4  UNL     1      22.618   0.468  52.916  1.00  0.00     0.009 A 
HETATM    6  C5  UNL     1      23.778   1.013  52.419  1.00  0.00     0.084 A 
HETATM    7  C6  UNL     1      23.844   2.009  51.378  1.00  0.00     0.065 C 
HETATM    8  N4  UNL     1      25.002   2.491  50.943  1.00  0.00    -0.162 NA
HETATM    9  C7  UNL     1      24.900   3.449  49.936  1.00  0.00     0.248 A 
HETATM   10  N5  UNL     1      25.503   3.980  50.972  1.00  0.00    -0.202 NA
HETATM   11  N6  UNL     1      25.007   4.690  49.259  1.00  0.00    -0.293 N 
HETATM   12  N7  UNL     1      23.879   5.484  49.233  1.00  0.00    -0.311 N 
HETATM   13  C8  UNL     1      22.985   5.262  48.184  1.00  0.00     0.144 C 
HETATM   14  C9  UNL     1      21.564   4.980  48.453  1.00  0.00     0.030 C 
HETATM   15  C10 UNL     1      21.185   4.656  49.878  1.00  0.00     0.014 C 
HETATM   16  C11 UNL     1      21.816   3.444  50.381  1.00  0.00    -0.013 C 
HETATM   17  C12 UNL     1      22.513   2.426  50.856  1.00  0.00    -0.036 C 
HETATM   18  C13 UNL     1      21.637   1.242  50.868  1.00  0.00     0.045 C 
HETATM   19  C14 UNL     1      21.348   0.928  52.340  1.00  0.00     0.048 C 
HETATM   20  C15 UNL     1      21.362   5.851  50.784  1.00  0.00     0.045 C 
HETATM   21  C16 UNL     1      22.238   6.875  50.109  1.00  0.00    -0.046 A 
HETATM   22  C17 UNL     1      21.989   8.051  49.536  1.00  0.00     0.005 A 
HETATM   23  C18 UNL     1      23.232   8.608  49.042  1.00  0.00    -0.001 A 
HETATM   24  C19 UNL     1      24.238   7.808  49.296  1.00  0.00     0.010 A 
HETATM   25  C20 UNL     1      23.728   6.605  50.010  1.00  0.00     0.085 A 
HETATM   26  C21 UNL     1      24.323   6.641  51.384  1.00  0.00     0.050 C 
HETATM   27  H6  UNL     1      25.647   3.381  51.796  1.00  0.00     0.145 HD
HETATM   28  H7  UNL     1      25.889   5.036  48.773  1.00  0.00     0.184 HD
ENDROOT
BRANCH   4  29
HETATM   29  C3  UNL     1      22.158  -1.238  54.692  1.00  0.00     0.270 C 
HETATM   30  N3  UNL     1      20.754  -1.241  54.490  1.00  0.00    -0.365 N 
HETATM   31  H4  UNL     1      19.787  -0.840  54.519  1.00  0.00     0.159 HD
HETATM   32  H5  UNL     1      20.354  -2.120  54.063  1.00  0.00     0.159 HD
HETATM   33  O1  UNL     1      22.570  -1.979  55.598  1.00  0.00    -0.266 OA
ENDBRANCH   4  29
TORSDOF 1
ENDMDL
MODEL 5
REMARK VINA RESULT:      -9.2      3.132      7.035
REMARK  1 active torsions:
REMARK  status: ('A' for Active; 'I' for Inactive)
REMARK    1  A    between atoms: C2_4  and  C3_5 
REMARK       I    between atoms: C3_5  and  N3_6 
ROOT
HETATM    1  C1  UNL     1      20.869  -0.072  52.414  1.00  0.00     0.180 C 
HETATM    2  N1  UNL     1      22.215   0.181  52.845  1.00  0.00    -0.271 N 
HETATM    3  N2  UNL     1      22.966  -0.710  53.464  1.00  0.00    -0.166 NA
HETATM    4  C2  UNL     1      24.176  -0.214  53.752  1.00  0.00     0.153 A 
HETATM    5  C4  UNL     1      24.211   1.079  53.291  1.00  0.00     0.009 A 
HETATM    6  C5  UNL     1      22.971   1.281  52.736  1.00  0.00     0.084 A 
HETATM    7  C6  UNL     1      22.535   2.505  52.109  1.00  0.00     0.065 C 
HETATM    8  N4  UNL     1      21.318   2.632  51.594  1.00  0.00    -0.162 NA
HETATM    9  C7  UNL     1      21.048   3.874  51.022  1.00  0.00     0.248 A 
HETATM   10  N5  UNL     1      20.926   2.945  50.104  1.00  0.00    -0.202 NA
HETATM   11  N6  UNL     1      20.728   4.853  50.048  1.00  0.00    -0.293 N 
HETATM   12  N7  UNL     1      21.782   5.558  49.504  1.00  0.00    -0.311 N 
HETATM   13  C8  UNL     1      22.178   6.711  50.185  1.00  0.00     0.144 C 
HETATM   14  C9  UNL     1      23.578   6.892  50.609  1.00  0.00     0.030 C 
HETATM   15  C10 UNL     1      24.478   5.682  50.541  1.00  0.00     0.014 C 
HETATM   16  C11 UNL     1      24.053   4.597  51.415  1.00  0.00    -0.013 C 
HETATM   17  C12 UNL     1      23.565   3.581  52.105  1.00  0.00    -0.036 C 
HETATM   18  C13 UNL     1      24.329   3.474  53.360  1.00  0.00     0.045 C 
HETATM   19  C14 UNL     1      25.165   2.194  53.252  1.00  0.00     0.048 C 
HETATM   20  C15 UNL     1      24.720   5.249  49.114  1.00  0.00     0.045 C 
HETATM   21  C16 UNL     1      23.687   5.874  48.212  1.00  0.00    -0.046 A 
HETATM   22  C17 UNL     1      23.732   6.870  47.328  1.00  0.00     0.005 A 
HETATM   23  C18 UNL     1      22.417   7.043  46.746  1.00  0.00    -0.001 A 
HETATM   24  C19 UNL     1      21.564   6.183  47.246  1.00  0.00     0.010 A 
HETATM   25  C20 UNL     1      22.271   5.329  48.242  1.00  0.00     0.085 A 
HETATM   26  C21 UNL     1      22.271   3.938  47.687  1.00  0.00     0.050 C 
HETATM   27  H6  UNL     1      21.098   1.971  50.389  1.00  0.00     0.145 HD
HETATM   28  H7  UNL     1      19.739   5.077  49.722  1.00  0.00     0.184 HD
ENDROOT
BRANCH   4  29
HETATM   29  C3  UNL     1      25.274  -0.887  54.425  1.00  0.00     0.270 C 
HETATM   30  N3  UNL     1      25.174  -1.285  55.783  1.00  0.00    -0.365 N 
HETATM   31  H4  UNL     1      25.127  -1.135  56.819  1.00  0.00     0.159 HD
HETATM   32  H5  UNL     1      25.098  -2.325  55.952  1.00  0.00     0.159 HD
HETATM   33  O1  UNL     1      26.349  -1.154  53.867  1.00  0.00    -0.266 OA
ENDBRANCH   4  29
TORSDOF 1
ENDMDL
MODEL 6
REMARK VINA RESULT:      -8.7      3.374      5.746
REMARK  1 active torsions:
REMARK  status: ('A' for Active; 'I' for Inactive)
REMARK    1  A    between atoms: C2_4  and  C3_5 
REMARK       I    between atoms: C3_5  and  N3_6 
ROOT
HETATM    1  C1  UNL     1      22.458  -0.917  54.021  1.00  0.00     0.180 C 
HETATM    2  N1  UNL     1      21.148  -0.709  53.473  1.00  0.00    -0.271 N 
HETATM    3  N2  UNL     1      20.069  -1.342  53.892  1.00  0.00    -0.166 NA
HETATM    4  C2  UNL     1      18.982  -0.960  53.210  1.00  0.00     0.153 A 
HETATM    5  C4  UNL     1      19.381  -0.021  52.291  1.00  0.00     0.009 A 
HETATM    6  C5  UNL     1      20.735   0.103  52.491  1.00  0.00     0.084 A 
HETATM    7  C6  UNL     1      21.602   0.989  51.754  1.00  0.00     0.065 C 
HETATM    8  N4  UNL     1      22.906   1.055  51.998  1.00  0.00    -0.162 NA
HETATM    9  C7  UNL     1      23.607   1.961  51.205  1.00  0.00     0.248 A 
HETATM   10  N5  UNL     1      23.741   2.303  52.465  1.00  0.00    -0.202 NA
HETATM   11  N6  UNL     1      24.399   3.078  50.837  1.00  0.00    -0.293 N 
HETATM   12  N7  UNL     1      23.728   4.193  50.379  1.00  0.00    -0.311 N 
HETATM   13  C8  UNL     1      23.455   4.239  49.011  1.00  0.00     0.144 C 
HETATM   14  C9  UNL     1      22.079   4.441  48.523  1.00  0.00     0.030 C 
HETATM   15  C10 UNL     1      20.966   4.304  49.533  1.00  0.00     0.014 C 
HETATM   16  C11 UNL     1      20.870   2.971  50.109  1.00  0.00    -0.013 C 
HETATM   17  C12 UNL     1      20.900   1.798  50.719  1.00  0.00    -0.036 C 
HETATM   18  C13 UNL     1      19.829   0.962  50.150  1.00  0.00     0.045 C 
HETATM   19  C14 UNL     1      18.769   0.807  51.245  1.00  0.00     0.048 C 
HETATM   20  C15 UNL     1      21.013   5.406  50.565  1.00  0.00     0.045 C 
HETATM   21  C16 UNL     1      22.366   6.069  50.538  1.00  0.00    -0.046 A 
HETATM   22  C17 UNL     1      22.797   7.243  50.080  1.00  0.00     0.005 A 
HETATM   23  C18 UNL     1      24.221   7.351  50.323  1.00  0.00    -0.001 A 
HETATM   24  C19 UNL     1      24.678   6.277  50.919  1.00  0.00     0.010 A 
HETATM   25  C20 UNL     1      23.550   5.327  51.132  1.00  0.00     0.085 A 
HETATM   26  C21 UNL     1      23.362   5.214  52.613  1.00  0.00     0.050 C 
HETATM   27  H6  UNL     1      23.271   1.717  53.167  1.00  0.00     0.145 HD
HETATM   28  H7  UNL     1      25.463   3.104  50.886  1.00  0.00     0.184 HD
ENDROOT
BRANCH   4  29
HETATM   29  C3  UNL     1      17.616  -1.427  53.381  1.00  0.00     0.270 C 
HETATM   30  N3  UNL     1      17.334  -2.780  53.703  1.00  0.00    -0.365 N 
HETATM   31  H4  UNL     1      17.265  -3.809  53.518  1.00  0.00     0.159 HD
HETATM   32  H5  UNL     1      16.982  -2.954  54.684  1.00  0.00     0.159 HD
HETATM   33  O1  UNL     1      16.627  -0.689  53.259  1.00  0.00    -0.266 OA
ENDBRANCH   4  29
TORSDOF 1
ENDMDL
MODEL 7
REMARK VINA RESULT:      -8.5     10.289     11.987
REMARK  1 active torsions:
REMARK  status: ('A' for Active; 'I' for Inactive)
REMARK    1  A    between atoms: C2_4  and  C3_5 
REMARK       I    between atoms: C3_5  and  N3_6 
ROOT
HETATM    1  C1  UNL     1      30.568  11.215  44.885  1.00  0.00     0.180 C 
HETATM    2  N1  UNL     1      29.870  10.824  46.076  1.00  0.00    -0.271 N 
HETATM    3  N2  UNL     1      28.698  11.313  46.434  1.00  0.00    -0.166 NA
HETATM    4  C2  UNL     1      28.274  10.777  47.585  1.00  0.00     0.153 A 
HETATM    5  C4  UNL     1      29.232   9.884  48.000  1.00  0.00     0.009 A 
HETATM    6  C5  UNL     1      30.205   9.947  47.032  1.00  0.00     0.084 A 
HETATM    7  C6  UNL     1      31.421   9.172  47.030  1.00  0.00     0.065 C 
HETATM    8  N4  UNL     1      32.322   9.286  46.062  1.00  0.00    -0.162 NA
HETATM    9  C7  UNL     1      33.442   8.468  46.201  1.00  0.00     0.248 A 
HETATM   10  N5  UNL     1      32.832   8.170  45.079  1.00  0.00    -0.202 NA
HETATM   11  N6  UNL     1      34.402   7.462  45.926  1.00  0.00    -0.293 N 
HETATM   12  N7  UNL     1      34.248   6.259  46.585  1.00  0.00    -0.311 N 
HETATM   13  C8  UNL     1      34.850   6.154  47.840  1.00  0.00     0.144 C 
HETATM   14  C9  UNL     1      34.063   5.760  49.022  1.00  0.00     0.030 C 
HETATM   15  C10 UNL     1      32.560   5.765  48.879  1.00  0.00     0.014 C 
HETATM   16  C11 UNL     1      32.011   7.083  48.597  1.00  0.00    -0.013 C 
HETATM   17  C12 UNL     1      31.557   8.259  48.200  1.00  0.00    -0.036 C 
HETATM   18  C13 UNL     1      30.960   8.934  49.365  1.00  0.00     0.045 C 
HETATM   19  C14 UNL     1      29.447   8.964  49.124  1.00  0.00     0.048 C 
HETATM   20  C15 UNL     1      32.091   4.696  47.919  1.00  0.00     0.045 C 
HETATM   21  C16 UNL     1      33.251   4.221  47.082  1.00  0.00    -0.046 A 
HETATM   22  C17 UNL     1      33.982   3.107  47.087  1.00  0.00     0.005 A 
HETATM   23  C18 UNL     1      34.983   3.196  46.044  1.00  0.00    -0.001 A 
HETATM   24  C19 UNL     1      34.888   4.331  45.397  1.00  0.00     0.010 A 
HETATM   25  C20 UNL     1      33.769   5.124  45.979  1.00  0.00     0.085 A 
HETATM   26  C21 UNL     1      32.726   5.237  44.910  1.00  0.00     0.050 C 
HETATM   27  H6  UNL     1      31.982   8.700  44.846  1.00  0.00     0.145 HD
HETATM   28  H7  UNL     1      35.224   7.579  45.259  1.00  0.00     0.184 HD
ENDROOT
BRANCH   4  29
HETATM   29  C3  UNL     1      27.038  11.060  48.295  1.00  0.00     0.270 C 
HETATM   30  N3  UNL     1      26.102  10.035  48.583  1.00  0.00    -0.365 N 
HETATM   31  H4  UNL     1      25.367   9.324  48.355  1.00  0.00     0.159 HD
HETATM   32  H5  UNL     1      26.029   9.752  49.599  1.00  0.00     0.159 HD
HETATM   33  O1  UNL     1      26.728  12.195  48.688  1.00  0.00    -0.266 OA
ENDBRANCH   4  29
TORSDOF 1
ENDMDL
MODEL 8
REMARK VINA RESULT:      -8.3      9.789     12.852
REMARK  1 active torsions:
REMARK  status: ('A' for Active; 'I' for Inactive)
REMARK    1  A    between atoms: C2_4  and  C3_5 
REMARK       I    between atoms: C3_5  and  N3_6 
ROOT
HETATM    1  C1  UNL     1      28.069   5.419  48.365  1.00  0.00     0.180 C 
HETATM    2  N1  UNL     1      29.484   5.583  48.192  1.00  0.00    -0.271 N 
HETATM    3  N2  UNL     1      30.305   4.594  47.893  1.00  0.00    -0.166 NA
HETATM    4  C2  UNL     1      31.569   5.023  47.790  1.00  0.00     0.153 A 
HETATM    5  C4  UNL     1      31.568   6.374  48.037  1.00  0.00     0.009 A 
HETATM    6  C5  UNL     1      30.250   6.678  48.283  1.00  0.00     0.084 A 
HETATM    7  C6  UNL     1      29.748   7.995  48.589  1.00  0.00     0.065 C 
HETATM    8  N4  UNL     1      28.459   8.217  48.818  1.00  0.00    -0.162 NA
HETATM    9  C7  UNL     1      28.131   9.542  49.098  1.00  0.00     0.248 A 
HETATM   10  N5  UNL     1      27.483   9.157  48.024  1.00  0.00    -0.202 NA
HETATM   11  N6  UNL     1      27.541  10.825  48.973  1.00  0.00    -0.293 N 
HETATM   12  N7  UNL     1      28.320  11.817  48.413  1.00  0.00    -0.311 N 
HETATM   13  C8  UNL     1      29.133  12.539  49.289  1.00  0.00     0.144 C 
HETATM   14  C9  UNL     1      30.583  12.650  49.052  1.00  0.00     0.030 C 
HETATM   15  C10 UNL     1      31.182  11.728  48.017  1.00  0.00     0.014 C 
HETATM   16  C11 UNL     1      31.056  10.319  48.358  1.00  0.00    -0.013 C 
HETATM   17  C12 UNL     1      30.800   9.050  48.621  1.00  0.00    -0.036 C 
HETATM   18  C13 UNL     1      32.026   8.441  49.165  1.00  0.00     0.045 C 
HETATM   19  C14 UNL     1      32.542   7.471  48.097  1.00  0.00     0.048 C 
HETATM   20  C15 UNL     1      30.692  12.061  46.627  1.00  0.00     0.045 C 
HETATM   21  C16 UNL     1      29.458  12.922  46.717  1.00  0.00    -0.046 A 
HETATM   22  C17 UNL     1      29.233  14.217  46.500  1.00  0.00     0.005 A 
HETATM   23  C18 UNL     1      27.834  14.500  46.747  1.00  0.00    -0.001 A 
HETATM   24  C19 UNL     1      27.192  13.416  47.108  1.00  0.00     0.010 A 
HETATM   25  C20 UNL     1      28.150  12.275  47.131  1.00  0.00     0.085 A 
HETATM   26  C21 UNL     1      27.711  11.329  46.057  1.00  0.00     0.050 C 
HETATM   27  H6  UNL     1      27.631   8.193  47.700  1.00  0.00     0.145 HD
HETATM   28  H7  UNL     1      26.552  11.065  49.286  1.00  0.00     0.184 HD
ENDROOT
BRANCH   4  29
HETATM   29  C3  UNL     1      32.751   4.238  47.476  1.00  0.00     0.270 C 
HETATM   30  N3  UNL     1      33.112   3.105  48.251  1.00  0.00    -0.365 N 
HETATM   31  H4  UNL     1      33.467   2.607  49.101  1.00  0.00     0.159 HD
HETATM   32  H5  UNL     1      32.981   2.168  47.781  1.00  0.00     0.159 HD
HETATM   33  O1  UNL     1      33.507   4.500  46.527  1.00  0.00    -0.266 OA
ENDBRANCH   4  29
TORSDOF 1
ENDMDL
MODEL 9
REMARK VINA RESULT:      -8.3      5.157      7.224
REMARK  1 active torsions:
REMARK  status: ('A' for Active; 'I' for Inactive)
REMARK    1  A    between atoms: C2_4  and  C3_5 
REMARK       I    between atoms: C3_5  and  N3_6 
ROOT
HETATM    1  C1  UNL     1      26.268   8.900  48.188  1.00  0.00     0.180 C 
HETATM    2  N1  UNL     1      25.320   8.396  47.235  1.00  0.00    -0.271 N 
HETATM    3  N2  UNL     1      25.308   8.740  45.961  1.00  0.00    -0.166 NA
HETATM    4  C2  UNL     1      24.322   8.123  45.298  1.00  0.00     0.153 A 
HETATM    5  C4  UNL     1      23.653   7.329  46.198  1.00  0.00     0.009 A 
HETATM    6  C5  UNL     1      24.308   7.531  47.389  1.00  0.00     0.084 A 
HETATM    7  C6  UNL     1      23.968   6.897  48.639  1.00  0.00     0.065 C 
HETATM    8  N4  UNL     1      24.644   7.142  49.755  1.00  0.00    -0.162 NA
HETATM    9  C7  UNL     1      24.194   6.450  50.878  1.00  0.00     0.248 A 
HETATM   10  N5  UNL     1      25.443   6.122  50.645  1.00  0.00    -0.202 NA
HETATM   11  N6  UNL     1      24.187   5.567  51.987  1.00  0.00    -0.293 N 
HETATM   12  N7  UNL     1      23.599   4.333  51.795  1.00  0.00    -0.311 N 
HETATM   13  C8  UNL     1      22.225   4.255  52.030  1.00  0.00     0.144 C 
HETATM   14  C9  UNL     1      21.312   3.739  50.995  1.00  0.00     0.030 C 
HETATM   15  C10 UNL     1      21.872   3.580  49.602  1.00  0.00     0.014 C 
HETATM   16  C11 UNL     1      22.298   4.837  49.005  1.00  0.00    -0.013 C 
HETATM   17  C12 UNL     1      22.807   5.968  48.547  1.00  0.00    -0.036 C 
HETATM   18  C13 UNL     1      21.857   6.534  47.574  1.00  0.00     0.045 C 
HETATM   19  C14 UNL     1      22.514   6.403  46.196  1.00  0.00     0.048 C 
HETATM   20  C15 UNL     1      22.924   2.497  49.547  1.00  0.00     0.045 C 
HETATM   21  C16 UNL     1      23.401   2.182  50.942  1.00  0.00    -0.046 A 
HETATM   22  C17 UNL     1      23.190   1.157  51.767  1.00  0.00     0.005 A 
HETATM   23  C18 UNL     1      23.910   1.390  53.002  1.00  0.00    -0.001 A 
HETATM   24  C19 UNL     1      24.558   2.528  52.961  1.00  0.00     0.010 A 
HETATM   25  C20 UNL     1      24.314   3.172  51.640  1.00  0.00     0.085 A 
HETATM   26  C21 UNL     1      25.634   3.203  50.931  1.00  0.00     0.050 C 
HETATM   27  H6  UNL     1      25.906   6.561  49.838  1.00  0.00     0.145 HD
HETATM   28  H7  UNL     1      24.597   5.796  52.943  1.00  0.00     0.184 HD
ENDROOT
BRANCH   4  29
HETATM   29  C3  UNL     1      23.988   8.243  43.889  1.00  0.00     0.270 C 
HETATM   30  N3  UNL     1      22.854   8.979  43.459  1.00  0.00    -0.365 N 
HETATM   31  H4  UNL     1      21.831   9.163  43.330  1.00  0.00     0.159 HD
HETATM   32  H5  UNL     1      23.058   9.893  42.971  1.00  0.00     0.159 HD
HETATM   33  O1  UNL     1      24.661   7.722  42.987  1.00  0.00    -0.266 OA
ENDBRANCH   4  29
TORSDOF 1
ENDMDL
