MODEL 1
REMARK VINA RESULT:      -7.4      0.000      0.000
REMARK  7 active torsions:
REMARK  status: ('A' for Active; 'I' for Inactive)
REMARK    1  A    between atoms: C2_2  and  O1_3 
REMARK    2  A    between atoms: O1_3  and  C3_4 
REMARK       I    between atoms: C3_4  and  N1_6 
REMARK    3  A    between atoms: N1_6  and  C4_7 
REMARK    4  A    between atoms: C7_10  and  N2_11 
REMARK    5  A    between atoms: N2_11  and  C8_12 
REMARK    6  A    between atoms: C12_18  and  O3_19 
REMARK    7  A    between atoms: C14_21  and  O4_22 
ROOT
HETATM    1  N2  UNL     1      23.249   2.806  52.705  1.00  0.00    -0.340 N 
HETATM    2  H9  UNL     1      23.322   3.396  53.556  1.00  0.00     0.167 HD
ENDROOT
BRANCH   1   3
HETATM    3  C7  UNL     1      22.071   2.168  52.240  1.00  0.00     0.033 A 
HETATM    4  C6  UNL     1      20.838   2.754  52.420  1.00  0.00     0.032 A 
HETATM    5  C5  UNL     1      19.726   2.074  51.963  1.00  0.00     0.032 A 
HETATM    6  C4  UNL     1      19.829   0.826  51.334  1.00  0.00     0.036 A 
HETATM    7  C19 UNL     1      21.084   0.275  51.174  1.00  0.00     0.032 A 
HETATM    8  C18 UNL     1      22.198   0.947  51.626  1.00  0.00     0.032 A 
BRANCH   6   9
HETATM    9  N1  UNL     1      18.530   0.362  50.973  1.00  0.00    -0.303 N 
HETATM   10  C3  UNL     1      18.000  -0.497  52.004  1.00  0.00     0.365 C 
HETATM   11  O2  UNL     1      18.629  -0.766  53.048  1.00  0.00    -0.238 OA
HETATM   12  H6  UNL     1      17.985   0.583  50.091  1.00  0.00     0.171 HD
BRANCH  10  13
HETATM   13  O1  UNL     1      16.745  -1.070  51.877  1.00  0.00    -0.304 OA
BRANCH  13  14
HETATM   14  C2  UNL     1      15.605  -0.713  52.599  1.00  0.00     0.176 C 
HETATM   15  C1  UNL     1      15.175   0.712  52.447  1.00  0.00     0.034 C 
ENDBRANCH  13  14
ENDBRANCH  10  13
ENDBRANCH   6   9
ENDBRANCH   1   3
BRANCH   1  16
HETATM   16  C8  UNL     1      24.535   2.766  52.123  1.00  0.00     0.142 A 
HETATM   17  N3  UNL     1      24.868   3.541  51.053  1.00  0.00    -0.224 NA
HETATM   18  C9  UNL     1      26.129   3.473  50.532  1.00  0.00     0.236 A 
HETATM   19  N4  UNL     1      27.104   2.676  51.008  1.00  0.00    -0.241 NA
HETATM   20  C10 UNL     1      26.846   1.868  52.084  1.00  0.00     0.075 A 
HETATM   21  C11 UNL     1      27.767   1.023  52.656  1.00  0.00     0.072 A 
HETATM   22  C17 UNL     1      25.565   1.970  52.572  1.00  0.00     0.042 A 
HETATM   23  C12 UNL     1      27.478   0.234  53.738  1.00  0.00     0.103 A 
HETATM   24  C14 UNL     1      26.186   0.289  54.286  1.00  0.00     0.102 A 
HETATM   25  C16 UNL     1      25.296   1.157  53.671  1.00  0.00     0.057 A 
BRANCH  23  26
HETATM   26  O3  UNL     1      28.411  -0.606  54.301  1.00  0.00    -0.353 OA
HETATM   27  C13 UNL     1      29.672  -0.921  53.837  1.00  0.00     0.210 C 
ENDBRANCH  23  26
BRANCH  24  28
HETATM   28  O4  UNL     1      25.954  -0.528  55.373  1.00  0.00    -0.353 OA
HETATM   29  C15 UNL     1      24.739  -1.202  55.552  1.00  0.00     0.210 C 
ENDBRANCH  24  28
ENDBRANCH   1  16
TORSDOF 7
ENDMDL
MODEL 2
REMARK VINA RESULT:      -7.3      2.061      8.729
REMARK  7 active torsions:
REMARK  status: ('A' for Active; 'I' for Inactive)
REMARK    1  A    between atoms: C2_2  and  O1_3 
REMARK    2  A    between atoms: O1_3  and  C3_4 
REMARK       I    between atoms: C3_4  and  N1_6 
REMARK    3  A    between atoms: N1_6  and  C4_7 
REMARK    4  A    between atoms: C7_10  and  N2_11 
REMARK    5  A    between atoms: N2_11  and  C8_12 
REMARK    6  A    between atoms: C12_18  and  O3_19 
REMARK    7  A    between atoms: C14_21  and  O4_22 
ROOT
HETATM    1  N2  UNL     1      20.929   1.517  52.827  1.00  0.00    -0.340 N 
HETATM    2  H9  UNL     1      20.349   1.898  53.600  1.00  0.00     0.167 HD
ENDROOT
BRANCH   1   3
HETATM    3  C7  UNL     1      22.234   0.980  52.962  1.00  0.00     0.033 A 
HETATM    4  C6  UNL     1      22.463  -0.118  53.762  1.00  0.00     0.032 A 
HETATM    5  C5  UNL     1      23.759  -0.582  53.868  1.00  0.00     0.032 A 
HETATM    6  C4  UNL     1      24.822   0.030  53.190  1.00  0.00     0.036 A 
HETATM    7  C19 UNL     1      24.548   1.127  52.398  1.00  0.00     0.032 A 
HETATM    8  C18 UNL     1      23.259   1.597  52.287  1.00  0.00     0.032 A 
BRANCH   6   9
HETATM    9  N1  UNL     1      26.037  -0.654  53.485  1.00  0.00    -0.303 N 
HETATM   10  C3  UNL     1      26.812   0.091  54.448  1.00  0.00     0.365 C 
HETATM   11  O2  UNL     1      26.428   1.179  54.926  1.00  0.00    -0.238 OA
HETATM   12  H6  UNL     1      26.374  -1.577  53.087  1.00  0.00     0.171 HD
BRANCH  10  13
HETATM   13  O1  UNL     1      28.037  -0.378  54.891  1.00  0.00    -0.304 OA
BRANCH  13  14
HETATM   14  C2  UNL     1      29.258  -0.233  54.230  1.00  0.00     0.176 C 
HETATM   15  C1  UNL     1      29.727  -1.445  53.486  1.00  0.00     0.034 C 
ENDBRANCH  13  14
ENDBRANCH  10  13
ENDBRANCH   6   9
ENDBRANCH   1   3
BRANCH   1  16
HETATM   16  C8  UNL     1      20.171   1.647  51.644  1.00  0.00     0.142 A 
HETATM   17  N3  UNL     1      20.530   2.502  50.646  1.00  0.00    -0.224 NA
HETATM   18  C9  UNL     1      19.768   2.584  49.515  1.00  0.00     0.236 A 
HETATM   19  N4  UNL     1      18.651   1.863  49.300  1.00  0.00    -0.241 NA
HETATM   20  C10 UNL     1      18.226   0.980  50.257  1.00  0.00     0.075 A 
HETATM   21  C11 UNL     1      17.108   0.189  50.139  1.00  0.00     0.072 A 
HETATM   22  C17 UNL     1      19.024   0.933  51.376  1.00  0.00     0.042 A 
HETATM   23  C12 UNL     1      16.716  -0.690  51.113  1.00  0.00     0.103 A 
HETATM   24  C14 UNL     1      17.487  -0.787  52.283  1.00  0.00     0.102 A 
HETATM   25  C16 UNL     1      18.603   0.032  52.351  1.00  0.00     0.057 A 
BRANCH  23  26
HETATM   26  O3  UNL     1      15.595  -1.477  50.980  1.00  0.00    -0.353 OA
HETATM   27  C13 UNL     1      14.939  -1.845  49.823  1.00  0.00     0.210 C 
ENDBRANCH  23  26
BRANCH  24  28
HETATM   28  O4  UNL     1      17.042  -1.688  53.228  1.00  0.00    -0.353 OA
HETATM   29  C15 UNL     1      17.825  -2.771  53.651  1.00  0.00     0.210 C 
ENDBRANCH  24  28
ENDBRANCH   1  16
TORSDOF 7
ENDMDL
MODEL 3
REMARK VINA RESULT:      -7.3      4.833      9.040
REMARK  7 active torsions:
REMARK  status: ('A' for Active; 'I' for Inactive)
REMARK    1  A    between atoms: C2_2  and  O1_3 
REMARK    2  A    between atoms: O1_3  and  C3_4 
REMARK       I    between atoms: C3_4  and  N1_6 
REMARK    3  A    between atoms: N1_6  and  C4_7 
REMARK    4  A    between atoms: C7_10  and  N2_11 
REMARK    5  A    between atoms: N2_11  and  C8_12 
REMARK    6  A    between atoms: C12_18  and  O3_19 
REMARK    7  A    between atoms: C14_21  and  O4_22 
ROOT
HETATM    1  N2  UNL     1      26.440   3.151  49.683  1.00  0.00    -0.340 N 
HETATM    2  H9  UNL     1      26.430   2.352  49.020  1.00  0.00     0.167 HD
ENDROOT
BRANCH   1   3
HETATM    3  C7  UNL     1      26.541   4.519  49.327  1.00  0.00     0.033 A 
HETATM    4  C6  UNL     1      27.647   4.988  48.652  1.00  0.00     0.032 A 
HETATM    5  C5  UNL     1      27.697   6.335  48.352  1.00  0.00     0.032 A 
HETATM    6  C4  UNL     1      26.666   7.213  48.712  1.00  0.00     0.036 A 
HETATM    7  C19 UNL     1      25.576   6.700  49.387  1.00  0.00     0.032 A 
HETATM    8  C18 UNL     1      25.518   5.358  49.690  1.00  0.00     0.032 A 
BRANCH   6   9
HETATM    9  N1  UNL     1      26.985   8.533  48.279  1.00  0.00    -0.303 N 
HETATM   10  C3  UNL     1      27.214   9.392  49.416  1.00  0.00     0.365 C 
HETATM   11  O2  UNL     1      27.132   8.988  50.595  1.00  0.00    -0.238 OA
HETATM   12  H6  UNL     1      27.059   8.888  47.284  1.00  0.00     0.171 HD
BRANCH  10  13
HETATM   13  O1  UNL     1      27.542  10.727  49.244  1.00  0.00    -0.304 OA
BRANCH  13  14
HETATM   14  C2  UNL     1      28.633  11.216  48.524  1.00  0.00     0.176 C 
HETATM   15  C1  UNL     1      29.170  12.531  48.996  1.00  0.00     0.034 C 
ENDBRANCH  13  14
ENDBRANCH  10  13
ENDBRANCH   6   9
ENDBRANCH   1   3
BRANCH   1  16
HETATM   16  C8  UNL     1      26.339   2.605  50.981  1.00  0.00     0.142 A 
HETATM   17  N3  UNL     1      27.409   2.542  51.823  1.00  0.00    -0.224 NA
HETATM   18  C9  UNL     1      27.258   2.013  53.073  1.00  0.00     0.236 A 
HETATM   19  N4  UNL     1      26.097   1.535  53.559  1.00  0.00    -0.241 NA
HETATM   20  C10 UNL     1      24.975   1.566  52.772  1.00  0.00     0.075 A 
HETATM   21  C11 UNL     1      23.739   1.113  53.169  1.00  0.00     0.072 A 
HETATM   22  C17 UNL     1      25.177   2.105  51.524  1.00  0.00     0.042 A 
HETATM   23  C12 UNL     1      22.636   1.167  52.359  1.00  0.00     0.103 A 
HETATM   24  C14 UNL     1      22.772   1.705  51.069  1.00  0.00     0.102 A 
HETATM   25  C16 UNL     1      24.040   2.147  50.720  1.00  0.00     0.057 A 
BRANCH  23  26
HETATM   26  O3  UNL     1      21.404   0.712  52.770  1.00  0.00    -0.353 OA
HETATM   27  C13 UNL     1      21.026   0.276  54.023  1.00  0.00     0.210 C 
ENDBRANCH  23  26
BRANCH  24  28
HETATM   28  O4  UNL     1      21.627   1.733  50.300  1.00  0.00    -0.353 OA
HETATM   29  C15 UNL     1      21.592   1.215  48.998  1.00  0.00     0.210 C 
ENDBRANCH  24  28
ENDBRANCH   1  16
TORSDOF 7
ENDMDL
MODEL 4
REMARK VINA RESULT:      -7.1      5.840      8.147
REMARK  7 active torsions:
REMARK  status: ('A' for Active; 'I' for Inactive)
REMARK    1  A    between atoms: C2_2  and  O1_3 
REMARK    2  A    between atoms: O1_3  and  C3_4 
REMARK       I    between atoms: C3_4  and  N1_6 
REMARK    3  A    between atoms: N1_6  and  C4_7 
REMARK    4  A    between atoms: C7_10  and  N2_11 
REMARK    5  A    between atoms: N2_11  and  C8_12 
REMARK    6  A    between atoms: C12_18  and  O3_19 
REMARK    7  A    between atoms: C14_21  and  O4_22 
ROOT
HETATM    1  N2  UNL     1      27.926   6.530  47.936  1.00  0.00    -0.340 N 
HETATM    2  H9  UNL     1      27.989   6.485  46.900  1.00  0.00     0.167 HD
ENDROOT
BRANCH   1   3
HETATM    3  C7  UNL     1      26.999   5.820  48.739  1.00  0.00     0.033 A 
HETATM    4  C6  UNL     1      25.923   6.466  49.308  1.00  0.00     0.032 A 
HETATM    5  C5  UNL     1      25.067   5.724  50.098  1.00  0.00     0.032 A 
HETATM    6  C4  UNL     1      25.268   4.356  50.324  1.00  0.00     0.036 A 
HETATM    7  C19 UNL     1      26.358   3.748  49.734  1.00  0.00     0.032 A 
HETATM    8  C18 UNL     1      27.217   4.480  48.946  1.00  0.00     0.032 A 
BRANCH   6   9
HETATM    9  N1  UNL     1      24.239   3.853  51.172  1.00  0.00    -0.303 N 
HETATM   10  C3  UNL     1      23.343   3.002  50.425  1.00  0.00     0.365 C 
HETATM   11  O2  UNL     1      23.492   2.771  49.207  1.00  0.00    -0.238 OA
HETATM   12  H6  UNL     1      24.101   4.040  52.206  1.00  0.00     0.171 HD
BRANCH  10  13
HETATM   13  O1  UNL     1      22.261   2.395  51.039  1.00  0.00    -0.304 OA
BRANCH  13  14
HETATM   14  C2  UNL     1      22.267   1.789  52.297  1.00  0.00     0.176 C 
HETATM   15  C1  UNL     1      23.259   0.681  52.466  1.00  0.00     0.034 C 
ENDBRANCH  13  14
ENDBRANCH  10  13
ENDBRANCH   6   9
ENDBRANCH   1   3
BRANCH   1  16
HETATM   16  C8  UNL     1      28.926   7.429  48.367  1.00  0.00     0.142 A 
HETATM   17  N3  UNL     1      28.645   8.724  48.683  1.00  0.00    -0.224 NA
HETATM   18  C9  UNL     1      29.646   9.552  49.104  1.00  0.00     0.236 A 
HETATM   19  N4  UNL     1      30.933   9.178  49.240  1.00  0.00    -0.241 NA
HETATM   20  C10 UNL     1      31.293   7.890  48.943  1.00  0.00     0.075 A 
HETATM   21  C11 UNL     1      32.573   7.399  49.053  1.00  0.00     0.072 A 
HETATM   22  C17 UNL     1      30.252   7.096  48.522  1.00  0.00     0.042 A 
HETATM   23  C12 UNL     1      32.897   6.102  48.756  1.00  0.00     0.103 A 
HETATM   24  C14 UNL     1      31.880   5.237  48.319  1.00  0.00     0.102 A 
HETATM   25  C16 UNL     1      30.609   5.782  48.226  1.00  0.00     0.057 A 
BRANCH  23  26
HETATM   26  O3  UNL     1      34.182   5.624  48.873  1.00  0.00    -0.353 OA
HETATM   27  C13 UNL     1      35.369   6.298  48.671  1.00  0.00     0.210 C 
ENDBRANCH  23  26
BRANCH  24  28
HETATM   28  O4  UNL     1      32.267   3.943  48.034  1.00  0.00    -0.353 OA
HETATM   29  C15 UNL     1      32.141   3.394  46.751  1.00  0.00     0.210 C 
ENDBRANCH  24  28
ENDBRANCH   1  16
TORSDOF 7
ENDMDL
MODEL 5
REMARK VINA RESULT:      -7.1      4.680      8.346
REMARK  7 active torsions:
REMARK  status: ('A' for Active; 'I' for Inactive)
REMARK    1  A    between atoms: C2_2  and  O1_3 
REMARK    2  A    between atoms: O1_3  and  C3_4 
REMARK       I    between atoms: C3_4  and  N1_6 
REMARK    3  A    between atoms: N1_6  and  C4_7 
REMARK    4  A    between atoms: C7_10  and  N2_11 
REMARK    5  A    between atoms: N2_11  and  C8_12 
REMARK    6  A    between atoms: C12_18  and  O3_19 
REMARK    7  A    between atoms: C14_21  and  O4_22 
ROOT
HETATM    1  N2  UNL     1      24.565   4.396  49.429  1.00  0.00    -0.340 N 
HETATM    2  H9  UNL     1      24.204   4.298  48.460  1.00  0.00     0.167 HD
ENDROOT
BRANCH   1   3
HETATM    3  C7  UNL     1      24.997   3.333  50.261  1.00  0.00     0.033 A 
HETATM    4  C6  UNL     1      26.330   2.992  50.327  1.00  0.00     0.032 A 
HETATM    5  C5  UNL     1      26.687   1.934  51.140  1.00  0.00     0.032 A 
HETATM    6  C4  UNL     1      25.738   1.219  51.883  1.00  0.00     0.036 A 
HETATM    7  C19 UNL     1      24.413   1.595  51.787  1.00  0.00     0.032 A 
HETATM    8  C18 UNL     1      24.049   2.648  50.979  1.00  0.00     0.032 A 
BRANCH   6   9
HETATM    9  N1  UNL     1      26.385   0.187  52.624  1.00  0.00    -0.303 N 
HETATM   10  C3  UNL     1      26.898   0.709  53.868  1.00  0.00     0.365 C 
HETATM   11  O2  UNL     1      26.768   1.905  54.203  1.00  0.00    -0.238 OA
HETATM   12  H6  UNL     1      26.502  -0.830  52.352  1.00  0.00     0.171 HD
BRANCH  10  13
HETATM   13  O1  UNL     1      27.569  -0.110  54.760  1.00  0.00    -0.304 OA
BRANCH  13  14
HETATM   14  C2  UNL     1      28.910  -0.489  54.676  1.00  0.00     0.176 C 
HETATM   15  C1  UNL     1      29.721   0.261  53.666  1.00  0.00     0.034 C 
ENDBRANCH  13  14
ENDBRANCH  10  13
ENDBRANCH   6   9
ENDBRANCH   1   3
BRANCH   1  16
HETATM   16  C8  UNL     1      24.529   5.772  49.741  1.00  0.00     0.142 A 
HETATM   17  N3  UNL     1      23.489   6.333  50.420  1.00  0.00    -0.224 NA
HETATM   18  C9  UNL     1      23.507   7.668  50.706  1.00  0.00     0.236 A 
HETATM   19  N4  UNL     1      24.504   8.505  50.361  1.00  0.00    -0.241 NA
HETATM   20  C10 UNL     1      25.586   8.015  49.677  1.00  0.00     0.075 A 
HETATM   21  C11 UNL     1      26.661   8.776  49.284  1.00  0.00     0.072 A 
HETATM   22  C17 UNL     1      25.523   6.668  49.412  1.00  0.00     0.042 A 
HETATM   23  C12 UNL     1      27.731   8.252  48.609  1.00  0.00     0.103 A 
HETATM   24  C14 UNL     1      27.730   6.881  48.304  1.00  0.00     0.102 A 
HETATM   25  C16 UNL     1      26.622   6.160  48.723  1.00  0.00     0.057 A 
BRANCH  23  26
HETATM   26  O3  UNL     1      28.803   9.025  48.222  1.00  0.00    -0.353 OA
HETATM   27  C13 UNL     1      29.832   9.513  49.001  1.00  0.00     0.210 C 
ENDBRANCH  23  26
BRANCH  24  28
HETATM   28  O4  UNL     1      28.834   6.411  47.622  1.00  0.00    -0.353 OA
HETATM   29  C15 UNL     1      29.815   5.627  48.245  1.00  0.00     0.210 C 
ENDBRANCH  24  28
ENDBRANCH   1  16
TORSDOF 7
ENDMDL
MODEL 6
REMARK VINA RESULT:      -7.0      4.017      7.085
REMARK  7 active torsions:
REMARK  status: ('A' for Active; 'I' for Inactive)
REMARK    1  A    between atoms: C2_2  and  O1_3 
REMARK    2  A    between atoms: O1_3  and  C3_4 
REMARK       I    between atoms: C3_4  and  N1_6 
REMARK    3  A    between atoms: N1_6  and  C4_7 
REMARK    4  A    between atoms: C7_10  and  N2_11 
REMARK    5  A    between atoms: N2_11  and  C8_12 
REMARK    6  A    between atoms: C12_18  and  O3_19 
REMARK    7  A    between atoms: C14_21  and  O4_22 
ROOT
HETATM    1  N2  UNL     1      23.431   3.661  52.604  1.00  0.00    -0.340 N 
HETATM    2  H9  UNL     1      23.174   4.048  53.533  1.00  0.00     0.167 HD
ENDROOT
BRANCH   1   3
HETATM    3  C7  UNL     1      23.777   4.421  51.458  1.00  0.00     0.033 A 
HETATM    4  C6  UNL     1      23.602   5.788  51.444  1.00  0.00     0.032 A 
HETATM    5  C5  UNL     1      23.938   6.470  50.291  1.00  0.00     0.032 A 
HETATM    6  C4  UNL     1      24.443   5.812  49.162  1.00  0.00     0.036 A 
HETATM    7  C19 UNL     1      24.603   4.442  49.220  1.00  0.00     0.032 A 
HETATM    8  C18 UNL     1      24.270   3.754  50.365  1.00  0.00     0.032 A 
BRANCH   6   9
HETATM    9  N1  UNL     1      24.698   6.759  48.128  1.00  0.00    -0.303 N 
HETATM   10  C3  UNL     1      26.069   7.205  48.182  1.00  0.00     0.365 C 
HETATM   11  O2  UNL     1      26.881   6.790  49.036  1.00  0.00    -0.238 OA
HETATM   12  H6  UNL     1      24.020   7.119  47.397  1.00  0.00     0.171 HD
BRANCH  10  13
HETATM   13  O1  UNL     1      26.553   8.130  47.272  1.00  0.00    -0.304 OA
BRANCH  13  14
HETATM   14  C2  UNL     1      26.132   9.455  47.148  1.00  0.00     0.176 C 
HETATM   15  C1  UNL     1      26.238  10.276  48.394  1.00  0.00     0.034 C 
ENDBRANCH  13  14
ENDBRANCH  10  13
ENDBRANCH   6   9
ENDBRANCH   1   3
BRANCH   1  16
HETATM   16  C8  UNL     1      23.361   2.255  52.714  1.00  0.00     0.142 A 
HETATM   17  N3  UNL     1      22.241   1.559  52.370  1.00  0.00    -0.224 NA
HETATM   18  C9  UNL     1      22.226   0.198  52.486  1.00  0.00     0.236 A 
HETATM   19  N4  UNL     1      23.265  -0.537  52.925  1.00  0.00    -0.241 NA
HETATM   20  C10 UNL     1      24.428   0.092  53.288  1.00  0.00     0.075 A 
HETATM   21  C11 UNL     1      25.551  -0.559  53.741  1.00  0.00     0.072 A 
HETATM   22  C17 UNL     1      24.394   1.460  53.155  1.00  0.00     0.042 A 
HETATM   23  C12 UNL     1      26.700   0.100  54.087  1.00  0.00     0.103 A 
HETATM   24  C14 UNL     1      26.733   1.500  53.977  1.00  0.00     0.102 A 
HETATM   25  C16 UNL     1      25.574   2.106  53.515  1.00  0.00     0.057 A 
BRANCH  23  26
HETATM   26  O3  UNL     1      27.818  -0.564  54.538  1.00  0.00    -0.353 OA
HETATM   27  C13 UNL     1      28.878  -1.052  53.802  1.00  0.00     0.210 C 
ENDBRANCH  23  26
BRANCH  24  28
HETATM   28  O4  UNL     1      27.917   2.108  54.341  1.00  0.00    -0.353 OA
HETATM   29  C15 UNL     1      28.824   2.599  53.392  1.00  0.00     0.210 C 
ENDBRANCH  24  28
ENDBRANCH   1  16
TORSDOF 7
ENDMDL
MODEL 7
REMARK VINA RESULT:      -7.0      3.684      5.381
REMARK  7 active torsions:
REMARK  status: ('A' for Active; 'I' for Inactive)
REMARK    1  A    between atoms: C2_2  and  O1_3 
REMARK    2  A    between atoms: O1_3  and  C3_4 
REMARK       I    between atoms: C3_4  and  N1_6 
REMARK    3  A    between atoms: N1_6  and  C4_7 
REMARK    4  A    between atoms: C7_10  and  N2_11 
REMARK    5  A    between atoms: N2_11  and  C8_12 
REMARK    6  A    between atoms: C12_18  and  O3_19 
REMARK    7  A    between atoms: C14_21  and  O4_22 
ROOT
HETATM    1  N2  UNL     1      22.204  -0.078  52.225  1.00  0.00    -0.340 N 
HETATM    2  H9  UNL     1      21.945  -0.960  51.742  1.00  0.00     0.167 HD
ENDROOT
BRANCH   1   3
HETATM    3  C7  UNL     1      21.810   1.226  51.832  1.00  0.00     0.033 A 
HETATM    4  C6  UNL     1      21.170   2.063  52.719  1.00  0.00     0.032 A 
HETATM    5  C5  UNL     1      20.793   3.314  52.271  1.00  0.00     0.032 A 
HETATM    6  C4  UNL     1      21.046   3.737  50.959  1.00  0.00     0.036 A 
HETATM    7  C19 UNL     1      21.692   2.867  50.104  1.00  0.00     0.032 A 
HETATM    8  C18 UNL     1      22.071   1.618  50.543  1.00  0.00     0.032 A 
BRANCH   6   9
HETATM    9  N1  UNL     1      20.549   5.061  50.777  1.00  0.00    -0.303 N 
HETATM   10  C3  UNL     1      21.590   6.028  51.030  1.00  0.00     0.365 C 
HETATM   11  O2  UNL     1      22.749   5.700  51.361  1.00  0.00    -0.238 OA
HETATM   12  H6  UNL     1      19.569   5.352  50.496  1.00  0.00     0.171 HD
BRANCH  10  13
HETATM   13  O1  UNL     1      21.343   7.385  50.914  1.00  0.00    -0.304 OA
BRANCH  13  14
HETATM   14  C2  UNL     1      21.365   8.123  49.730  1.00  0.00     0.176 C 
HETATM   15  C1  UNL     1      22.704   8.672  49.347  1.00  0.00     0.034 C 
ENDBRANCH  13  14
ENDBRANCH  10  13
ENDBRANCH   6   9
ENDBRANCH   1   3
BRANCH   1  16
HETATM   16  C8  UNL     1      23.015  -0.436  53.324  1.00  0.00     0.142 A 
HETATM   17  N3  UNL     1      22.529  -1.148  54.379  1.00  0.00    -0.224 NA
HETATM   18  C9  UNL     1      23.357  -1.478  55.413  1.00  0.00     0.236 A 
HETATM   19  N4  UNL     1      24.661  -1.148  55.477  1.00  0.00    -0.241 NA
HETATM   20  C10 UNL     1      25.223  -0.434  54.452  1.00  0.00     0.075 A 
HETATM   21  C11 UNL     1      26.543  -0.052  54.408  1.00  0.00     0.072 A 
HETATM   22  C17 UNL     1      24.352  -0.124  53.435  1.00  0.00     0.042 A 
HETATM   23  C12 UNL     1      27.076   0.655  53.363  1.00  0.00     0.103 A 
HETATM   24  C14 UNL     1      26.239   1.006  52.291  1.00  0.00     0.102 A 
HETATM   25  C16 UNL     1      24.917   0.596  52.385  1.00  0.00     0.057 A 
BRANCH  23  26
HETATM   26  O3  UNL     1      28.400   1.030  53.332  1.00  0.00    -0.353 OA
HETATM   27  C13 UNL     1      28.968   2.206  53.776  1.00  0.00     0.210 C 
ENDBRANCH  23  26
BRANCH  24  28
HETATM   28  O4  UNL     1      26.831   1.718  51.268  1.00  0.00    -0.353 OA
HETATM   29  C15 UNL     1      26.301   2.927  50.798  1.00  0.00     0.210 C 
ENDBRANCH  24  28
ENDBRANCH   1  16
TORSDOF 7
ENDMDL
MODEL 8
REMARK VINA RESULT:      -6.9      4.754      8.771
REMARK  7 active torsions:
REMARK  status: ('A' for Active; 'I' for Inactive)
REMARK    1  A    between atoms: C2_2  and  O1_3 
REMARK    2  A    between atoms: O1_3  and  C3_4 
REMARK       I    between atoms: C3_4  and  N1_6 
REMARK    3  A    between atoms: N1_6  and  C4_7 
REMARK    4  A    between atoms: C7_10  and  N2_11 
REMARK    5  A    between atoms: N2_11  and  C8_12 
REMARK    6  A    between atoms: C12_18  and  O3_19 
REMARK    7  A    between atoms: C14_21  and  O4_22 
ROOT
HETATM    1  N2  UNL     1      26.404   3.443  49.543  1.00  0.00    -0.340 N 
HETATM    2  H9  UNL     1      27.067   2.666  49.359  1.00  0.00     0.167 HD
ENDROOT
BRANCH   1   3
HETATM    3  C7  UNL     1      26.625   4.809  49.232  1.00  0.00     0.033 A 
HETATM    4  C6  UNL     1      27.764   5.201  48.564  1.00  0.00     0.032 A 
HETATM    5  C5  UNL     1      27.933   6.548  48.308  1.00  0.00     0.032 A 
HETATM    6  C4  UNL     1      26.986   7.500  48.708  1.00  0.00     0.036 A 
HETATM    7  C19 UNL     1      25.859   7.064  49.375  1.00  0.00     0.032 A 
HETATM    8  C18 UNL     1      25.683   5.723  49.633  1.00  0.00     0.032 A 
BRANCH   6   9
HETATM    9  N1  UNL     1      27.419   8.801  48.316  1.00  0.00    -0.303 N 
HETATM   10  C3  UNL     1      27.508   9.668  49.467  1.00  0.00     0.365 C 
HETATM   11  O2  UNL     1      27.233   9.284  50.623  1.00  0.00    -0.238 OA
HETATM   12  H6  UNL     1      27.657   9.139  47.340  1.00  0.00     0.171 HD
BRANCH  10  13
HETATM   13  O1  UNL     1      27.911  10.986  49.335  1.00  0.00    -0.304 OA
BRANCH  13  14
HETATM   14  C2  UNL     1      28.915  11.455  48.485  1.00  0.00     0.176 C 
HETATM   15  C1  UNL     1      30.309  11.074  48.876  1.00  0.00     0.034 C 
ENDBRANCH  13  14
ENDBRANCH  10  13
ENDBRANCH   6   9
ENDBRANCH   1   3
BRANCH   1  16
HETATM   16  C8  UNL     1      25.267   2.875  50.156  1.00  0.00     0.142 A 
HETATM   17  N3  UNL     1      24.001   3.176  49.752  1.00  0.00    -0.224 NA
HETATM   18  C9  UNL     1      22.934   2.592  50.372  1.00  0.00     0.236 A 
HETATM   19  N4  UNL     1      23.034   1.710  51.385  1.00  0.00    -0.241 NA
HETATM   20  C10 UNL     1      24.274   1.356  51.847  1.00  0.00     0.075 A 
HETATM   21  C11 UNL     1      24.494   0.461  52.867  1.00  0.00     0.072 A 
HETATM   22  C17 UNL     1      25.316   1.970  51.193  1.00  0.00     0.042 A 
HETATM   23  C12 UNL     1      25.748   0.122  53.299  1.00  0.00     0.103 A 
HETATM   24  C14 UNL     1      26.858   0.715  52.674  1.00  0.00     0.102 A 
HETATM   25  C16 UNL     1      26.582   1.609  51.651  1.00  0.00     0.057 A 
BRANCH  23  26
HETATM   26  O3  UNL     1      25.953  -0.777  54.320  1.00  0.00    -0.353 OA
HETATM   27  C13 UNL     1      25.506  -0.709  55.624  1.00  0.00     0.210 C 
ENDBRANCH  23  26
BRANCH  24  28
HETATM   28  O4  UNL     1      28.096   0.335  53.152  1.00  0.00    -0.353 OA
HETATM   29  C15 UNL     1      28.884   1.187  53.936  1.00  0.00     0.210 C 
ENDBRANCH  24  28
ENDBRANCH   1  16
TORSDOF 7
ENDMDL
MODEL 9
REMARK VINA RESULT:      -6.6      2.571      3.977
REMARK  7 active torsions:
REMARK  status: ('A' for Active; 'I' for Inactive)
REMARK    1  A    between atoms: C2_2  and  O1_3 
REMARK    2  A    between atoms: O1_3  and  C3_4 
REMARK       I    between atoms: C3_4  and  N1_6 
REMARK    3  A    between atoms: N1_6  and  C4_7 
REMARK    4  A    between atoms: C7_10  and  N2_11 
REMARK    5  A    between atoms: N2_11  and  C8_12 
REMARK    6  A    between atoms: C12_18  and  O3_19 
REMARK    7  A    between atoms: C14_21  and  O4_22 
ROOT
HETATM    1  N2  UNL     1      21.363   0.555  51.579  1.00  0.00    -0.340 N 
HETATM    2  H9  UNL     1      22.091   0.552  50.838  1.00  0.00     0.167 HD
ENDROOT
BRANCH   1   3
HETATM    3  C7  UNL     1      20.049   1.071  51.445  1.00  0.00     0.033 A 
HETATM    4  C6  UNL     1      19.748   2.344  51.875  1.00  0.00     0.032 A 
HETATM    5  C5  UNL     1      18.446   2.783  51.737  1.00  0.00     0.032 A 
HETATM    6  C4  UNL     1      17.448   1.973  51.177  1.00  0.00     0.036 A 
HETATM    7  C19 UNL     1      17.794   0.704  50.759  1.00  0.00     0.032 A 
HETATM    8  C18 UNL     1      19.090   0.259  50.893  1.00  0.00     0.032 A 
BRANCH   6   9
HETATM    9  N1  UNL     1      16.210   2.678  51.162  1.00  0.00    -0.303 N 
HETATM   10  C3  UNL     1      15.297   2.111  52.125  1.00  0.00     0.365 C 
HETATM   11  O2  UNL     1      15.598   1.138  52.848  1.00  0.00    -0.238 OA
HETATM   12  H6  UNL     1      15.942   3.505  50.555  1.00  0.00     0.171 HD
BRANCH  10  13
HETATM   13  O1  UNL     1      14.025   2.632  52.293  1.00  0.00    -0.304 OA
BRANCH  13  14
HETATM   14  C2  UNL     1      13.710   3.980  52.478  1.00  0.00     0.176 C 
HETATM   15  C1  UNL     1      13.201   4.334  53.840  1.00  0.00     0.034 C 
ENDBRANCH  13  14
ENDBRANCH  10  13
ENDBRANCH   6   9
ENDBRANCH   1   3
BRANCH   1  16
HETATM   16  C8  UNL     1      21.940  -0.041  52.721  1.00  0.00     0.142 A 
HETATM   17  N3  UNL     1      21.204  -0.771  53.605  1.00  0.00    -0.224 NA
HETATM   18  C9  UNL     1      21.812  -1.336  54.690  1.00  0.00     0.236 A 
HETATM   19  N4  UNL     1      23.125  -1.226  54.967  1.00  0.00    -0.241 NA
HETATM   20  C10 UNL     1      23.932  -0.508  54.123  1.00  0.00     0.075 A 
HETATM   21  C11 UNL     1      25.284  -0.339  54.303  1.00  0.00     0.072 A 
HETATM   22  C17 UNL     1      23.276   0.041  53.047  1.00  0.00     0.042 A 
HETATM   23  C12 UNL     1      26.063   0.379  53.435  1.00  0.00     0.103 A 
HETATM   24  C14 UNL     1      25.455   0.968  52.314  1.00  0.00     0.102 A 
HETATM   25  C16 UNL     1      24.090   0.766  52.180  1.00  0.00     0.057 A 
BRANCH  23  26
HETATM   26  O3  UNL     1      27.416   0.538  53.627  1.00  0.00    -0.353 OA
HETATM   27  C13 UNL     1      28.204   0.031  54.640  1.00  0.00     0.210 C 
ENDBRANCH  23  26
BRANCH  24  28
HETATM   28  O4  UNL     1      26.290   1.678  51.476  1.00  0.00    -0.353 OA
HETATM   29  C15 UNL     1      25.863   2.829  50.801  1.00  0.00     0.210 C 
ENDBRANCH  24  28
ENDBRANCH   1  16
TORSDOF 7
ENDMDL
