MODEL 1
REMARK VINA RESULT:      -7.0      0.000      0.000
REMARK  5 active torsions:
REMARK  status: ('A' for Active; 'I' for Inactive)
REMARK    1  A    between atoms: C1_2  and  C4_6 
REMARK    2  A    between atoms: C2_3  and  C3_4 
REMARK    3  A    between atoms: C3_4  and  S1_5 
REMARK    4  A    between atoms: C7_10  and  N2_11 
REMARK    5  A    between atoms: N2_11  and  C8_12 
ROOT
HETATM    1  C4  UNL     1      26.187   0.824  53.700  1.00  0.00     0.208 C 
HETATM    2  C5  UNL     1      27.147   0.852  52.537  1.00  0.00     0.159 C 
HETATM    3  N1  UNL     1      26.764   1.858  51.572  1.00  0.00    -0.382 N 
HETATM    4  C6  UNL     1      25.624   2.686  51.608  1.00  0.00     0.111 A 
HETATM    5  C7  UNL     1      24.970   3.433  50.730  1.00  0.00     0.158 A 
HETATM    6  N3  UNL     1      23.876   4.021  51.456  1.00  0.00    -0.224 NA
HETATM    7  C14 UNL     1      23.934   3.611  52.672  1.00  0.00     0.126 A 
HETATM    8  C15 UNL     1      24.950   2.792  52.898  1.00  0.00     0.131 A 
HETATM    9  O1  UNL     1      25.539   2.058  53.895  1.00  0.00    -0.332 OA
HETATM   10  H8  UNL     1      27.440   1.942  50.776  1.00  0.00     0.160 HD
ENDROOT
BRANCH   5  11
HETATM   11  N2  UNL     1      25.347   3.572  49.353  1.00  0.00    -0.339 N 
HETATM   12  H9  UNL     1      25.106   2.903  48.593  1.00  0.00     0.167 HD
BRANCH  11  13
HETATM   13  C8  UNL     1      26.118   4.723  49.001  1.00  0.00     0.035 A 
HETATM   14  C9  UNL     1      25.517   5.970  48.904  1.00  0.00     0.029 A 
HETATM   15  C10 UNL     1      26.265   7.101  48.560  1.00  0.00     0.004 A 
HETATM   16  C11 UNL     1      27.622   7.004  48.304  1.00  0.00     0.019 A 
HETATM   17  C12 UNL     1      28.223   5.770  48.397  1.00  0.00     0.013 A 
HETATM   18 BR1  UNL     1      30.107   5.627  48.045  1.00  0.00    -0.051 Br
HETATM   19  C13 UNL     1      27.462   4.653  48.743  1.00  0.00     0.048 A 
ENDBRANCH  11  13
ENDBRANCH   5  11
BRANCH   1  20
HETATM   20  C1  UNL     1      25.143  -0.197  53.401  1.00  0.00     0.121 C 
HETATM   21  F1  UNL     1      25.458  -1.342  52.742  1.00  0.00    -0.208 F 
HETATM   22  C2  UNL     1      23.873  -0.038  53.759  1.00  0.00     0.024 C 
BRANCH  22  23
HETATM   23  C3  UNL     1      22.907  -1.114  53.415  1.00  0.00     0.100 C 
BRANCH  23  24
HETATM   24  S1  UNL     1      21.507  -1.004  54.574  1.00  0.00    -0.178 SA
HETATM   25  H4  UNL     1      20.368  -1.669  54.045  1.00  0.00     0.101 HD
ENDBRANCH  23  24
ENDBRANCH  22  23
ENDBRANCH   1  20
TORSDOF 5
ENDMDL
MODEL 2
REMARK VINA RESULT:      -7.0      4.168      6.909
REMARK  5 active torsions:
REMARK  status: ('A' for Active; 'I' for Inactive)
REMARK    1  A    between atoms: C1_2  and  C4_6 
REMARK    2  A    between atoms: C2_3  and  C3_4 
REMARK    3  A    between atoms: C3_4  and  S1_5 
REMARK    4  A    between atoms: C7_10  and  N2_11 
REMARK    5  A    between atoms: N2_11  and  C8_12 
ROOT
HETATM    1  C4  UNL     1      25.343   5.033  48.993  1.00  0.00     0.208 C 
HETATM    2  C5  UNL     1      26.594   4.344  49.479  1.00  0.00     0.159 C 
HETATM    3  N1  UNL     1      26.331   3.576  50.675  1.00  0.00    -0.382 N 
HETATM    4  C6  UNL     1      25.118   3.491  51.386  1.00  0.00     0.111 A 
HETATM    5  C7  UNL     1      24.759   3.093  52.599  1.00  0.00     0.158 A 
HETATM    6  N3  UNL     1      23.334   3.279  52.664  1.00  0.00    -0.224 NA
HETATM    7  C14 UNL     1      22.938   3.754  51.538  1.00  0.00     0.126 A 
HETATM    8  C15 UNL     1      23.924   3.932  50.672  1.00  0.00     0.131 A 
HETATM    9  O1  UNL     1      24.170   4.369  49.396  1.00  0.00    -0.332 OA
HETATM   10  H8  UNL     1      27.167   3.040  51.011  1.00  0.00     0.160 HD
ENDROOT
BRANCH   5  11
HETATM   11  N2  UNL     1      25.672   2.592  53.585  1.00  0.00    -0.339 N 
HETATM   12  H9  UNL     1      25.977   3.105  54.438  1.00  0.00     0.167 HD
BRANCH  11  13
HETATM   13  C8  UNL     1      26.206   1.283  53.374  1.00  0.00     0.035 A 
HETATM   14  C9  UNL     1      25.379   0.241  52.982  1.00  0.00     0.029 A 
HETATM   15  C10 UNL     1      25.894  -1.044  52.774  1.00  0.00     0.004 A 
HETATM   16  C11 UNL     1      27.241  -1.306  52.956  1.00  0.00     0.019 A 
HETATM   17  C12 UNL     1      28.067  -0.276  53.345  1.00  0.00     0.013 A 
HETATM   18 BR1  UNL     1      29.938  -0.631  53.599  1.00  0.00    -0.051 Br
HETATM   19  C13 UNL     1      27.535   0.998  53.547  1.00  0.00     0.048 A 
ENDBRANCH  11  13
ENDBRANCH   5  11
BRANCH   1  20
HETATM   20  C1  UNL     1      25.320   6.401  49.584  1.00  0.00     0.121 C 
HETATM   21  F1  UNL     1      24.209   6.872  50.206  1.00  0.00    -0.208 F 
HETATM   22  C2  UNL     1      26.370   7.214  49.529  1.00  0.00     0.024 C 
BRANCH  22  23
HETATM   23  C3  UNL     1      26.248   8.560  50.147  1.00  0.00     0.100 C 
BRANCH  23  24
HETATM   24  S1  UNL     1      27.777   9.482  49.792  1.00  0.00    -0.178 SA
HETATM   25  H4  UNL     1      27.685  10.137  48.533  1.00  0.00     0.101 HD
ENDBRANCH  23  24
ENDBRANCH  22  23
ENDBRANCH   1  20
TORSDOF 5
ENDMDL
MODEL 3
REMARK VINA RESULT:      -7.0      3.905      6.448
REMARK  5 active torsions:
REMARK  status: ('A' for Active; 'I' for Inactive)
REMARK    1  A    between atoms: C1_2  and  C4_6 
REMARK    2  A    between atoms: C2_3  and  C3_4 
REMARK    3  A    between atoms: C3_4  and  S1_5 
REMARK    4  A    between atoms: C7_10  and  N2_11 
REMARK    5  A    between atoms: N2_11  and  C8_12 
ROOT
HETATM    1  C4  UNL     1      24.975   4.281  49.178  1.00  0.00     0.208 C 
HETATM    2  C5  UNL     1      26.408   4.148  49.631  1.00  0.00     0.159 C 
HETATM    3  N1  UNL     1      26.491   3.440  50.888  1.00  0.00    -0.382 N 
HETATM    4  C6  UNL     1      25.422   2.972  51.677  1.00  0.00     0.111 A 
HETATM    5  C7  UNL     1      25.277   2.573  52.933  1.00  0.00     0.158 A 
HETATM    6  N3  UNL     1      23.889   2.221  53.073  1.00  0.00    -0.224 NA
HETATM    7  C14 UNL     1      23.308   2.419  51.945  1.00  0.00     0.126 A 
HETATM    8  C15 UNL     1      24.127   2.877  51.010  1.00  0.00     0.131 A 
HETATM    9  O1  UNL     1      24.149   3.265  49.695  1.00  0.00    -0.332 OA
HETATM   10  H8  UNL     1      27.477   3.283  51.207  1.00  0.00     0.160 HD
ENDROOT
BRANCH   5  11
HETATM   11  N2  UNL     1      26.343   2.531  53.892  1.00  0.00    -0.339 N 
HETATM   12  H9  UNL     1      26.459   3.187  54.691  1.00  0.00     0.167 HD
BRANCH  11  13
HETATM   13  C8  UNL     1      27.324   1.504  53.732  1.00  0.00     0.035 A 
HETATM   14  C9  UNL     1      28.662   1.762  53.995  1.00  0.00     0.029 A 
HETATM   15  C10 UNL     1      29.629   0.762  53.840  1.00  0.00     0.004 A 
HETATM   16  C11 UNL     1      29.274  -0.508  53.420  1.00  0.00     0.019 A 
HETATM   17  C12 UNL     1      27.950  -0.771  53.157  1.00  0.00     0.013 A 
HETATM   18 BR1  UNL     1      27.449  -2.532  52.575  1.00  0.00    -0.051 Br
HETATM   19  C13 UNL     1      26.999   0.239  53.317  1.00  0.00     0.048 A 
ENDBRANCH  11  13
ENDBRANCH   5  11
BRANCH   1  20
HETATM   20  C1  UNL     1      24.460   5.587  49.678  1.00  0.00     0.121 C 
HETATM   21  F1  UNL     1      24.938   6.130  50.827  1.00  0.00    -0.208 F 
HETATM   22  C2  UNL     1      23.522   6.272  49.033  1.00  0.00     0.024 C 
BRANCH  22  23
HETATM   23  C3  UNL     1      23.073   7.565  49.613  1.00  0.00     0.100 C 
BRANCH  23  24
HETATM   24  S1  UNL     1      21.592   7.245  50.622  1.00  0.00    -0.178 SA
HETATM   25  H4  UNL     1      21.887   6.326  51.665  1.00  0.00     0.101 HD
ENDBRANCH  23  24
ENDBRANCH  22  23
ENDBRANCH   1  20
TORSDOF 5
ENDMDL
MODEL 4
REMARK VINA RESULT:      -7.0      2.434      2.962
REMARK  5 active torsions:
REMARK  status: ('A' for Active; 'I' for Inactive)
REMARK    1  A    between atoms: C1_2  and  C4_6 
REMARK    2  A    between atoms: C2_3  and  C3_4 
REMARK    3  A    between atoms: C3_4  and  S1_5 
REMARK    4  A    between atoms: C7_10  and  N2_11 
REMARK    5  A    between atoms: N2_11  and  C8_12 
ROOT
HETATM    1  C4  UNL     1      27.771   1.654  54.479  1.00  0.00     0.208 C 
HETATM    2  C5  UNL     1      28.629   2.285  53.410  1.00  0.00     0.159 C 
HETATM    3  N1  UNL     1      27.824   2.722  52.292  1.00  0.00    -0.382 N 
HETATM    4  C6  UNL     1      26.436   2.552  52.119  1.00  0.00     0.111 A 
HETATM    5  C7  UNL     1      25.595   2.620  51.097  1.00  0.00     0.158 A 
HETATM    6  N3  UNL     1      24.296   2.331  51.641  1.00  0.00    -0.224 NA
HETATM    7  C14 UNL     1      24.425   2.117  52.901  1.00  0.00     0.126 A 
HETATM    8  C15 UNL     1      25.677   2.220  53.320  1.00  0.00     0.131 A 
HETATM    9  O1  UNL     1      26.444   2.122  54.453  1.00  0.00    -0.332 OA
HETATM   10  H8  UNL     1      28.381   3.215  51.553  1.00  0.00     0.160 HD
ENDROOT
BRANCH   5  11
HETATM   11  N2  UNL     1      25.987   2.926  49.752  1.00  0.00    -0.339 N 
HETATM   12  H9  UNL     1      26.066   2.236  48.976  1.00  0.00     0.167 HD
BRANCH  11  13
HETATM   13  C8  UNL     1      26.295   4.290  49.456  1.00  0.00     0.035 A 
HETATM   14  C9  UNL     1      27.438   4.615  48.740  1.00  0.00     0.029 A 
HETATM   15  C10 UNL     1      27.746   5.948  48.447  1.00  0.00     0.004 A 
HETATM   16  C11 UNL     1      26.919   6.976  48.866  1.00  0.00     0.019 A 
HETATM   17  C12 UNL     1      25.784   6.661  49.577  1.00  0.00     0.013 A 
HETATM   18 BR1  UNL     1      24.631   8.082  50.162  1.00  0.00    -0.051 Br
HETATM   19  C13 UNL     1      25.493   5.325  49.860  1.00  0.00     0.048 A 
ENDBRANCH  11  13
ENDBRANCH   5  11
BRANCH   1  20
HETATM   20  C1  UNL     1      27.743   0.185  54.228  1.00  0.00     0.121 C 
HETATM   21  F1  UNL     1      26.795  -0.601  54.802  1.00  0.00    -0.208 F 
HETATM   22  C2  UNL     1      28.631  -0.417  53.445  1.00  0.00     0.024 C 
BRANCH  22  23
HETATM   23  C3  UNL     1      28.520  -1.887  53.258  1.00  0.00     0.100 C 
BRANCH  23  24
HETATM   24  S1  UNL     1      27.023  -2.219  52.276  1.00  0.00    -0.178 SA
HETATM   25  H4  UNL     1      26.067  -2.932  53.047  1.00  0.00     0.101 HD
ENDBRANCH  23  24
ENDBRANCH  22  23
ENDBRANCH   1  20
TORSDOF 5
ENDMDL
MODEL 5
REMARK VINA RESULT:      -6.9      1.459      1.762
REMARK  5 active torsions:
REMARK  status: ('A' for Active; 'I' for Inactive)
REMARK    1  A    between atoms: C1_2  and  C4_6 
REMARK    2  A    between atoms: C2_3  and  C3_4 
REMARK    3  A    between atoms: C3_4  and  S1_5 
REMARK    4  A    between atoms: C7_10  and  N2_11 
REMARK    5  A    between atoms: N2_11  and  C8_12 
ROOT
HETATM    1  C4  UNL     1      25.210   1.094  53.343  1.00  0.00     0.208 C 
HETATM    2  C5  UNL     1      26.057   1.006  52.098  1.00  0.00     0.159 C 
HETATM    3  N1  UNL     1      25.841   2.149  51.241  1.00  0.00    -0.382 N 
HETATM    4  C6  UNL     1      24.929   3.205  51.439  1.00  0.00     0.111 A 
HETATM    5  C7  UNL     1      24.397   4.151  50.678  1.00  0.00     0.158 A 
HETATM    6  N3  UNL     1      23.528   4.904  51.542  1.00  0.00    -0.224 NA
HETATM    7  C14 UNL     1      23.586   4.391  52.718  1.00  0.00     0.126 A 
HETATM    8  C15 UNL     1      24.401   3.350  52.793  1.00  0.00     0.131 A 
HETATM    9  O1  UNL     1      24.881   2.421  53.679  1.00  0.00    -0.332 OA
HETATM   10  H8  UNL     1      26.453   2.147  50.391  1.00  0.00     0.160 HD
ENDROOT
BRANCH   5  11
HETATM   11  N2  UNL     1      24.687   4.318  49.284  1.00  0.00    -0.339 N 
HETATM   12  H9  UNL     1      24.126   3.921  48.501  1.00  0.00     0.167 HD
BRANCH  11  13
HETATM   13  C8  UNL     1      25.840   5.091  48.944  1.00  0.00     0.035 A 
HETATM   14  C9  UNL     1      27.094   4.501  48.897  1.00  0.00     0.029 A 
HETATM   15  C10 UNL     1      28.228   5.251  48.567  1.00  0.00     0.004 A 
HETATM   16  C11 UNL     1      28.126   6.602  48.280  1.00  0.00     0.019 A 
HETATM   17  C12 UNL     1      26.885   7.193  48.325  1.00  0.00     0.013 A 
HETATM   18 BR1  UNL     1      26.734   9.067  47.927  1.00  0.00    -0.051 Br
HETATM   19  C13 UNL     1      25.765   6.429  48.656  1.00  0.00     0.048 A 
ENDBRANCH  11  13
ENDBRANCH   5  11
BRANCH   1  20
HETATM   20  C1  UNL     1      23.940   0.361  53.081  1.00  0.00     0.121 C 
HETATM   21  F1  UNL     1      23.240   0.569  51.937  1.00  0.00    -0.208 F 
HETATM   22  C2  UNL     1      23.438  -0.518  53.943  1.00  0.00     0.024 C 
BRANCH  22  23
HETATM   23  C3  UNL     1      22.165  -1.198  53.591  1.00  0.00     0.100 C 
BRANCH  23  24
HETATM   24  S1  UNL     1      20.791  -0.153  54.170  1.00  0.00    -0.178 SA
HETATM   25  H4  UNL     1      20.140  -0.754  55.282  1.00  0.00     0.101 HD
ENDBRANCH  23  24
ENDBRANCH  22  23
ENDBRANCH   1  20
TORSDOF 5
ENDMDL
MODEL 6
REMARK VINA RESULT:      -6.8      3.424      5.463
REMARK  5 active torsions:
REMARK  status: ('A' for Active; 'I' for Inactive)
REMARK    1  A    between atoms: C1_2  and  C4_6 
REMARK    2  A    between atoms: C2_3  and  C3_4 
REMARK    3  A    between atoms: C3_4  and  S1_5 
REMARK    4  A    between atoms: C7_10  and  N2_11 
REMARK    5  A    between atoms: N2_11  and  C8_12 
ROOT
HETATM    1  C4  UNL     1      21.661   4.651  51.439  1.00  0.00     0.208 C 
HETATM    2  C5  UNL     1      22.501   4.822  52.680  1.00  0.00     0.159 C 
HETATM    3  N1  UNL     1      23.884   4.497  52.419  1.00  0.00    -0.382 N 
HETATM    4  C6  UNL     1      24.436   4.012  51.216  1.00  0.00     0.111 A 
HETATM    5  C7  UNL     1      25.565   3.413  50.868  1.00  0.00     0.158 A 
HETATM    6  N3  UNL     1      25.470   3.194  49.450  1.00  0.00    -0.224 NA
HETATM    7  C14 UNL     1      24.340   3.655  49.046  1.00  0.00     0.126 A 
HETATM    8  C15 UNL     1      23.614   4.179  50.022  1.00  0.00     0.131 A 
HETATM    9  O1  UNL     1      22.410   4.792  50.256  1.00  0.00    -0.332 OA
HETATM   10  H8  UNL     1      24.507   4.657  53.246  1.00  0.00     0.160 HD
ENDROOT
BRANCH   5  11
HETATM   11  N2  UNL     1      26.618   3.085  51.785  1.00  0.00    -0.339 N 
HETATM   12  H9  UNL     1      27.335   3.751  52.141  1.00  0.00     0.167 HD
BRANCH  11  13
HETATM   13  C8  UNL     1      26.687   1.733  52.244  1.00  0.00     0.035 A 
HETATM   14  C9  UNL     1      25.543   0.951  52.302  1.00  0.00     0.029 A 
HETATM   15  C10 UNL     1      25.602  -0.373  52.750  1.00  0.00     0.004 A 
HETATM   16  C11 UNL     1      26.804  -0.935  53.149  1.00  0.00     0.019 A 
HETATM   17  C12 UNL     1      27.942  -0.164  53.093  1.00  0.00     0.013 A 
HETATM   18 BR1  UNL     1      29.613  -0.936  53.643  1.00  0.00    -0.051 Br
HETATM   19  C13 UNL     1      27.864   1.155  52.643  1.00  0.00     0.048 A 
ENDBRANCH  11  13
ENDBRANCH   5  11
BRANCH   1  20
HETATM   20  C1  UNL     1      21.096   3.273  51.460  1.00  0.00     0.121 C 
HETATM   21  F1  UNL     1      20.834   2.609  50.304  1.00  0.00    -0.208 F 
HETATM   22  C2  UNL     1      20.824   2.636  52.594  1.00  0.00     0.024 C 
BRANCH  22  23
HETATM   23  C3  UNL     1      20.261   1.263  52.511  1.00  0.00     0.100 C 
BRANCH  23  24
HETATM   24  S1  UNL     1      21.642   0.081  52.613  1.00  0.00    -0.178 SA
HETATM   25  H4  UNL     1      21.785  -0.407  53.940  1.00  0.00     0.101 HD
ENDBRANCH  23  24
ENDBRANCH  22  23
ENDBRANCH   1  20
TORSDOF 5
ENDMDL
MODEL 7
REMARK VINA RESULT:      -6.8      4.340      7.347
REMARK  5 active torsions:
REMARK  status: ('A' for Active; 'I' for Inactive)
REMARK    1  A    between atoms: C1_2  and  C4_6 
REMARK    2  A    between atoms: C2_3  and  C3_4 
REMARK    3  A    between atoms: C3_4  and  S1_5 
REMARK    4  A    between atoms: C7_10  and  N2_11 
REMARK    5  A    between atoms: N2_11  and  C8_12 
ROOT
HETATM    1  C4  UNL     1      21.722   2.920  48.495  1.00  0.00     0.208 C 
HETATM    2  C5  UNL     1      21.630   1.414  48.541  1.00  0.00     0.159 C 
HETATM    3  N1  UNL     1      21.032   0.969  49.778  1.00  0.00    -0.382 N 
HETATM    4  C6  UNL     1      20.631   1.765  50.869  1.00  0.00     0.111 A 
HETATM    5  C7  UNL     1      20.340   1.547  52.144  1.00  0.00     0.158 A 
HETATM    6  N3  UNL     1      20.000   2.832  52.693  1.00  0.00    -0.224 NA
HETATM    7  C14 UNL     1      20.101   3.709  51.758  1.00  0.00     0.126 A 
HETATM    8  C15 UNL     1      20.478   3.192  50.598  1.00  0.00     0.131 A 
HETATM    9  O1  UNL     1      20.753   3.544  49.303  1.00  0.00    -0.332 OA
HETATM   10  H8  UNL     1      20.904  -0.070  49.822  1.00  0.00     0.160 HD
ENDROOT
BRANCH   5  11
HETATM   11  N2  UNL     1      20.381   0.257  52.768  1.00  0.00    -0.339 N 
HETATM   12  H9  UNL     1      19.588  -0.416  52.812  1.00  0.00     0.167 HD
BRANCH  11  13
HETATM   13  C8  UNL     1      21.613  -0.133  53.381  1.00  0.00     0.035 A 
HETATM   14  C9  UNL     1      21.612  -0.858  54.563  1.00  0.00     0.029 A 
HETATM   15  C10 UNL     1      22.813  -1.243  55.169  1.00  0.00     0.004 A 
HETATM   16  C11 UNL     1      24.032  -0.907  54.605  1.00  0.00     0.019 A 
HETATM   17  C12 UNL     1      24.039  -0.188  53.432  1.00  0.00     0.013 A 
HETATM   18 BR1  UNL     1      25.727   0.281  52.642  1.00  0.00    -0.051 Br
HETATM   19  C13 UNL     1      22.831   0.187  52.842  1.00  0.00     0.048 A 
ENDBRANCH  11  13
ENDBRANCH   5  11
BRANCH   1  20
HETATM   20  C1  UNL     1      23.065   3.308  49.010  1.00  0.00     0.121 C 
HETATM   21  F1  UNL     1      23.772   2.471  49.812  1.00  0.00    -0.208 F 
HETATM   22  C2  UNL     1      23.627   4.476  48.715  1.00  0.00     0.024 C 
BRANCH  22  23
HETATM   23  C3  UNL     1      24.970   4.772  49.278  1.00  0.00     0.100 C 
BRANCH  23  24
HETATM   24  S1  UNL     1      24.808   6.195  50.402  1.00  0.00    -0.178 SA
HETATM   25  H4  UNL     1      25.435   5.923  51.647  1.00  0.00     0.101 HD
ENDBRANCH  23  24
ENDBRANCH  22  23
ENDBRANCH   1  20
TORSDOF 5
ENDMDL
MODEL 8
REMARK VINA RESULT:      -6.7      8.358      9.922
REMARK  5 active torsions:
REMARK  status: ('A' for Active; 'I' for Inactive)
REMARK    1  A    between atoms: C1_2  and  C4_6 
REMARK    2  A    between atoms: C2_3  and  C3_4 
REMARK    3  A    between atoms: C3_4  and  S1_5 
REMARK    4  A    between atoms: C7_10  and  N2_11 
REMARK    5  A    between atoms: N2_11  and  C8_12 
ROOT
HETATM    1  C4  UNL     1      34.402   3.978  47.351  1.00  0.00     0.208 C 
HETATM    2  C5  UNL     1      34.907   4.848  48.475  1.00  0.00     0.159 C 
HETATM    3  N1  UNL     1      33.819   5.554  49.112  1.00  0.00    -0.382 N 
HETATM    4  C6  UNL     1      32.458   5.539  48.745  1.00  0.00     0.111 A 
HETATM    5  C7  UNL     1      31.400   6.294  49.002  1.00  0.00     0.158 A 
HETATM    6  N3  UNL     1      30.307   5.690  48.290  1.00  0.00    -0.224 NA
HETATM    7  C14 UNL     1      30.751   4.653  47.674  1.00  0.00     0.126 A 
HETATM    8  C15 UNL     1      32.045   4.449  47.866  1.00  0.00     0.131 A 
HETATM    9  O1  UNL     1      33.060   3.592  47.527  1.00  0.00    -0.332 OA
HETATM   10  H8  UNL     1      34.126   6.129  49.933  1.00  0.00     0.160 HD
ENDROOT
BRANCH   5  11
HETATM   11  N2  UNL     1      31.429   7.461  49.835  1.00  0.00    -0.339 N 
HETATM   12  H9  UNL     1      31.456   7.457  50.876  1.00  0.00     0.167 HD
BRANCH  11  13
HETATM   13  C8  UNL     1      31.418   8.731  49.179  1.00  0.00     0.035 A 
HETATM   14  C9  UNL     1      30.595   9.751  49.635  1.00  0.00     0.029 A 
HETATM   15  C10 UNL     1      30.577  10.997  48.998  1.00  0.00     0.004 A 
HETATM   16  C11 UNL     1      31.379  11.242  47.897  1.00  0.00     0.019 A 
HETATM   17  C12 UNL     1      32.197  10.235  47.440  1.00  0.00     0.013 A 
HETATM   18 BR1  UNL     1      33.314  10.567  45.912  1.00  0.00    -0.051 Br
HETATM   19  C13 UNL     1      32.202   8.999  48.088  1.00  0.00     0.048 A 
ENDBRANCH  11  13
ENDBRANCH   5  11
BRANCH   1  20
HETATM   20  C1  UNL     1      34.489   4.768  46.091  1.00  0.00     0.121 C 
HETATM   21  F1  UNL     1      34.234   6.102  46.087  1.00  0.00    -0.208 F 
HETATM   22  C2  UNL     1      34.815   4.214  44.928  1.00  0.00     0.024 C 
BRANCH  22  23
HETATM   23  C3  UNL     1      34.874   5.086  43.726  1.00  0.00     0.100 C 
BRANCH  23  24
HETATM   24  S1  UNL     1      33.275   4.966  42.864  1.00  0.00    -0.178 SA
HETATM   25  H4  UNL     1      33.073   6.096  42.026  1.00  0.00     0.101 HD
ENDBRANCH  23  24
ENDBRANCH  22  23
ENDBRANCH   1  20
TORSDOF 5
ENDMDL
MODEL 9
REMARK VINA RESULT:      -6.6      3.780      6.529
REMARK  5 active torsions:
REMARK  status: ('A' for Active; 'I' for Inactive)
REMARK    1  A    between atoms: C1_2  and  C4_6 
REMARK    2  A    between atoms: C2_3  and  C3_4 
REMARK    3  A    between atoms: C3_4  and  S1_5 
REMARK    4  A    between atoms: C7_10  and  N2_11 
REMARK    5  A    between atoms: N2_11  and  C8_12 
ROOT
HETATM    1  C4  UNL     1      23.584   4.658  49.011  1.00  0.00     0.208 C 
HETATM    2  C5  UNL     1      23.351   3.173  48.876  1.00  0.00     0.159 C 
HETATM    3  N1  UNL     1      23.268   2.542  50.174  1.00  0.00    -0.382 N 
HETATM    4  C6  UNL     1      23.442   3.150  51.433  1.00  0.00     0.111 A 
HETATM    5  C7  UNL     1      23.678   2.723  52.665  1.00  0.00     0.158 A 
HETATM    6  N3  UNL     1      23.740   3.905  53.483  1.00  0.00    -0.224 NA
HETATM    7  C14 UNL     1      23.547   4.927  52.728  1.00  0.00     0.126 A 
HETATM    8  C15 UNL     1      23.353   4.607  51.458  1.00  0.00     0.131 A 
HETATM    9  O1  UNL     1      23.110   5.171  50.232  1.00  0.00    -0.332 OA
HETATM   10  H8  UNL     1      23.052   1.518  50.119  1.00  0.00     0.160 HD
ENDROOT
BRANCH   5  11
HETATM   11  N2  UNL     1      23.826   1.342  53.023  1.00  0.00    -0.339 N 
HETATM   12  H9  UNL     1      23.045   0.689  53.238  1.00  0.00     0.167 HD
BRANCH  11  13
HETATM   13  C8  UNL     1      25.157   0.826  53.091  1.00  0.00     0.035 A 
HETATM   14  C9  UNL     1      25.400  -0.524  52.879  1.00  0.00     0.029 A 
HETATM   15  C10 UNL     1      26.700  -1.038  52.945  1.00  0.00     0.004 A 
HETATM   16  C11 UNL     1      27.775  -0.212  53.225  1.00  0.00     0.019 A 
HETATM   17  C12 UNL     1      27.542   1.127  53.436  1.00  0.00     0.013 A 
HETATM   18 BR1  UNL     1      29.029   2.279  53.823  1.00  0.00    -0.051 Br
HETATM   19  C13 UNL     1      26.238   1.621  53.366  1.00  0.00     0.048 A 
ENDBRANCH  11  13
ENDBRANCH   5  11
BRANCH   1  20
HETATM   20  C1  UNL     1      25.055   4.892  48.957  1.00  0.00     0.121 C 
HETATM   21  F1  UNL     1      25.930   3.881  49.195  1.00  0.00    -0.208 F 
HETATM   22  C2  UNL     1      25.573   6.084  48.680  1.00  0.00     0.024 C 
BRANCH  22  23
HETATM   23  C3  UNL     1      27.053   6.217  48.652  1.00  0.00     0.100 C 
BRANCH  23  24
HETATM   24  S1  UNL     1      27.464   7.974  48.895  1.00  0.00    -0.178 SA
HETATM   25  H4  UNL     1      26.292   8.728  49.171  1.00  0.00     0.101 HD
ENDBRANCH  23  24
ENDBRANCH  22  23
ENDBRANCH   1  20
TORSDOF 5
ENDMDL
