MODEL 1
REMARK VINA RESULT:      -8.1      0.000      0.000
REMARK  4 active torsions:
REMARK  status: ('A' for Active; 'I' for Inactive)
REMARK    1  A    between atoms: O1_2  and  C2_3 
REMARK    2  A    between atoms: C7_8  and  N1_9 
REMARK    3  A    between atoms: N1_9  and  C8_10 
REMARK    4  A    between atoms: C18_22  and  C19_23 
ROOT
HETATM    1  C8  UNL     1      24.333   1.147  52.410  1.00  0.00     0.048 C 
HETATM    2  C9  UNL     1      23.231   0.837  53.068  1.00  0.00     0.015 C 
HETATM    3  C10 UNL     1      22.024   1.092  52.670  1.00  0.00     0.008 A 
HETATM    4  C11 UNL     1      21.454   2.228  51.962  1.00  0.00     0.067 A 
HETATM    5  N2  UNL     1      20.173   2.106  51.717  1.00  0.00    -0.242 NA
HETATM    6  C12 UNL     1      19.493   0.910  52.157  1.00  0.00     0.228 A 
HETATM    7  N3  UNL     1      19.955  -0.105  52.785  1.00  0.00    -0.273 NA
HETATM    8  C13 UNL     1      21.348  -0.139  53.144  1.00  0.00     0.141 A 
HETATM    9  C14 UNL     1      21.393  -0.248  54.657  1.00  0.00     0.040 C 
HETATM   10  C15 UNL     1      21.898   3.505  51.429  1.00  0.00     0.032 C 
HETATM   11  C16 UNL     1      23.117   3.865  51.065  1.00  0.00     0.003 C 
HETATM   12  C17 UNL     1      24.429   3.239  51.025  1.00  0.00     0.011 C 
HETATM   13  C18 UNL     1      24.971   2.128  51.560  1.00  0.00    -0.017 C 
ENDROOT
BRANCH   1  14
HETATM   14  N1  UNL     1      25.143   0.031  52.719  1.00  0.00    -0.378 N 
HETATM   15  H10 UNL     1      24.909  -0.395  51.767  1.00  0.00     0.160 HD
BRANCH  14  16
HETATM   16  C7  UNL     1      26.031  -0.777  53.573  1.00  0.00     0.137 A 
HETATM   17  C2  UNL     1      26.451   0.019  54.789  1.00  0.00     0.170 A 
HETATM   18  C3  UNL     1      27.924   0.114  54.957  1.00  0.00     0.007 A 
HETATM   19  C4  UNL     1      28.928  -0.375  54.253  1.00  0.00    -0.002 A 
HETATM   20  C5  UNL     1      28.478  -1.156  53.090  1.00  0.00    -0.002 A 
HETATM   21  C6  UNL     1      27.196  -1.307  52.831  1.00  0.00     0.001 A 
BRANCH  17  22
HETATM   22  O1  UNL     1      25.855  -0.538  55.936  1.00  0.00    -0.385 OA
HETATM   23  C1  UNL     1      24.727  -1.270  55.683  1.00  0.00     0.202 C 
ENDBRANCH  17  22
ENDBRANCH  14  16
ENDBRANCH   1  14
BRANCH  13  24
HETATM   24  C19 UNL     1      26.375   1.923  51.223  1.00  0.00     0.155 C 
HETATM   25 CL1  UNL     1      27.563   2.478  52.377  1.00  0.00    -0.125 Cl
ENDBRANCH  13  24
TORSDOF 4
ENDMDL
MODEL 2
REMARK VINA RESULT:      -8.1      2.255      3.869
REMARK  4 active torsions:
REMARK  status: ('A' for Active; 'I' for Inactive)
REMARK    1  A    between atoms: O1_2  and  C2_3 
REMARK    2  A    between atoms: C7_8  and  N1_9 
REMARK    3  A    between atoms: N1_9  and  C8_10 
REMARK    4  A    between atoms: C18_22  and  C19_23 
ROOT
HETATM    1  C8  UNL     1      24.085   1.077  52.882  1.00  0.00     0.048 C 
HETATM    2  C9  UNL     1      24.097   2.089  52.034  1.00  0.00     0.015 C 
HETATM    3  C10 UNL     1      23.161   2.978  51.916  1.00  0.00     0.008 A 
HETATM    4  C11 UNL     1      21.711   2.881  52.005  1.00  0.00     0.067 A 
HETATM    5  N2  UNL     1      21.097   4.026  51.846  1.00  0.00    -0.242 NA
HETATM    6  C12 UNL     1      21.889   5.212  51.607  1.00  0.00     0.228 A 
HETATM    7  N3  UNL     1      23.160   5.337  51.516  1.00  0.00    -0.273 NA
HETATM    8  C13 UNL     1      23.996   4.175  51.660  1.00  0.00     0.141 A 
HETATM    9  C14 UNL     1      24.767   4.046  50.360  1.00  0.00     0.040 C 
HETATM   10  C15 UNL     1      20.707   1.854  52.224  1.00  0.00     0.032 C 
HETATM   11  C16 UNL     1      20.841   0.688  52.833  1.00  0.00     0.003 C 
HETATM   12  C17 UNL     1      21.918  -0.034  53.492  1.00  0.00     0.011 C 
HETATM   13  C18 UNL     1      23.258   0.089  53.540  1.00  0.00    -0.017 C 
ENDROOT
BRANCH   1  14
HETATM   14  N1  UNL     1      25.456   1.006  53.221  1.00  0.00    -0.378 N 
HETATM   15  H10 UNL     1      25.213   1.255  54.231  1.00  0.00     0.160 HD
BRANCH  14  16
HETATM   16  C7  UNL     1      26.889   0.807  52.944  1.00  0.00     0.137 A 
HETATM   17  C2  UNL     1      27.492  -0.136  53.961  1.00  0.00     0.170 A 
HETATM   18  C3  UNL     1      28.667   0.430  54.673  1.00  0.00     0.007 A 
HETATM   19  C4  UNL     1      29.286   1.591  54.574  1.00  0.00    -0.002 A 
HETATM   20  C5  UNL     1      28.680   2.473  53.563  1.00  0.00    -0.002 A 
HETATM   21  C6  UNL     1      27.629   2.087  52.870  1.00  0.00     0.001 A 
BRANCH  17  22
HETATM   22  O1  UNL     1      27.831  -1.346  53.327  1.00  0.00    -0.385 OA
HETATM   23  C1  UNL     1      29.170  -1.627  53.330  1.00  0.00     0.202 C 
ENDBRANCH  17  22
ENDBRANCH  14  16
ENDBRANCH   1  14
BRANCH  13  24
HETATM   24  C19 UNL     1      23.925  -0.915  54.361  1.00  0.00     0.155 C 
HETATM   25 CL1  UNL     1      23.008  -1.610  55.676  1.00  0.00    -0.125 Cl
ENDBRANCH  13  24
TORSDOF 4
ENDMDL
MODEL 3
REMARK VINA RESULT:      -8.1      2.393      5.669
REMARK  4 active torsions:
REMARK  status: ('A' for Active; 'I' for Inactive)
REMARK    1  A    between atoms: O1_2  and  C2_3 
REMARK    2  A    between atoms: C7_8  and  N1_9 
REMARK    3  A    between atoms: N1_9  and  C8_10 
REMARK    4  A    between atoms: C18_22  and  C19_23 
ROOT
HETATM    1  C8  UNL     1      24.301   1.380  52.033  1.00  0.00     0.048 C 
HETATM    2  C9  UNL     1      23.687   0.351  52.587  1.00  0.00     0.015 C 
HETATM    3  C10 UNL     1      24.081  -0.270  53.654  1.00  0.00     0.008 A 
HETATM    4  C11 UNL     1      25.408  -0.610  54.147  1.00  0.00     0.067 A 
HETATM    5  N2  UNL     1      25.397  -1.235  55.298  1.00  0.00    -0.242 NA
HETATM    6  C12 UNL     1      24.126  -1.509  55.927  1.00  0.00     0.228 A 
HETATM    7  N3  UNL     1      22.942  -1.233  55.526  1.00  0.00    -0.273 NA
HETATM    8  C13 UNL     1      22.764  -0.550  54.272  1.00  0.00     0.141 A 
HETATM    9  C14 UNL     1      21.929  -1.473  53.403  1.00  0.00     0.040 C 
HETATM   10  C15 UNL     1      26.791  -0.460  53.725  1.00  0.00     0.032 C 
HETATM   11  C16 UNL     1      27.306   0.434  52.898  1.00  0.00     0.003 C 
HETATM   12  C17 UNL     1      26.804   1.552  52.115  1.00  0.00     0.011 C 
HETATM   13  C18 UNL     1      25.584   1.978  51.736  1.00  0.00    -0.017 C 
ENDROOT
BRANCH   1  14
HETATM   14  N1  UNL     1      23.191   2.131  51.581  1.00  0.00    -0.378 N 
HETATM   15  H10 UNL     1      23.772   3.024  51.657  1.00  0.00     0.160 HD
BRANCH  14  16
HETATM   16  C7  UNL     1      21.803   2.315  51.125  1.00  0.00     0.137 A 
HETATM   17  C2  UNL     1      20.859   2.312  52.307  1.00  0.00     0.170 A 
HETATM   18  C3  UNL     1      19.773   1.305  52.197  1.00  0.00     0.007 A 
HETATM   19  C4  UNL     1      19.471   0.428  51.258  1.00  0.00    -0.002 A 
HETATM   20  C5  UNL     1      20.401   0.474  50.119  1.00  0.00    -0.002 A 
HETATM   21  C6  UNL     1      21.410   1.320  50.102  1.00  0.00     0.001 A 
BRANCH  17  22
HETATM   22  O1  UNL     1      20.326   3.603  52.479  1.00  0.00    -0.385 OA
HETATM   23  C1  UNL     1      19.512   4.015  51.458  1.00  0.00     0.202 C 
ENDBRANCH  17  22
ENDBRANCH  14  16
ENDBRANCH   1  14
BRANCH  13  24
HETATM   24  C19 UNL     1      25.596   3.190  50.925  1.00  0.00     0.155 C 
HETATM   25 CL1  UNL     1      26.531   3.156  49.450  1.00  0.00    -0.125 Cl
ENDBRANCH  13  24
TORSDOF 4
ENDMDL
MODEL 4
REMARK VINA RESULT:      -8.0      2.932      6.417
REMARK  4 active torsions:
REMARK  status: ('A' for Active; 'I' for Inactive)
REMARK    1  A    between atoms: O1_2  and  C2_3 
REMARK    2  A    between atoms: C7_8  and  N1_9 
REMARK    3  A    between atoms: N1_9  and  C8_10 
REMARK    4  A    between atoms: C18_22  and  C19_23 
ROOT
HETATM    1  C8  UNL     1      22.706   1.037  53.069  1.00  0.00     0.048 C 
HETATM    2  C9  UNL     1      23.998   1.296  52.981  1.00  0.00     0.015 C 
HETATM    3  C10 UNL     1      24.948   0.437  53.176  1.00  0.00     0.008 A 
HETATM    4  C11 UNL     1      25.085  -0.665  54.118  1.00  0.00     0.067 A 
HETATM    5  N2  UNL     1      26.206  -1.330  53.989  1.00  0.00    -0.242 NA
HETATM    6  C12 UNL     1      27.146  -0.916  52.973  1.00  0.00     0.228 A 
HETATM    7  N3  UNL     1      27.066   0.046  52.133  1.00  0.00    -0.273 NA
HETATM    8  C13 UNL     1      25.900   0.889  52.135  1.00  0.00     0.141 A 
HETATM    9  C14 UNL     1      26.397   2.296  52.411  1.00  0.00     0.040 C 
HETATM   10  C15 UNL     1      24.322  -1.266  55.198  1.00  0.00     0.032 C 
HETATM   11  C16 UNL     1      23.016  -1.227  55.404  1.00  0.00     0.003 C 
HETATM   12  C17 UNL     1      21.865  -0.642  54.735  1.00  0.00     0.011 C 
HETATM   13  C18 UNL     1      21.691   0.287  53.775  1.00  0.00    -0.017 C 
ENDROOT
BRANCH   1  14
HETATM   14  N1  UNL     1      22.205   1.862  52.036  1.00  0.00    -0.378 N 
HETATM   15  H10 UNL     1      21.282   1.324  52.062  1.00  0.00     0.160 HD
BRANCH  14  16
HETATM   16  C7  UNL     1      22.280   2.944  51.039  1.00  0.00     0.137 A 
HETATM   17  C2  UNL     1      23.005   2.464  49.801  1.00  0.00     0.170 A 
HETATM   18  C3  UNL     1      24.168   3.309  49.428  1.00  0.00     0.007 A 
HETATM   19  C4  UNL     1      24.674   4.403  49.965  1.00  0.00    -0.002 A 
HETATM   20  C5  UNL     1      23.932   4.847  51.156  1.00  0.00    -0.002 A 
HETATM   21  C6  UNL     1      22.886   4.176  51.591  1.00  0.00     0.001 A 
BRANCH  17  22
HETATM   22  O1  UNL     1      22.091   2.376  48.734  1.00  0.00    -0.385 OA
HETATM   23  C1  UNL     1      21.488   1.153  48.609  1.00  0.00     0.202 C 
ENDBRANCH  17  22
ENDBRANCH  14  16
ENDBRANCH   1  14
BRANCH  13  24
HETATM   24  C19 UNL     1      20.297   0.544  53.435  1.00  0.00     0.155 C 
HETATM   25 CL1  UNL     1      19.219  -0.829  53.383  1.00  0.00    -0.125 Cl
ENDBRANCH  13  24
TORSDOF 4
ENDMDL
MODEL 5
REMARK VINA RESULT:      -7.9      2.698      5.427
REMARK  4 active torsions:
REMARK  status: ('A' for Active; 'I' for Inactive)
REMARK    1  A    between atoms: O1_2  and  C2_3 
REMARK    2  A    between atoms: C7_8  and  N1_9 
REMARK    3  A    between atoms: N1_9  and  C8_10 
REMARK    4  A    between atoms: C18_22  and  C19_23 
ROOT
HETATM    1  C8  UNL     1      24.862   1.634  51.875  1.00  0.00     0.048 C 
HETATM    2  C9  UNL     1      23.616   1.265  51.641  1.00  0.00     0.015 C 
HETATM    3  C10 UNL     1      22.785   0.826  52.534  1.00  0.00     0.008 A 
HETATM    4  C11 UNL     1      22.972  -0.025  53.700  1.00  0.00     0.067 A 
HETATM    5  N2  UNL     1      21.873  -0.232  54.381  1.00  0.00    -0.242 NA
HETATM    6  C12 UNL     1      20.646   0.378  53.922  1.00  0.00     0.228 A 
HETATM    7  N3  UNL     1      20.440   1.125  52.903  1.00  0.00    -0.273 NA
HETATM    8  C13 UNL     1      21.539   1.453  52.034  1.00  0.00     0.141 A 
HETATM    9  C14 UNL     1      21.165   0.925  50.662  1.00  0.00     0.040 C 
HETATM   10  C15 UNL     1      24.054  -0.741  54.355  1.00  0.00     0.032 C 
HETATM   11  C16 UNL     1      25.352  -0.500  54.300  1.00  0.00     0.003 C 
HETATM   12  C17 UNL     1      26.213   0.472  53.643  1.00  0.00     0.011 C 
HETATM   13  C18 UNL     1      26.055   1.365  52.647  1.00  0.00    -0.017 C 
ENDROOT
BRANCH   1  14
HETATM   14  N1  UNL     1      24.988   2.713  50.970  1.00  0.00    -0.378 N 
HETATM   15  H10 UNL     1      24.852   3.398  51.777  1.00  0.00     0.160 HD
BRANCH  14  16
HETATM   16  C7  UNL     1      25.170   3.326  49.642  1.00  0.00     0.137 A 
HETATM   17  C2  UNL     1      26.174   4.455  49.722  1.00  0.00     0.170 A 
HETATM   18  C3  UNL     1      25.654   5.749  49.212  1.00  0.00     0.007 A 
HETATM   19  C4  UNL     1      24.489   6.092  48.694  1.00  0.00    -0.002 A 
HETATM   20  C5  UNL     1      23.547   4.964  48.619  1.00  0.00    -0.002 A 
HETATM   21  C6  UNL     1      23.890   3.766  49.046  1.00  0.00     0.001 A 
BRANCH  17  22
HETATM   22  O1  UNL     1      27.344   4.083  49.033  1.00  0.00    -0.385 OA
HETATM   23  C1  UNL     1      28.032   5.133  48.487  1.00  0.00     0.202 C 
ENDBRANCH  17  22
ENDBRANCH  14  16
ENDBRANCH   1  14
BRANCH  13  24
HETATM   24  C19 UNL     1      27.253   2.133  52.334  1.00  0.00     0.155 C 
HETATM   25 CL1  UNL     1      28.391   2.406  53.632  1.00  0.00    -0.125 Cl
ENDBRANCH  13  24
TORSDOF 4
ENDMDL
MODEL 6
REMARK VINA RESULT:      -7.8      1.799      2.571
REMARK  4 active torsions:
REMARK  status: ('A' for Active; 'I' for Inactive)
REMARK    1  A    between atoms: O1_2  and  C2_3 
REMARK    2  A    between atoms: C7_8  and  N1_9 
REMARK    3  A    between atoms: N1_9  and  C8_10 
REMARK    4  A    between atoms: C18_22  and  C19_23 
ROOT
HETATM    1  C8  UNL     1      24.175   1.160  52.401  1.00  0.00     0.048 C 
HETATM    2  C9  UNL     1      23.784   0.432  53.431  1.00  0.00     0.015 C 
HETATM    3  C10 UNL     1      22.571   0.028  53.644  1.00  0.00     0.008 A 
HETATM    4  C11 UNL     1      21.281   0.664  53.419  1.00  0.00     0.067 A 
HETATM    5  N2  UNL     1      20.260  -0.086  53.750  1.00  0.00    -0.242 NA
HETATM    6  C12 UNL     1      20.511  -1.405  54.284  1.00  0.00     0.228 A 
HETATM    7  N3  UNL     1      21.626  -1.997  54.502  1.00  0.00    -0.273 NA
HETATM    8  C13 UNL     1      22.857  -1.315  54.200  1.00  0.00     0.141 A 
HETATM    9  C14 UNL     1      23.620  -1.223  55.509  1.00  0.00     0.040 C 
HETATM   10  C15 UNL     1      20.771   1.929  52.919  1.00  0.00     0.032 C 
HETATM   11  C16 UNL     1      21.358   2.789  52.105  1.00  0.00     0.003 C 
HETATM   12  C17 UNL     1      22.632   2.873  51.407  1.00  0.00     0.011 C 
HETATM   13  C18 UNL     1      23.810   2.227  51.495  1.00  0.00    -0.017 C 
ENDROOT
BRANCH   1  14
HETATM   14  N1  UNL     1      25.458   0.614  52.169  1.00  0.00    -0.378 N 
HETATM   15  H10 UNL     1      25.046  -0.019  51.414  1.00  0.00     0.160 HD
BRANCH  14  16
HETATM   16  C7  UNL     1      26.904   0.461  52.404  1.00  0.00     0.137 A 
HETATM   17  C2  UNL     1      27.148  -0.430  53.602  1.00  0.00     0.170 A 
HETATM   18  C3  UNL     1      27.994   0.200  54.648  1.00  0.00     0.007 A 
HETATM   19  C4  UNL     1      28.581   1.380  54.719  1.00  0.00    -0.002 A 
HETATM   20  C5  UNL     1      28.334   2.209  53.529  1.00  0.00    -0.002 A 
HETATM   21  C6  UNL     1      27.593   1.764  52.536  1.00  0.00     0.001 A 
BRANCH  17  22
HETATM   22  O1  UNL     1      27.713  -1.644  53.169  1.00  0.00    -0.385 OA
HETATM   23  C1  UNL     1      29.078  -1.693  53.260  1.00  0.00     0.202 C 
ENDBRANCH  17  22
ENDBRANCH  14  16
ENDBRANCH   1  14
BRANCH  13  24
HETATM   24  C19 UNL     1      24.820   2.688  50.549  1.00  0.00     0.155 C 
HETATM   25 CL1  UNL     1      24.275   3.674  49.215  1.00  0.00    -0.125 Cl
ENDBRANCH  13  24
TORSDOF 4
ENDMDL
MODEL 7
REMARK VINA RESULT:      -7.7      3.091      6.813
REMARK  4 active torsions:
REMARK  status: ('A' for Active; 'I' for Inactive)
REMARK    1  A    between atoms: O1_2  and  C2_3 
REMARK    2  A    between atoms: C7_8  and  N1_9 
REMARK    3  A    between atoms: N1_9  and  C8_10 
REMARK    4  A    between atoms: C18_22  and  C19_23 
ROOT
HETATM    1  C8  UNL     1      22.824   1.415  52.844  1.00  0.00     0.048 C 
HETATM    2  C9  UNL     1      24.140   1.518  52.875  1.00  0.00     0.015 C 
HETATM    3  C10 UNL     1      24.962   0.541  53.097  1.00  0.00     0.008 A 
HETATM    4  C11 UNL     1      24.887  -0.611  53.983  1.00  0.00     0.067 A 
HETATM    5  N2  UNL     1      25.928  -1.401  53.908  1.00  0.00    -0.242 NA
HETATM    6  C12 UNL     1      26.996  -1.059  52.996  1.00  0.00     0.228 A 
HETATM    7  N3  UNL     1      27.103  -0.056  52.207  1.00  0.00    -0.273 NA
HETATM    8  C13 UNL     1      26.048   0.922  52.163  1.00  0.00     0.141 A 
HETATM    9  C14 UNL     1      26.680   2.244  52.557  1.00  0.00     0.040 C 
HETATM   10  C15 UNL     1      23.967  -1.164  54.963  1.00  0.00     0.032 C 
HETATM   11  C16 UNL     1      22.662  -0.976  55.064  1.00  0.00     0.003 C 
HETATM   12  C17 UNL     1      21.650  -0.225  54.339  1.00  0.00     0.011 C 
HETATM   13  C18 UNL     1      21.671   0.762  53.422  1.00  0.00    -0.017 C 
ENDROOT
BRANCH   1  14
HETATM   14  N1  UNL     1      22.515   2.341  51.821  1.00  0.00    -0.378 N 
HETATM   15  H10 UNL     1      22.274   3.071  52.563  1.00  0.00     0.160 HD
BRANCH  14  16
HETATM   16  C7  UNL     1      22.351   2.780  50.424  1.00  0.00     0.137 A 
HETATM   17  C2  UNL     1      21.166   3.713  50.305  1.00  0.00     0.170 A 
HETATM   18  C3  UNL     1      20.163   3.273  49.301  1.00  0.00     0.007 A 
HETATM   19  C4  UNL     1      20.122   2.234  48.489  1.00  0.00    -0.002 A 
HETATM   20  C5  UNL     1      21.299   1.361  48.623  1.00  0.00    -0.002 A 
HETATM   21  C6  UNL     1      22.254   1.640  49.485  1.00  0.00     0.001 A 
BRANCH  17  22
HETATM   22  O1  UNL     1      21.626   5.011  50.014  1.00  0.00    -0.385 OA
HETATM   23  C1  UNL     1      21.648   5.854  51.092  1.00  0.00     0.202 C 
ENDBRANCH  17  22
ENDBRANCH  14  16
ENDBRANCH   1  14
BRANCH  13  24
HETATM   24  C19 UNL     1      20.351   1.203  52.985  1.00  0.00     0.155 C 
HETATM   25 CL1  UNL     1      19.588   0.294  51.703  1.00  0.00    -0.125 Cl
ENDBRANCH  13  24
TORSDOF 4
ENDMDL
MODEL 8
REMARK VINA RESULT:      -7.5      2.976      6.578
REMARK  4 active torsions:
REMARK  status: ('A' for Active; 'I' for Inactive)
REMARK    1  A    between atoms: O1_2  and  C2_3 
REMARK    2  A    between atoms: C7_8  and  N1_9 
REMARK    3  A    between atoms: N1_9  and  C8_10 
REMARK    4  A    between atoms: C18_22  and  C19_23 
ROOT
HETATM    1  C8  UNL     1      23.486   1.553  52.095  1.00  0.00     0.048 C 
HETATM    2  C9  UNL     1      24.759   1.628  52.439  1.00  0.00     0.015 C 
HETATM    3  C10 UNL     1      25.471   0.643  52.890  1.00  0.00     0.008 A 
HETATM    4  C11 UNL     1      25.147  -0.466  53.775  1.00  0.00     0.067 A 
HETATM    5  N2  UNL     1      26.150  -1.282  53.984  1.00  0.00    -0.242 NA
HETATM    6  C12 UNL     1      27.415  -1.005  53.344  1.00  0.00     0.228 A 
HETATM    7  N3  UNL     1      27.741  -0.042  52.566  1.00  0.00    -0.273 NA
HETATM    8  C13 UNL     1      26.761   0.957  52.232  1.00  0.00     0.141 A 
HETATM    9  C14 UNL     1      27.323   2.280  52.716  1.00  0.00     0.040 C 
HETATM   10  C15 UNL     1      24.001  -0.953  54.524  1.00  0.00     0.032 C 
HETATM   11  C16 UNL     1      22.717  -0.732  54.301  1.00  0.00     0.003 C 
HETATM   12  C17 UNL     1      21.934   0.010  53.325  1.00  0.00     0.011 C 
HETATM   13  C18 UNL     1      22.206   0.953  52.403  1.00  0.00    -0.017 C 
ENDROOT
BRANCH   1  14
HETATM   14  N1  UNL     1      23.462   2.440  50.994  1.00  0.00    -0.378 N 
HETATM   15  H10 UNL     1      22.480   2.752  51.275  1.00  0.00     0.160 HD
BRANCH  14  16
HETATM   16  C7  UNL     1      24.009   3.079  49.785  1.00  0.00     0.137 A 
HETATM   17  C2  UNL     1      24.342   4.528  50.065  1.00  0.00     0.170 A 
HETATM   18  C3  UNL     1      23.683   5.479  49.134  1.00  0.00     0.007 A 
HETATM   19  C4  UNL     1      22.878   5.295  48.105  1.00  0.00    -0.002 A 
HETATM   20  C5  UNL     1      22.592   3.873  47.855  1.00  0.00    -0.002 A 
HETATM   21  C6  UNL     1      23.112   2.934  48.618  1.00  0.00     0.001 A 
BRANCH  17  22
HETATM   22  O1  UNL     1      25.739   4.696  50.042  1.00  0.00    -0.385 OA
HETATM   23  C1  UNL     1      26.419   3.663  49.453  1.00  0.00     0.202 C 
ENDBRANCH  17  22
ENDBRANCH  14  16
ENDBRANCH   1  14
BRANCH  13  24
HETATM   24  C19 UNL     1      21.046   1.404  51.644  1.00  0.00     0.155 C 
HETATM   25 CL1  UNL     1      19.733   0.270  51.441  1.00  0.00    -0.125 Cl
ENDBRANCH  13  24
TORSDOF 4
ENDMDL
MODEL 9
REMARK VINA RESULT:      -7.4      2.486      6.162
REMARK  4 active torsions:
REMARK  status: ('A' for Active; 'I' for Inactive)
REMARK    1  A    between atoms: O1_2  and  C2_3 
REMARK    2  A    between atoms: C7_8  and  N1_9 
REMARK    3  A    between atoms: N1_9  and  C8_10 
REMARK    4  A    between atoms: C18_22  and  C19_23 
ROOT
HETATM    1  C8  UNL     1      23.148   1.218  52.024  1.00  0.00     0.048 C 
HETATM    2  C9  UNL     1      22.832   0.143  52.723  1.00  0.00     0.015 C 
HETATM    3  C10 UNL     1      23.552  -0.372  53.671  1.00  0.00     0.008 A 
HETATM    4  C11 UNL     1      24.992  -0.513  53.830  1.00  0.00     0.067 A 
HETATM    5  N2  UNL     1      25.343  -1.080  54.957  1.00  0.00    -0.242 NA
HETATM    6  C12 UNL     1      24.309  -1.490  55.880  1.00  0.00     0.228 A 
HETATM    7  N3  UNL     1      23.037  -1.389  55.775  1.00  0.00    -0.273 NA
HETATM    8  C13 UNL     1      22.472  -0.793  54.593  1.00  0.00     0.141 A 
HETATM    9  C14 UNL     1      21.589  -1.856  53.965  1.00  0.00     0.040 C 
HETATM   10  C15 UNL     1      26.199  -0.202  53.084  1.00  0.00     0.032 C 
HETATM   11  C16 UNL     1      26.374   0.713  52.145  1.00  0.00     0.003 C 
HETATM   12  C17 UNL     1      25.550   1.719  51.494  1.00  0.00     0.011 C 
HETATM   13  C18 UNL     1      24.228   1.964  51.417  1.00  0.00    -0.017 C 
ENDROOT
BRANCH   1  14
HETATM   14  N1  UNL     1      21.870   1.795  51.846  1.00  0.00    -0.378 N 
HETATM   15  H10 UNL     1      22.209   2.252  50.942  1.00  0.00     0.160 HD
BRANCH  14  16
HETATM   16  C7  UNL     1      20.473   2.083  52.216  1.00  0.00     0.137 A 
HETATM   17  C2  UNL     1      19.544   1.079  51.572  1.00  0.00     0.170 A 
HETATM   18  C3  UNL     1      18.471   1.702  50.754  1.00  0.00     0.007 A 
HETATM   19  C4  UNL     1      18.173   2.961  50.498  1.00  0.00    -0.002 A 
HETATM   20  C5  UNL     1      19.089   3.907  51.156  1.00  0.00    -0.002 A 
HETATM   21  C6  UNL     1      20.085   3.476  51.902  1.00  0.00     0.001 A 
BRANCH  17  22
HETATM   22  O1  UNL     1      18.993   0.252  52.568  1.00  0.00    -0.385 OA
HETATM   23  C1  UNL     1      18.049  -0.627  52.110  1.00  0.00     0.202 C 
ENDBRANCH  17  22
ENDBRANCH  14  16
ENDBRANCH   1  14
BRANCH  13  24
HETATM   24  C19 UNL     1      23.878   3.129  50.613  1.00  0.00     0.155 C 
HETATM   25 CL1  UNL     1      23.798   4.671  51.430  1.00  0.00    -0.125 Cl
ENDBRANCH  13  24
TORSDOF 4
ENDMDL
