MODEL 1
REMARK VINA RESULT:      -8.2      0.000      0.000
REMARK  7 active torsions:
REMARK  status: ('A' for Active; 'I' for Inactive)
REMARK    1  A    between atoms: C5_6  and  C6_7 
REMARK    2  A    between atoms: C6_7  and  O1_8 
REMARK    3  A    between atoms: O1_8  and  C7_9 
REMARK    4  A    between atoms: C10_12  and  N1_13 
REMARK    5  A    between atoms: N1_13  and  N2_14 
REMARK    6  A    between atoms: N2_14  and  C11_15 
REMARK    7  A    between atoms: C11_15  and  C12_16 
ROOT
HETATM    1  C7  UNL     1      23.417  -0.140  53.419  1.00  0.00     0.091 A 
HETATM    2  C8  UNL     1      22.880  -0.909  54.426  1.00  0.00     0.041 A 
HETATM    3  C9  UNL     1      21.539  -1.161  54.567  1.00  0.00     0.033 A 
HETATM    4  C10 UNL     1      20.655  -0.623  53.658  1.00  0.00     0.044 A 
HETATM    5  C16 UNL     1      21.122   0.158  52.622  1.00  0.00     0.057 A 
HETATM    6  C17 UNL     1      22.501   0.395  52.507  1.00  0.00     0.069 A 
HETATM    7 CL1  UNL     1      22.862   1.419  51.108  1.00  0.00    -0.081 Cl
ENDROOT
BRANCH   4   8
HETATM    8  N1  UNL     1      19.263  -0.887  53.807  1.00  0.00    -0.321 N 
HETATM    9  H8  UNL     1      18.564  -0.119  53.730  1.00  0.00     0.180 HD
BRANCH   8  10
HETATM   10  N2  UNL     1      18.613  -2.092  54.058  1.00  0.00    -0.236 NA
HETATM   11  H9  UNL     1      18.379  -2.266  55.041  1.00  0.00     0.146 HD
BRANCH  10  12
HETATM   12  C11 UNL     1      17.432  -2.142  53.213  1.00  0.00     0.147 C 
BRANCH  12  13
HETATM   13  C12 UNL     1      16.776  -3.465  53.264  1.00  0.00    -0.032 C 
HETATM   14  C13 UNL     1      16.868  -4.731  53.639  1.00  0.00     0.013 C 
HETATM   15  C14 UNL     1      15.698  -5.303  53.695  1.00  0.00     0.092 C 
HETATM   16  N3  UNL     1      14.848  -4.744  52.908  1.00  0.00    -0.282 NA
HETATM   17  C15 UNL     1      15.409  -3.418  52.631  1.00  0.00     0.186 C 
ENDBRANCH  12  13
ENDBRANCH  10  12
ENDBRANCH   8  10
ENDBRANCH   4   8
BRANCH   1  18
HETATM   18  O1  UNL     1      24.655   0.256  53.056  1.00  0.00    -0.345 OA
BRANCH  18  19
HETATM   19  C6  UNL     1      25.722   0.785  53.743  1.00  0.00     0.214 C 
BRANCH  19  20
HETATM   20  C5  UNL     1      27.013   0.071  53.601  1.00  0.00    -0.031 A 
HETATM   21  C4  UNL     1      28.167   0.806  53.910  1.00  0.00     0.009 A 
HETATM   22  C3  UNL     1      29.455   0.351  53.861  1.00  0.00     0.004 A 
HETATM   23  C2  UNL     1      29.656  -0.955  53.473  1.00  0.00     0.042 A 
HETATM   24  C1  UNL     1      28.556  -1.723  53.157  1.00  0.00     0.117 A 
HETATM   25  F1  UNL     1      28.697  -3.022  52.766  1.00  0.00    -0.206 F 
HETATM   26  C18 UNL     1      27.272  -1.228  53.218  1.00  0.00     0.051 A 
ENDBRANCH  19  20
ENDBRANCH  18  19
ENDBRANCH   1  18
TORSDOF 7
ENDMDL
MODEL 2
REMARK VINA RESULT:      -8.1      2.075      2.873
REMARK  7 active torsions:
REMARK  status: ('A' for Active; 'I' for Inactive)
REMARK    1  A    between atoms: C5_6  and  C6_7 
REMARK    2  A    between atoms: C6_7  and  O1_8 
REMARK    3  A    between atoms: O1_8  and  C7_9 
REMARK    4  A    between atoms: C10_12  and  N1_13 
REMARK    5  A    between atoms: N1_13  and  N2_14 
REMARK    6  A    between atoms: N2_14  and  C11_15 
REMARK    7  A    between atoms: C11_15  and  C12_16 
ROOT
HETATM    1  C7  UNL     1      23.317   0.300  53.285  1.00  0.00     0.091 A 
HETATM    2  C8  UNL     1      22.168   0.600  52.591  1.00  0.00     0.041 A 
HETATM    3  C9  UNL     1      20.957  -0.005  52.812  1.00  0.00     0.033 A 
HETATM    4  C10 UNL     1      20.859  -0.976  53.786  1.00  0.00     0.044 A 
HETATM    5  C16 UNL     1      21.970  -1.328  54.521  1.00  0.00     0.057 A 
HETATM    6  C17 UNL     1      23.194  -0.688  54.268  1.00  0.00     0.069 A 
HETATM    7 CL1  UNL     1      24.471  -1.302  55.331  1.00  0.00    -0.081 Cl
ENDROOT
BRANCH   4   8
HETATM    8  N1  UNL     1      19.600  -1.602  54.014  1.00  0.00    -0.321 N 
HETATM    9  H8  UNL     1      19.540  -2.622  54.211  1.00  0.00     0.180 HD
BRANCH   8  10
HETATM   10  N2  UNL     1      18.324  -1.046  54.021  1.00  0.00    -0.236 NA
HETATM   11  H9  UNL     1      18.293  -0.021  54.014  1.00  0.00     0.146 HD
BRANCH  10  12
HETATM   12  C11 UNL     1      17.590  -1.609  52.900  1.00  0.00     0.147 C 
BRANCH  12  13
HETATM   13  C12 UNL     1      17.383  -0.618  51.825  1.00  0.00    -0.032 C 
HETATM   14  C13 UNL     1      17.890  -0.023  50.757  1.00  0.00     0.013 C 
HETATM   15  C14 UNL     1      16.963   0.536  50.031  1.00  0.00     0.092 C 
HETATM   16  N3  UNL     1      15.928   0.850  50.726  1.00  0.00    -0.282 NA
HETATM   17  C15 UNL     1      16.027   0.032  51.938  1.00  0.00     0.186 C 
ENDBRANCH  12  13
ENDBRANCH  10  12
ENDBRANCH   8  10
ENDBRANCH   4   8
BRANCH   1  18
HETATM   18  O1  UNL     1      24.597   0.725  53.273  1.00  0.00    -0.345 OA
BRANCH  18  19
HETATM   19  C6  UNL     1      25.603   0.683  52.335  1.00  0.00     0.214 C 
BRANCH  19  20
HETATM   20  C5  UNL     1      26.848  -0.012  52.740  1.00  0.00    -0.031 A 
HETATM   21  C4  UNL     1      27.853   0.791  53.299  1.00  0.00     0.009 A 
HETATM   22  C3  UNL     1      29.072   0.366  53.751  1.00  0.00     0.004 A 
HETATM   23  C2  UNL     1      29.355  -0.978  53.654  1.00  0.00     0.042 A 
HETATM   24  C1  UNL     1      28.402  -1.813  53.112  1.00  0.00     0.117 A 
HETATM   25  F1  UNL     1      28.630  -3.152  52.992  1.00  0.00    -0.206 F 
HETATM   26  C18 UNL     1      27.184  -1.347  52.667  1.00  0.00     0.051 A 
ENDBRANCH  19  20
ENDBRANCH  18  19
ENDBRANCH   1  18
TORSDOF 7
ENDMDL
MODEL 3
REMARK VINA RESULT:      -7.9      4.747      9.592
REMARK  7 active torsions:
REMARK  status: ('A' for Active; 'I' for Inactive)
REMARK    1  A    between atoms: C5_6  and  C6_7 
REMARK    2  A    between atoms: C6_7  and  O1_8 
REMARK    3  A    between atoms: O1_8  and  C7_9 
REMARK    4  A    between atoms: C10_12  and  N1_13 
REMARK    5  A    between atoms: N1_13  and  N2_14 
REMARK    6  A    between atoms: N2_14  and  C11_15 
REMARK    7  A    between atoms: C11_15  and  C12_16 
ROOT
HETATM    1  C7  UNL     1      22.296   1.262  51.472  1.00  0.00     0.091 A 
HETATM    2  C8  UNL     1      22.944   2.098  50.593  1.00  0.00     0.041 A 
HETATM    3  C9  UNL     1      24.176   2.653  50.828  1.00  0.00     0.033 A 
HETATM    4  C10 UNL     1      24.825   2.371  52.011  1.00  0.00     0.044 A 
HETATM    5  C16 UNL     1      24.235   1.540  52.939  1.00  0.00     0.057 A 
HETATM    6  C17 UNL     1      22.973   0.989  52.665  1.00  0.00     0.069 A 
HETATM    7 CL1  UNL     1      22.420  -0.040  53.996  1.00  0.00    -0.081 Cl
ENDROOT
BRANCH   4   8
HETATM    8  N1  UNL     1      26.106   2.948  52.252  1.00  0.00    -0.321 N 
HETATM    9  H8  UNL     1      26.191   3.903  52.657  1.00  0.00     0.180 HD
BRANCH   8  10
HETATM   10  N2  UNL     1      27.372   2.418  52.025  1.00  0.00    -0.236 NA
HETATM   11  H9  UNL     1      27.981   2.981  51.421  1.00  0.00     0.146 HD
BRANCH  10  12
HETATM   12  C11 UNL     1      27.987   2.171  53.318  1.00  0.00     0.147 C 
BRANCH  12  13
HETATM   13  C12 UNL     1      28.629   0.842  53.376  1.00  0.00    -0.032 C 
HETATM   14  C13 UNL     1      29.756   0.164  53.529  1.00  0.00     0.013 C 
HETATM   15  C14 UNL     1      29.530  -1.080  53.847  1.00  0.00     0.092 C 
HETATM   16  N3  UNL     1      28.383  -1.485  53.431  1.00  0.00    -0.282 NA
HETATM   17  C15 UNL     1      27.617  -0.259  53.187  1.00  0.00     0.186 C 
ENDBRANCH  12  13
ENDBRANCH  10  12
ENDBRANCH   8  10
ENDBRANCH   4   8
BRANCH   1  18
HETATM   18  O1  UNL     1      21.121   0.599  51.493  1.00  0.00    -0.345 OA
BRANCH  18  19
HETATM   19  C6  UNL     1      19.805   1.000  51.525  1.00  0.00     0.214 C 
BRANCH  19  20
HETATM   20  C5  UNL     1      18.826  -0.002  52.011  1.00  0.00    -0.031 A 
HETATM   21  C4  UNL     1      17.593  -0.038  51.344  1.00  0.00     0.009 A 
HETATM   22  C3  UNL     1      16.551  -0.883  51.613  1.00  0.00     0.004 A 
HETATM   23  C2  UNL     1      16.714  -1.792  52.634  1.00  0.00     0.042 A 
HETATM   24  C1  UNL     1      17.908  -1.799  53.323  1.00  0.00     0.117 A 
HETATM   25  F1  UNL     1      18.122  -2.678  54.344  1.00  0.00    -0.206 F 
HETATM   26  C18 UNL     1      18.935  -0.932  53.023  1.00  0.00     0.051 A 
ENDBRANCH  19  20
ENDBRANCH  18  19
ENDBRANCH   1  18
TORSDOF 7
ENDMDL
MODEL 4
REMARK VINA RESULT:      -7.9      6.587      9.496
REMARK  7 active torsions:
REMARK  status: ('A' for Active; 'I' for Inactive)
REMARK    1  A    between atoms: C5_6  and  C6_7 
REMARK    2  A    between atoms: C6_7  and  O1_8 
REMARK    3  A    between atoms: O1_8  and  C7_9 
REMARK    4  A    between atoms: C10_12  and  N1_13 
REMARK    5  A    between atoms: N1_13  and  N2_14 
REMARK    6  A    between atoms: N2_14  and  C11_15 
REMARK    7  A    between atoms: C11_15  and  C12_16 
ROOT
HETATM    1  C7  UNL     1      24.563   2.543  51.788  1.00  0.00     0.091 A 
HETATM    2  C8  UNL     1      23.603   3.162  52.555  1.00  0.00     0.041 A 
HETATM    3  C9  UNL     1      23.258   4.485  52.431  1.00  0.00     0.033 A 
HETATM    4  C10 UNL     1      23.899   5.261  51.489  1.00  0.00     0.044 A 
HETATM    5  C16 UNL     1      24.872   4.707  50.686  1.00  0.00     0.057 A 
HETATM    6  C17 UNL     1      25.200   3.350  50.839  1.00  0.00     0.069 A 
HETATM    7 CL1  UNL     1      26.470   2.865  49.704  1.00  0.00    -0.081 Cl
ENDROOT
BRANCH   4   8
HETATM    8  N1  UNL     1      23.538   6.634  51.364  1.00  0.00    -0.321 N 
HETATM    9  H8  UNL     1      22.558   6.909  51.145  1.00  0.00     0.180 HD
BRANCH   8  10
HETATM   10  N2  UNL     1      24.328   7.771  51.492  1.00  0.00    -0.236 NA
HETATM   11  H9  UNL     1      25.210   7.638  51.999  1.00  0.00     0.146 HD
BRANCH  10  12
HETATM   12  C11 UNL     1      24.556   8.305  50.160  1.00  0.00     0.147 C 
BRANCH  12  13
HETATM   13  C12 UNL     1      25.951   8.103  49.718  1.00  0.00    -0.032 C 
HETATM   14  C13 UNL     1      26.800   7.339  49.048  1.00  0.00     0.013 C 
HETATM   15  C14 UNL     1      27.890   7.984  48.741  1.00  0.00     0.092 C 
HETATM   16  N3  UNL     1      28.129   8.946  49.560  1.00  0.00    -0.282 NA
HETATM   17  C15 UNL     1      26.844   9.213  50.212  1.00  0.00     0.186 C 
ENDBRANCH  12  13
ENDBRANCH  10  12
ENDBRANCH   8  10
ENDBRANCH   4   8
BRANCH   1  18
HETATM   18  O1  UNL     1      25.083   1.301  51.702  1.00  0.00    -0.345 OA
BRANCH  18  19
HETATM   19  C6  UNL     1      25.491   0.375  52.634  1.00  0.00     0.214 C 
BRANCH  19  20
HETATM   20  C5  UNL     1      26.902   0.470  53.079  1.00  0.00    -0.031 A 
HETATM   21  C4  UNL     1      27.661  -0.705  52.991  1.00  0.00     0.009 A 
HETATM   22  C3  UNL     1      28.978  -0.847  53.333  1.00  0.00     0.004 A 
HETATM   23  C2  UNL     1      29.635   0.264  53.812  1.00  0.00     0.042 A 
HETATM   24  C1  UNL     1      28.936   1.446  53.920  1.00  0.00     0.117 A 
HETATM   25  F1  UNL     1      29.538   2.577  54.389  1.00  0.00    -0.206 F 
HETATM   26  C18 UNL     1      27.608   1.550  53.565  1.00  0.00     0.051 A 
ENDBRANCH  19  20
ENDBRANCH  18  19
ENDBRANCH   1  18
TORSDOF 7
ENDMDL
MODEL 5
REMARK VINA RESULT:      -7.8      1.855      2.328
REMARK  7 active torsions:
REMARK  status: ('A' for Active; 'I' for Inactive)
REMARK    1  A    between atoms: C5_6  and  C6_7 
REMARK    2  A    between atoms: C6_7  and  O1_8 
REMARK    3  A    between atoms: O1_8  and  C7_9 
REMARK    4  A    between atoms: C10_12  and  N1_13 
REMARK    5  A    between atoms: N1_13  and  N2_14 
REMARK    6  A    between atoms: N2_14  and  C11_15 
REMARK    7  A    between atoms: C11_15  and  C12_16 
ROOT
HETATM    1  C7  UNL     1      23.811   0.052  53.040  1.00  0.00     0.091 A 
HETATM    2  C8  UNL     1      23.596  -0.726  54.155  1.00  0.00     0.041 A 
HETATM    3  C9  UNL     1      22.356  -1.129  54.582  1.00  0.00     0.033 A 
HETATM    4  C10 UNL     1      21.242  -0.743  53.868  1.00  0.00     0.044 A 
HETATM    5  C16 UNL     1      21.382   0.037  52.741  1.00  0.00     0.057 A 
HETATM    6  C17 UNL     1      22.666   0.430  52.331  1.00  0.00     0.069 A 
HETATM    7 CL1  UNL     1      22.597   1.421  50.865  1.00  0.00    -0.081 Cl
ENDROOT
BRANCH   4   8
HETATM    8  N1  UNL     1      19.956  -1.163  54.315  1.00  0.00    -0.321 N 
HETATM    9  H8  UNL     1      19.857  -1.946  54.994  1.00  0.00     0.180 HD
BRANCH   8  10
HETATM   10  N2  UNL     1      18.698  -0.673  53.977  1.00  0.00    -0.236 NA
HETATM   11  H9  UNL     1      18.693   0.250  53.530  1.00  0.00     0.146 HD
BRANCH  10  12
HETATM   12  C11 UNL     1      18.043  -1.669  53.146  1.00  0.00     0.147 C 
BRANCH  12  13
HETATM   13  C12 UNL     1      17.179  -1.048  52.121  1.00  0.00    -0.032 C 
HETATM   14  C13 UNL     1      15.952  -0.909  51.645  1.00  0.00     0.013 C 
HETATM   15  C14 UNL     1      15.847   0.142  50.881  1.00  0.00     0.092 C 
HETATM   16  N3  UNL     1      16.971   0.466  50.348  1.00  0.00    -0.282 NA
HETATM   17  C15 UNL     1      17.985  -0.187  51.181  1.00  0.00     0.186 C 
ENDBRANCH  12  13
ENDBRANCH  10  12
ENDBRANCH   8  10
ENDBRANCH   4   8
BRANCH   1  18
HETATM   18  O1  UNL     1      24.887   0.574  52.415  1.00  0.00    -0.345 OA
BRANCH  18  19
HETATM   19  C6  UNL     1      26.037   1.186  52.855  1.00  0.00     0.214 C 
BRANCH  19  20
HETATM   20  C5  UNL     1      27.217   0.309  53.043  1.00  0.00    -0.031 A 
HETATM   21  C4  UNL     1      28.402   0.941  53.446  1.00  0.00     0.009 A 
HETATM   22  C3  UNL     1      29.603   0.332  53.689  1.00  0.00     0.004 A 
HETATM   23  C2  UNL     1      29.669  -1.034  53.526  1.00  0.00     0.042 A 
HETATM   24  C1  UNL     1      28.533  -1.705  53.131  1.00  0.00     0.117 A 
HETATM   25  F1  UNL     1      28.543  -3.057  52.954  1.00  0.00    -0.206 F 
HETATM   26  C18 UNL     1      27.340  -1.056  52.895  1.00  0.00     0.051 A 
ENDBRANCH  19  20
ENDBRANCH  18  19
ENDBRANCH   1  18
TORSDOF 7
ENDMDL
MODEL 6
REMARK VINA RESULT:      -7.8      5.590      8.377
REMARK  7 active torsions:
REMARK  status: ('A' for Active; 'I' for Inactive)
REMARK    1  A    between atoms: C5_6  and  C6_7 
REMARK    2  A    between atoms: C6_7  and  O1_8 
REMARK    3  A    between atoms: O1_8  and  C7_9 
REMARK    4  A    between atoms: C10_12  and  N1_13 
REMARK    5  A    between atoms: N1_13  and  N2_14 
REMARK    6  A    between atoms: N2_14  and  C11_15 
REMARK    7  A    between atoms: C11_15  and  C12_16 
ROOT
HETATM    1  C7  UNL     1      23.648   3.927  51.660  1.00  0.00     0.091 A 
HETATM    2  C8  UNL     1      24.087   3.571  52.914  1.00  0.00     0.041 A 
HETATM    3  C9  UNL     1      24.220   2.275  53.342  1.00  0.00     0.033 A 
HETATM    4  C10 UNL     1      23.898   1.247  52.482  1.00  0.00     0.044 A 
HETATM    5  C16 UNL     1      23.450   1.529  51.209  1.00  0.00     0.057 A 
HETATM    6  C17 UNL     1      23.327   2.868  50.804  1.00  0.00     0.069 A 
HETATM    7 CL1  UNL     1      22.737   2.982  49.138  1.00  0.00    -0.081 Cl
ENDROOT
BRANCH   4   8
HETATM    8  N1  UNL     1      24.037  -0.099  52.929  1.00  0.00    -0.321 N 
HETATM    9  H8  UNL     1      23.307  -0.809  52.714  1.00  0.00     0.180 HD
BRANCH   8  10
HETATM   10  N2  UNL     1      25.061  -0.684  53.667  1.00  0.00    -0.236 NA
HETATM   11  H9  UNL     1      24.810  -1.550  54.156  1.00  0.00     0.146 HD
BRANCH  10  12
HETATM   12  C11 UNL     1      26.189  -0.888  52.773  1.00  0.00     0.147 C 
BRANCH  12  13
HETATM   13  C12 UNL     1      27.471  -0.544  53.419  1.00  0.00    -0.032 C 
HETATM   14  C13 UNL     1      28.786  -0.700  53.421  1.00  0.00     0.013 C 
HETATM   15  C14 UNL     1      29.382   0.241  54.098  1.00  0.00     0.092 C 
HETATM   16  N3  UNL     1      28.618   0.744  55.001  1.00  0.00    -0.282 NA
HETATM   17  C15 UNL     1      27.259   0.384  54.588  1.00  0.00     0.186 C 
ENDBRANCH  12  13
ENDBRANCH  10  12
ENDBRANCH   8  10
ENDBRANCH   4   8
BRANCH   1  18
HETATM   18  O1  UNL     1      23.431   5.083  51.000  1.00  0.00    -0.345 OA
BRANCH  18  19
HETATM   19  C6  UNL     1      24.152   6.246  50.859  1.00  0.00     0.214 C 
BRANCH  19  20
HETATM   20  C5  UNL     1      25.361   6.169  50.006  1.00  0.00    -0.031 A 
HETATM   21  C4  UNL     1      25.910   7.392  49.594  1.00  0.00     0.009 A 
HETATM   22  C3  UNL     1      27.023   7.561  48.817  1.00  0.00     0.004 A 
HETATM   23  C2  UNL     1      27.679   6.428  48.390  1.00  0.00     0.042 A 
HETATM   24  C1  UNL     1      27.183   5.199  48.766  1.00  0.00     0.117 A 
HETATM   25  F1  UNL     1      27.793   4.046  48.370  1.00  0.00    -0.206 F 
HETATM   26  C18 UNL     1      26.057   5.070  49.550  1.00  0.00     0.051 A 
ENDBRANCH  19  20
ENDBRANCH  18  19
ENDBRANCH   1  18
TORSDOF 7
ENDMDL
MODEL 7
REMARK VINA RESULT:      -7.7      7.048     10.680
REMARK  7 active torsions:
REMARK  status: ('A' for Active; 'I' for Inactive)
REMARK    1  A    between atoms: C5_6  and  C6_7 
REMARK    2  A    between atoms: C6_7  and  O1_8 
REMARK    3  A    between atoms: O1_8  and  C7_9 
REMARK    4  A    between atoms: C10_12  and  N1_13 
REMARK    5  A    between atoms: N1_13  and  N2_14 
REMARK    6  A    between atoms: N2_14  and  C11_15 
REMARK    7  A    between atoms: C11_15  and  C12_16 
ROOT
HETATM    1  C7  UNL     1      25.087   3.038  50.908  1.00  0.00     0.091 A 
HETATM    2  C8  UNL     1      26.227   2.894  50.152  1.00  0.00     0.041 A 
HETATM    3  C9  UNL     1      26.791   3.903  49.412  1.00  0.00     0.033 A 
HETATM    4  C10 UNL     1      26.196   5.147  49.410  1.00  0.00     0.044 A 
HETATM    5  C16 UNL     1      25.050   5.364  50.145  1.00  0.00     0.057 A 
HETATM    6  C17 UNL     1      24.501   4.309  50.891  1.00  0.00     0.069 A 
HETATM    7 CL1  UNL     1      23.039   4.822  51.748  1.00  0.00    -0.081 Cl
ENDROOT
BRANCH   4   8
HETATM    8  N1  UNL     1      26.784   6.193  48.641  1.00  0.00    -0.321 N 
HETATM    9  H8  UNL     1      26.427   6.419  47.690  1.00  0.00     0.180 HD
BRANCH   8  10
HETATM   10  N2  UNL     1      27.840   7.040  48.962  1.00  0.00    -0.236 NA
HETATM   11  H9  UNL     1      28.278   6.869  49.873  1.00  0.00     0.146 HD
BRANCH  10  12
HETATM   12  C11 UNL     1      28.811   6.965  47.883  1.00  0.00     0.147 C 
BRANCH  12  13
HETATM   13  C12 UNL     1      30.147   6.571  48.373  1.00  0.00    -0.032 C 
HETATM   14  C13 UNL     1      31.203   6.907  49.098  1.00  0.00     0.013 C 
HETATM   15  C14 UNL     1      31.924   5.867  49.410  1.00  0.00     0.092 C 
HETATM   16  N3  UNL     1      31.787   4.912  48.560  1.00  0.00    -0.282 NA
HETATM   17  C15 UNL     1      30.533   5.206  47.861  1.00  0.00     0.186 C 
ENDBRANCH  12  13
ENDBRANCH  10  12
ENDBRANCH   8  10
ENDBRANCH   4   8
BRANCH   1  18
HETATM   18  O1  UNL     1      24.343   2.241  51.703  1.00  0.00    -0.345 OA
BRANCH  18  19
HETATM   19  C6  UNL     1      24.534   1.703  52.954  1.00  0.00     0.214 C 
BRANCH  19  20
HETATM   20  C5  UNL     1      25.808   0.978  53.169  1.00  0.00    -0.031 A 
HETATM   21  C4  UNL     1      25.902  -0.296  52.590  1.00  0.00     0.009 A 
HETATM   22  C3  UNL     1      26.981  -1.135  52.650  1.00  0.00     0.004 A 
HETATM   23  C2  UNL     1      28.090  -0.701  53.342  1.00  0.00     0.042 A 
HETATM   24  C1  UNL     1      28.051   0.544  53.930  1.00  0.00     0.117 A 
HETATM   25  F1  UNL     1      29.121   1.023  54.628  1.00  0.00    -0.206 F 
HETATM   26  C18 UNL     1      26.945   1.362  53.849  1.00  0.00     0.051 A 
ENDBRANCH  19  20
ENDBRANCH  18  19
ENDBRANCH   1  18
TORSDOF 7
ENDMDL
MODEL 8
REMARK VINA RESULT:      -7.5      7.066     11.371
REMARK  7 active torsions:
REMARK  status: ('A' for Active; 'I' for Inactive)
REMARK    1  A    between atoms: C5_6  and  C6_7 
REMARK    2  A    between atoms: C6_7  and  O1_8 
REMARK    3  A    between atoms: O1_8  and  C7_9 
REMARK    4  A    between atoms: C10_12  and  N1_13 
REMARK    5  A    between atoms: N1_13  and  N2_14 
REMARK    6  A    between atoms: N2_14  and  C11_15 
REMARK    7  A    between atoms: C11_15  and  C12_16 
ROOT
HETATM    1  C7  UNL     1      24.622   4.086  50.466  1.00  0.00     0.091 A 
HETATM    2  C8  UNL     1      25.623   3.309  49.930  1.00  0.00     0.041 A 
HETATM    3  C9  UNL     1      26.751   3.813  49.335  1.00  0.00     0.033 A 
HETATM    4  C10 UNL     1      26.915   5.180  49.256  1.00  0.00     0.044 A 
HETATM    5  C16 UNL     1      25.952   6.020  49.772  1.00  0.00     0.057 A 
HETATM    6  C17 UNL     1      24.810   5.470  50.375  1.00  0.00     0.069 A 
HETATM    7 CL1  UNL     1      23.720   6.736  50.961  1.00  0.00    -0.081 Cl
ENDROOT
BRANCH   4   8
HETATM    8  N1  UNL     1      28.088   5.701  48.637  1.00  0.00    -0.321 N 
HETATM    9  H8  UNL     1      28.020   6.315  47.800  1.00  0.00     0.180 HD
BRANCH   8  10
HETATM   10  N2  UNL     1      29.425   5.521  48.982  1.00  0.00    -0.236 NA
HETATM   11  H9  UNL     1      29.669   4.581  49.313  1.00  0.00     0.146 HD
BRANCH  10  12
HETATM   12  C11 UNL     1      30.233   5.908  47.838  1.00  0.00     0.147 C 
BRANCH  12  13
HETATM   13  C12 UNL     1      31.352   4.971  47.613  1.00  0.00    -0.032 C 
HETATM   14  C13 UNL     1      31.783   3.895  46.973  1.00  0.00     0.013 C 
HETATM   15  C14 UNL     1      33.084   3.820  46.978  1.00  0.00     0.092 C 
HETATM   16  N3  UNL     1      33.600   4.433  47.984  1.00  0.00    -0.282 NA
HETATM   17  C15 UNL     1      32.553   5.350  48.443  1.00  0.00     0.186 C 
ENDBRANCH  12  13
ENDBRANCH  10  12
ENDBRANCH   8  10
ENDBRANCH   4   8
BRANCH   1  18
HETATM   18  O1  UNL     1      23.447   3.860  51.089  1.00  0.00    -0.345 OA
BRANCH  18  19
HETATM   19  C6  UNL     1      23.107   3.428  52.350  1.00  0.00     0.214 C 
BRANCH  19  20
HETATM   20  C5  UNL     1      23.879   2.279  52.880  1.00  0.00    -0.031 A 
HETATM   21  C4  UNL     1      23.265   1.022  52.785  1.00  0.00     0.009 A 
HETATM   22  C3  UNL     1      23.793  -0.171  53.197  1.00  0.00     0.004 A 
HETATM   23  C2  UNL     1      25.049  -0.151  53.761  1.00  0.00     0.042 A 
HETATM   24  C1  UNL     1      25.698   1.058  53.878  1.00  0.00     0.117 A 
HETATM   25  F1  UNL     1      26.943   1.135  54.429  1.00  0.00    -0.206 F 
HETATM   26  C18 UNL     1      25.133   2.240  53.451  1.00  0.00     0.051 A 
ENDBRANCH  19  20
ENDBRANCH  18  19
ENDBRANCH   1  18
TORSDOF 7
ENDMDL
MODEL 9
REMARK VINA RESULT:      -7.5      5.148      7.567
REMARK  7 active torsions:
REMARK  status: ('A' for Active; 'I' for Inactive)
REMARK    1  A    between atoms: C5_6  and  C6_7 
REMARK    2  A    between atoms: C6_7  and  O1_8 
REMARK    3  A    between atoms: O1_8  and  C7_9 
REMARK    4  A    between atoms: C10_12  and  N1_13 
REMARK    5  A    between atoms: N1_13  and  N2_14 
REMARK    6  A    between atoms: N2_14  and  C11_15 
REMARK    7  A    between atoms: C11_15  and  C12_16 
ROOT
HETATM    1  C7  UNL     1      24.202   1.352  53.124  1.00  0.00     0.091 A 
HETATM    2  C8  UNL     1      24.579   2.675  53.082  1.00  0.00     0.041 A 
HETATM    3  C9  UNL     1      23.751   3.697  52.694  1.00  0.00     0.033 A 
HETATM    4  C10 UNL     1      22.457   3.408  52.318  1.00  0.00     0.044 A 
HETATM    5  C16 UNL     1      22.009   2.104  52.336  1.00  0.00     0.057 A 
HETATM    6  C17 UNL     1      22.884   1.082  52.739  1.00  0.00     0.069 A 
HETATM    7 CL1  UNL     1      22.091  -0.500  52.681  1.00  0.00    -0.081 Cl
ENDROOT
BRANCH   4   8
HETATM    8  N1  UNL     1      21.599   4.473  51.916  1.00  0.00    -0.321 N 
HETATM    9  H8  UNL     1      21.000   4.965  52.611  1.00  0.00     0.180 HD
BRANCH   8  10
HETATM   10  N2  UNL     1      21.402   5.020  50.652  1.00  0.00    -0.236 NA
HETATM   11  H9  UNL     1      20.422   5.134  50.372  1.00  0.00     0.146 HD
BRANCH  10  12
HETATM   12  C11 UNL     1      22.120   6.283  50.600  1.00  0.00     0.147 C 
BRANCH  12  13
HETATM   13  C12 UNL     1      23.493   6.113  50.084  1.00  0.00    -0.032 C 
HETATM   14  C13 UNL     1      24.279   5.502  49.212  1.00  0.00     0.013 C 
HETATM   15  C14 UNL     1      25.412   6.130  49.061  1.00  0.00     0.092 C 
HETATM   16  N3  UNL     1      25.725   6.818  50.101  1.00  0.00    -0.282 NA
HETATM   17  C15 UNL     1      24.467   6.986  50.834  1.00  0.00     0.186 C 
ENDBRANCH  12  13
ENDBRANCH  10  12
ENDBRANCH   8  10
ENDBRANCH   4   8
BRANCH   1  18
HETATM   18  O1  UNL     1      24.792   0.185  53.454  1.00  0.00    -0.345 OA
BRANCH  18  19
HETATM   19  C6  UNL     1      25.745  -0.602  52.850  1.00  0.00     0.214 C 
BRANCH  19  20
HETATM   20  C5  UNL     1      27.152  -0.339  53.233  1.00  0.00    -0.031 A 
HETATM   21  C4  UNL     1      28.051  -1.402  53.060  1.00  0.00     0.009 A 
HETATM   22  C3  UNL     1      29.391  -1.383  53.335  1.00  0.00     0.004 A 
HETATM   23  C2  UNL     1      29.923  -0.213  53.831  1.00  0.00     0.042 A 
HETATM   24  C1  UNL     1      29.084   0.862  54.021  1.00  0.00     0.117 A 
HETATM   25  F1  UNL     1      29.559   2.044  54.510  1.00  0.00    -0.206 F 
HETATM   26  C18 UNL     1      27.738   0.805  53.732  1.00  0.00     0.051 A 
ENDBRANCH  19  20
ENDBRANCH  18  19
ENDBRANCH   1  18
TORSDOF 7
ENDMDL
