MODEL 1
REMARK VINA RESULT:      -8.7      0.000      0.000
REMARK  6 active torsions:
REMARK  status: ('A' for Active; 'I' for Inactive)
REMARK    1  A    between atoms: N1_2  and  C2_3 
REMARK    2  A    between atoms: N1_2  and  C4_7 
REMARK    3  A    between atoms: C2_3  and  C3_4 
REMARK       I    between atoms: C3_4  and  N2_5 
REMARK    4  A    between atoms: C4_7  and  C5_8 
REMARK    5  A    between atoms: C12_17  and  N5_18 
REMARK    6  A    between atoms: N5_18  and  C13_19 
ROOT
HETATM    1  C5  UNL     1      22.829   0.771  51.949  1.00  0.00    -0.029 A 
HETATM    2  C6  UNL     1      23.207   0.013  53.039  1.00  0.00     0.010 A 
HETATM    3  C7  UNL     1      24.513   0.109  53.484  1.00  0.00     0.014 A 
HETATM    4  C8  UNL     1      25.423   0.959  52.839  1.00  0.00     0.000 A 
HETATM    5  C9  UNL     1      26.725   1.039  53.315  1.00  0.00     0.073 A 
HETATM    6  C10 UNL     1      27.197   0.279  54.447  1.00  0.00     0.102 C 
HETATM    7  N3  UNL     1      27.562  -0.339  55.345  1.00  0.00    -0.191 NA
HETATM    8  C11 UNL     1      27.553   1.901  52.632  1.00  0.00     0.142 A 
HETATM    9  N4  UNL     1      27.167   2.626  51.578  1.00  0.00    -0.241 NA
HETATM   10  C12 UNL     1      25.905   2.566  51.092  1.00  0.00     0.139 A 
HETATM   11  C19 UNL     1      25.010   1.714  51.734  1.00  0.00     0.022 A 
HETATM   12  C20 UNL     1      23.717   1.602  51.313  1.00  0.00     0.025 A 
ENDROOT
BRANCH  10  13
HETATM   13  N5  UNL     1      25.372   3.295  49.994  1.00  0.00    -0.340 N 
HETATM   14  H13 UNL     1      24.530   2.883  49.538  1.00  0.00     0.167 HD
BRANCH  13  15
HETATM   15  C13 UNL     1      25.980   4.508  49.573  1.00  0.00     0.035 A 
HETATM   16  C14 UNL     1      27.161   4.456  48.853  1.00  0.00     0.029 A 
HETATM   17  C15 UNL     1      27.788   5.614  48.431  1.00  0.00     0.004 A 
HETATM   18  C16 UNL     1      27.201   6.817  48.748  1.00  0.00     0.019 A 
HETATM   19  C17 UNL     1      26.005   6.882  49.475  1.00  0.00     0.013 A 
HETATM   20 BR1  UNL     1      25.245   8.608  49.877  1.00  0.00    -0.051 Br
HETATM   21  C18 UNL     1      25.376   5.728  49.898  1.00  0.00     0.048 A 
ENDBRANCH  13  15
ENDBRANCH  10  13
BRANCH   1  22
HETATM   22  C4  UNL     1      21.432   0.722  51.437  1.00  0.00     0.311 C 
BRANCH  22  23
HETATM   23  N1  UNL     1      20.455   0.815  52.461  1.00  0.00     0.097 N 
HETATM   24  C1  UNL     1      20.124   2.197  52.685  1.00  0.00     0.310 C 
BRANCH  23  25
HETATM   25  C2  UNL     1      19.265   0.043  52.303  1.00  0.00     0.374 C 
BRANCH  25  26
HETATM   26  C3  UNL     1      19.219  -0.976  53.417  1.00  0.00     0.243 C 
HETATM   27  N2  UNL     1      17.879  -1.282  53.777  1.00  0.00    -0.369 N 
HETATM   28  H6  UNL     1      16.902  -1.498  54.070  1.00  0.00     0.159 HD
HETATM   29  H7  UNL     1      17.568  -1.161  54.781  1.00  0.00     0.159 HD
HETATM   30  O1  UNL     1      20.166  -1.546  54.017  1.00  0.00    -0.272 OA
ENDBRANCH  25  26
ENDBRANCH  23  25
ENDBRANCH  22  23
ENDBRANCH   1  22
TORSDOF 6
ENDMDL
MODEL 2
REMARK VINA RESULT:      -8.5      2.134      5.289
REMARK  6 active torsions:
REMARK  status: ('A' for Active; 'I' for Inactive)
REMARK    1  A    between atoms: N1_2  and  C2_3 
REMARK    2  A    between atoms: N1_2  and  C4_7 
REMARK    3  A    between atoms: C2_3  and  C3_4 
REMARK       I    between atoms: C3_4  and  N2_5 
REMARK    4  A    between atoms: C4_7  and  C5_8 
REMARK    5  A    between atoms: C12_17  and  N5_18 
REMARK    6  A    between atoms: N5_18  and  C13_19 
ROOT
HETATM    1  C5  UNL     1      24.919   0.615  53.562  1.00  0.00    -0.029 A 
HETATM    2  C6  UNL     1      23.928  -0.347  53.522  1.00  0.00     0.010 A 
HETATM    3  C7  UNL     1      22.726  -0.025  52.917  1.00  0.00     0.014 A 
HETATM    4  C8  UNL     1      22.527   1.247  52.361  1.00  0.00     0.000 A 
HETATM    5  C9  UNL     1      21.312   1.535  51.754  1.00  0.00     0.073 A 
HETATM    6  C10 UNL     1      20.228   0.586  51.673  1.00  0.00     0.102 C 
HETATM    7  N3  UNL     1      19.370  -0.177  51.622  1.00  0.00    -0.191 NA
HETATM    8  C11 UNL     1      21.200   2.801  51.225  1.00  0.00     0.142 A 
HETATM    9  N4  UNL     1      22.172   3.718  51.275  1.00  0.00    -0.241 NA
HETATM   10  C12 UNL     1      23.365   3.464  51.861  1.00  0.00     0.139 A 
HETATM   11  C19 UNL     1      23.551   2.201  52.418  1.00  0.00     0.022 A 
HETATM   12  C20 UNL     1      24.727   1.862  53.019  1.00  0.00     0.025 A 
ENDROOT
BRANCH  10  13
HETATM   13  N5  UNL     1      24.476   4.345  51.964  1.00  0.00    -0.340 N 
HETATM   14  H13 UNL     1      24.675   4.720  52.915  1.00  0.00     0.167 HD
BRANCH  13  15
HETATM   15  C13 UNL     1      25.244   4.670  50.814  1.00  0.00     0.035 A 
HETATM   16  C14 UNL     1      26.141   3.740  50.317  1.00  0.00     0.029 A 
HETATM   17  C15 UNL     1      26.912   4.021  49.203  1.00  0.00     0.004 A 
HETATM   18  C16 UNL     1      26.761   5.251  48.608  1.00  0.00     0.019 A 
HETATM   19  C17 UNL     1      25.856   6.201  49.102  1.00  0.00     0.013 A 
HETATM   20 BR1  UNL     1      25.701   7.902  48.208  1.00  0.00    -0.051 Br
HETATM   21  C18 UNL     1      25.084   5.924  50.213  1.00  0.00     0.048 A 
ENDBRANCH  13  15
ENDBRANCH  10  13
BRANCH   1  22
HETATM   22  C4  UNL     1      26.239   0.321  54.183  1.00  0.00     0.311 C 
BRANCH  22  23
HETATM   23  N1  UNL     1      27.286   0.184  53.235  1.00  0.00     0.097 N 
HETATM   24  C1  UNL     1      27.973   1.440  53.094  1.00  0.00     0.310 C 
BRANCH  23  25
HETATM   25  C2  UNL     1      28.227  -0.869  53.446  1.00  0.00     0.374 C 
BRANCH  25  26
HETATM   26  C3  UNL     1      27.671  -2.123  52.813  1.00  0.00     0.243 C 
HETATM   27  N2  UNL     1      28.468  -3.255  53.134  1.00  0.00    -0.369 N 
HETATM   28  H6  UNL     1      29.056  -4.091  53.340  1.00  0.00     0.159 HD
HETATM   29  H7  UNL     1      28.872  -3.846  52.355  1.00  0.00     0.159 HD
HETATM   30  O1  UNL     1      26.655  -2.268  52.087  1.00  0.00    -0.272 OA
ENDBRANCH  25  26
ENDBRANCH  23  25
ENDBRANCH  22  23
ENDBRANCH   1  22
TORSDOF 6
ENDMDL
MODEL 3
REMARK VINA RESULT:      -8.5      2.363      5.666
REMARK  6 active torsions:
REMARK  status: ('A' for Active; 'I' for Inactive)
REMARK    1  A    between atoms: N1_2  and  C2_3 
REMARK    2  A    between atoms: N1_2  and  C4_7 
REMARK    3  A    between atoms: C2_3  and  C3_4 
REMARK       I    between atoms: C3_4  and  N2_5 
REMARK    4  A    between atoms: C4_7  and  C5_8 
REMARK    5  A    between atoms: C12_17  and  N5_18 
REMARK    6  A    between atoms: N5_18  and  C13_19 
ROOT
HETATM    1  C5  UNL     1      24.621   0.132  53.029  1.00  0.00    -0.029 A 
HETATM    2  C6  UNL     1      23.562  -0.753  53.049  1.00  0.00     0.010 A 
HETATM    3  C7  UNL     1      22.288  -0.256  52.837  1.00  0.00     0.014 A 
HETATM    4  C8  UNL     1      22.087   1.113  52.609  1.00  0.00     0.000 A 
HETATM    5  C9  UNL     1      20.797   1.579  52.393  1.00  0.00     0.073 A 
HETATM    6  C10 UNL     1      19.638   0.719  52.399  1.00  0.00     0.102 C 
HETATM    7  N3  UNL     1      18.723   0.024  52.415  1.00  0.00    -0.191 NA
HETATM    8  C11 UNL     1      20.687   2.933  52.168  1.00  0.00     0.142 A 
HETATM    9  N4  UNL     1      21.726   3.773  52.153  1.00  0.00    -0.241 NA
HETATM   10  C12 UNL     1      22.993   3.346  52.362  1.00  0.00     0.139 A 
HETATM   11  C19 UNL     1      23.182   1.986  52.596  1.00  0.00     0.022 A 
HETATM   12  C20 UNL     1      24.429   1.474  52.807  1.00  0.00     0.025 A 
ENDROOT
BRANCH  10  13
HETATM   13  N5  UNL     1      24.177   4.134  52.355  1.00  0.00    -0.340 N 
HETATM   14  H13 UNL     1      24.690   4.193  53.260  1.00  0.00     0.167 HD
BRANCH  13  15
HETATM   15  C13 UNL     1      24.600   4.785  51.166  1.00  0.00     0.035 A 
HETATM   16  C14 UNL     1      25.449   4.120  50.299  1.00  0.00     0.029 A 
HETATM   17  C15 UNL     1      25.890   4.722  49.134  1.00  0.00     0.004 A 
HETATM   18  C16 UNL     1      25.459   6.000  48.866  1.00  0.00     0.019 A 
HETATM   19  C17 UNL     1      24.599   6.683  49.736  1.00  0.00     0.013 A 
HETATM   20 BR1  UNL     1      24.038   8.472  49.287  1.00  0.00    -0.051 Br
HETATM   21  C18 UNL     1      24.157   6.086  50.900  1.00  0.00     0.048 A 
ENDBRANCH  13  15
ENDBRANCH  10  13
BRANCH   1  22
HETATM   22  C4  UNL     1      26.016  -0.347  53.231  1.00  0.00     0.311 C 
BRANCH  22  23
HETATM   23  N1  UNL     1      26.731   0.402  54.200  1.00  0.00     0.097 N 
HETATM   24  C1  UNL     1      26.317   0.000  55.519  1.00  0.00     0.310 C 
BRANCH  23  25
HETATM   25  C2  UNL     1      28.156   0.400  54.111  1.00  0.00     0.374 C 
BRANCH  25  26
HETATM   26  C3  UNL     1      28.594   1.763  53.630  1.00  0.00     0.243 C 
HETATM   27  N2  UNL     1      29.607   2.301  54.468  1.00  0.00    -0.369 N 
HETATM   28  H6  UNL     1      30.334   2.720  55.088  1.00  0.00     0.159 HD
HETATM   29  H7  UNL     1      29.464   3.247  54.919  1.00  0.00     0.159 HD
HETATM   30  O1  UNL     1      28.193   2.427  52.640  1.00  0.00    -0.272 OA
ENDBRANCH  25  26
ENDBRANCH  23  25
ENDBRANCH  22  23
ENDBRANCH   1  22
TORSDOF 6
ENDMDL
MODEL 4
REMARK VINA RESULT:      -8.4      2.543      3.148
REMARK  6 active torsions:
REMARK  status: ('A' for Active; 'I' for Inactive)
REMARK    1  A    between atoms: N1_2  and  C2_3 
REMARK    2  A    between atoms: N1_2  and  C4_7 
REMARK    3  A    between atoms: C2_3  and  C3_4 
REMARK       I    between atoms: C3_4  and  N2_5 
REMARK    4  A    between atoms: C4_7  and  C5_8 
REMARK    5  A    between atoms: C12_17  and  N5_18 
REMARK    6  A    between atoms: N5_18  and  C13_19 
ROOT
HETATM    1  C5  UNL     1      22.563   1.477  51.468  1.00  0.00    -0.029 A 
HETATM    2  C6  UNL     1      22.731   0.733  52.619  1.00  0.00     0.010 A 
HETATM    3  C7  UNL     1      24.000   0.648  53.165  1.00  0.00     0.014 A 
HETATM    4  C8  UNL     1      25.081   1.302  52.558  1.00  0.00     0.000 A 
HETATM    5  C9  UNL     1      26.340   1.203  53.135  1.00  0.00     0.073 A 
HETATM    6  C10 UNL     1      26.598   0.444  54.336  1.00  0.00     0.102 C 
HETATM    7  N3  UNL     1      26.790  -0.170  55.288  1.00  0.00    -0.191 NA
HETATM    8  C11 UNL     1      27.346   1.882  52.484  1.00  0.00     0.142 A 
HETATM    9  N4  UNL     1      27.161   2.596  51.370  1.00  0.00    -0.241 NA
HETATM   10  C12 UNL     1      25.946   2.709  50.785  1.00  0.00     0.139 A 
HETATM   11  C19 UNL     1      24.879   2.048  51.390  1.00  0.00     0.022 A 
HETATM   12  C20 UNL     1      23.620   2.119  50.870  1.00  0.00     0.025 A 
ENDROOT
BRANCH  10  13
HETATM   13  N5  UNL     1      25.620   3.448  49.615  1.00  0.00    -0.340 N 
HETATM   14  H13 UNL     1      25.088   2.932  48.883  1.00  0.00     0.167 HD
BRANCH  13  15
HETATM   15  C13 UNL     1      26.016   4.806  49.490  1.00  0.00     0.035 A 
HETATM   16  C14 UNL     1      25.289   5.784  50.147  1.00  0.00     0.029 A 
HETATM   17  C15 UNL     1      25.637   7.119  50.044  1.00  0.00     0.004 A 
HETATM   18  C16 UNL     1      26.727   7.443  49.271  1.00  0.00     0.019 A 
HETATM   19  C17 UNL     1      27.471   6.463  48.601  1.00  0.00     0.013 A 
HETATM   20 BR1  UNL     1      28.986   6.999  47.538  1.00  0.00    -0.051 Br
HETATM   21  C18 UNL     1      27.127   5.129  48.701  1.00  0.00     0.048 A 
ENDBRANCH  13  15
ENDBRANCH  10  13
BRANCH   1  22
HETATM   22  C4  UNL     1      21.219   1.622  50.846  1.00  0.00     0.311 C 
BRANCH  22  23
HETATM   23  N1  UNL     1      20.891   2.964  50.526  1.00  0.00     0.097 N 
HETATM   24  C1  UNL     1      19.842   2.980  49.541  1.00  0.00     0.310 C 
BRANCH  23  25
HETATM   25  C2  UNL     1      20.561   3.835  51.608  1.00  0.00     0.374 C 
BRANCH  25  26
HETATM   26  C3  UNL     1      21.408   5.078  51.480  1.00  0.00     0.243 C 
HETATM   27  N2  UNL     1      22.392   5.136  52.504  1.00  0.00    -0.369 N 
HETATM   28  H6  UNL     1      23.103   5.205  53.263  1.00  0.00     0.159 HD
HETATM   29  H7  UNL     1      22.436   5.983  53.137  1.00  0.00     0.159 HD
HETATM   30  O1  UNL     1      21.346   6.002  50.628  1.00  0.00    -0.272 OA
ENDBRANCH  25  26
ENDBRANCH  23  25
ENDBRANCH  22  23
ENDBRANCH   1  22
TORSDOF 6
ENDMDL
MODEL 5
REMARK VINA RESULT:      -8.4      2.293      5.710
REMARK  6 active torsions:
REMARK  status: ('A' for Active; 'I' for Inactive)
REMARK    1  A    between atoms: N1_2  and  C2_3 
REMARK    2  A    between atoms: N1_2  and  C4_7 
REMARK    3  A    between atoms: C2_3  and  C3_4 
REMARK       I    between atoms: C3_4  and  N2_5 
REMARK    4  A    between atoms: C4_7  and  C5_8 
REMARK    5  A    between atoms: C12_17  and  N5_18 
REMARK    6  A    between atoms: N5_18  and  C13_19 
ROOT
HETATM    1  C5  UNL     1      23.969  -0.528  54.055  1.00  0.00    -0.029 A 
HETATM    2  C6  UNL     1      22.907  -1.140  54.691  1.00  0.00     0.010 A 
HETATM    3  C7  UNL     1      21.639  -0.962  54.168  1.00  0.00     0.014 A 
HETATM    4  C8  UNL     1      21.446  -0.179  53.021  1.00  0.00     0.000 A 
HETATM    5  C9  UNL     1      20.161  -0.027  52.517  1.00  0.00     0.073 A 
HETATM    6  C10 UNL     1      19.000  -0.632  53.124  1.00  0.00     0.102 C 
HETATM    7  N3  UNL     1      18.083  -1.114  53.622  1.00  0.00    -0.191 NA
HETATM    8  C11 UNL     1      20.057   0.750  51.384  1.00  0.00     0.142 A 
HETATM    9  N4  UNL     1      21.098   1.334  50.784  1.00  0.00    -0.241 NA
HETATM   10  C12 UNL     1      22.361   1.203  51.254  1.00  0.00     0.139 A 
HETATM   11  C19 UNL     1      22.543   0.431  52.399  1.00  0.00     0.022 A 
HETATM   12  C20 UNL     1      23.784   0.241  52.932  1.00  0.00     0.025 A 
ENDROOT
BRANCH  10  13
HETATM   13  N5  UNL     1      23.546   1.759  50.700  1.00  0.00    -0.340 N 
HETATM   14  H13 UNL     1      24.189   1.087  50.230  1.00  0.00     0.167 HD
BRANCH  13  15
HETATM   15  C13 UNL     1      23.803   3.152  50.802  1.00  0.00     0.035 A 
HETATM   16  C14 UNL     1      23.138   3.891  51.766  1.00  0.00     0.029 A 
HETATM   17  C15 UNL     1      23.356   5.252  51.893  1.00  0.00     0.004 A 
HETATM   18  C16 UNL     1      24.251   5.845  51.034  1.00  0.00     0.019 A 
HETATM   19  C17 UNL     1      24.930   5.107  50.055  1.00  0.00     0.013 A 
HETATM   20 BR1  UNL     1      26.171   6.013  48.891  1.00  0.00    -0.051 Br
HETATM   21  C18 UNL     1      24.716   3.749  49.925  1.00  0.00     0.048 A 
ENDBRANCH  13  15
ENDBRANCH  10  13
BRANCH   1  22
HETATM   22  C4  UNL     1      25.358  -0.698  54.560  1.00  0.00     0.311 C 
BRANCH  22  23
HETATM   23  N1  UNL     1      26.340  -0.141  53.700  1.00  0.00     0.097 N 
HETATM   24  C1  UNL     1      26.573   1.232  54.064  1.00  0.00     0.310 C 
BRANCH  23  25
HETATM   25  C2  UNL     1      27.582  -0.836  53.585  1.00  0.00     0.374 C 
BRANCH  25  26
HETATM   26  C3  UNL     1      27.348  -2.073  52.752  1.00  0.00     0.243 C 
HETATM   27  N2  UNL     1      28.271  -3.100  53.087  1.00  0.00    -0.369 N 
HETATM   28  H6  UNL     1      28.957  -3.855  53.305  1.00  0.00     0.159 HD
HETATM   29  H7  UNL     1      28.879  -3.522  52.332  1.00  0.00     0.159 HD
HETATM   30  O1  UNL     1      26.488  -2.282  51.858  1.00  0.00    -0.272 OA
ENDBRANCH  25  26
ENDBRANCH  23  25
ENDBRANCH  22  23
ENDBRANCH   1  22
TORSDOF 6
ENDMDL
MODEL 6
REMARK VINA RESULT:      -8.4      1.179      1.518
REMARK  6 active torsions:
REMARK  status: ('A' for Active; 'I' for Inactive)
REMARK    1  A    between atoms: N1_2  and  C2_3 
REMARK    2  A    between atoms: N1_2  and  C4_7 
REMARK    3  A    between atoms: C2_3  and  C3_4 
REMARK       I    between atoms: C3_4  and  N2_5 
REMARK    4  A    between atoms: C4_7  and  C5_8 
REMARK    5  A    between atoms: C12_17  and  N5_18 
REMARK    6  A    between atoms: N5_18  and  C13_19 
ROOT
HETATM    1  C5  UNL     1      22.601   1.293  51.492  1.00  0.00    -0.029 A 
HETATM    2  C6  UNL     1      22.829   0.516  52.611  1.00  0.00     0.010 A 
HETATM    3  C7  UNL     1      24.109   0.480  53.134  1.00  0.00     0.014 A 
HETATM    4  C8  UNL     1      25.143   1.217  52.538  1.00  0.00     0.000 A 
HETATM    5  C9  UNL     1      26.414   1.165  53.092  1.00  0.00     0.073 A 
HETATM    6  C10 UNL     1      26.734   0.377  54.258  1.00  0.00     0.102 C 
HETATM    7  N3  UNL     1      26.976  -0.262  55.182  1.00  0.00    -0.191 NA
HETATM    8  C11 UNL     1      27.370   1.924  52.453  1.00  0.00     0.142 A 
HETATM    9  N4  UNL     1      27.128   2.669  51.371  1.00  0.00    -0.241 NA
HETATM   10  C12 UNL     1      25.898   2.737  50.809  1.00  0.00     0.139 A 
HETATM   11  C19 UNL     1      24.880   1.995  51.403  1.00  0.00     0.022 A 
HETATM   12  C20 UNL     1      23.610   2.015  50.905  1.00  0.00     0.025 A 
ENDROOT
BRANCH  10  13
HETATM   13  N5  UNL     1      25.513   3.501  49.674  1.00  0.00    -0.340 N 
HETATM   14  H13 UNL     1      24.906   3.014  48.981  1.00  0.00     0.167 HD
BRANCH  13  15
HETATM   15  C13 UNL     1      25.951   4.844  49.530  1.00  0.00     0.035 A 
HETATM   16  C14 UNL     1      25.247   5.855  50.163  1.00  0.00     0.029 A 
HETATM   17  C15 UNL     1      25.637   7.176  50.041  1.00  0.00     0.004 A 
HETATM   18  C16 UNL     1      26.743   7.454  49.273  1.00  0.00     0.019 A 
HETATM   19  C17 UNL     1      27.464   6.440  48.628  1.00  0.00     0.013 A 
HETATM   20 BR1  UNL     1      29.005   6.913  47.571  1.00  0.00    -0.051 Br
HETATM   21  C18 UNL     1      27.078   5.120  48.746  1.00  0.00     0.048 A 
ENDBRANCH  13  15
ENDBRANCH  10  13
BRANCH   1  22
HETATM   22  C4  UNL     1      21.241   1.385  50.896  1.00  0.00     0.311 C 
BRANCH  22  23
HETATM   23  N1  UNL     1      20.221   1.612  51.856  1.00  0.00     0.097 N 
HETATM   24  C1  UNL     1      20.088   3.025  52.090  1.00  0.00     0.310 C 
BRANCH  23  25
HETATM   25  C2  UNL     1      18.941   1.033  51.602  1.00  0.00     0.374 C 
BRANCH  25  26
HETATM   26  C3  UNL     1      18.815  -0.209  52.452  1.00  0.00     0.243 C 
HETATM   27  N2  UNL     1      17.669  -0.966  52.087  1.00  0.00    -0.369 N 
HETATM   28  H6  UNL     1      16.819  -1.520  51.848  1.00  0.00     0.159 HD
HETATM   29  H7  UNL     1      16.945  -1.202  52.821  1.00  0.00     0.159 HD
HETATM   30  O1  UNL     1      19.558  -0.620  53.380  1.00  0.00    -0.272 OA
ENDBRANCH  25  26
ENDBRANCH  23  25
ENDBRANCH  22  23
ENDBRANCH   1  22
TORSDOF 6
ENDMDL
MODEL 7
REMARK VINA RESULT:      -8.4      3.437      6.543
REMARK  6 active torsions:
REMARK  status: ('A' for Active; 'I' for Inactive)
REMARK    1  A    between atoms: N1_2  and  C2_3 
REMARK    2  A    between atoms: N1_2  and  C4_7 
REMARK    3  A    between atoms: C2_3  and  C3_4 
REMARK       I    between atoms: C3_4  and  N2_5 
REMARK    4  A    between atoms: C4_7  and  C5_8 
REMARK    5  A    between atoms: C12_17  and  N5_18 
REMARK    6  A    between atoms: N5_18  and  C13_19 
ROOT
HETATM    1  C5  UNL     1      25.301   3.160  50.654  1.00  0.00    -0.029 A 
HETATM    2  C6  UNL     1      26.519   2.511  50.722  1.00  0.00     0.010 A 
HETATM    3  C7  UNL     1      26.617   1.382  51.514  1.00  0.00     0.014 A 
HETATM    4  C8  UNL     1      25.503   0.914  52.227  1.00  0.00     0.000 A 
HETATM    5  C9  UNL     1      25.633  -0.227  53.008  1.00  0.00     0.073 A 
HETATM    6  C10 UNL     1      26.870  -0.960  53.131  1.00  0.00     0.102 C 
HETATM    7  N3  UNL     1      27.864  -1.529  53.227  1.00  0.00    -0.191 NA
HETATM    8  C11 UNL     1      24.492  -0.626  53.668  1.00  0.00     0.142 A 
HETATM    9  N4  UNL     1      23.323   0.016  53.589  1.00  0.00    -0.241 NA
HETATM   10  C12 UNL     1      23.169   1.132  52.837  1.00  0.00     0.139 A 
HETATM   11  C19 UNL     1      24.282   1.594  52.140  1.00  0.00     0.022 A 
HETATM   12  C20 UNL     1      24.209   2.705  51.352  1.00  0.00     0.025 A 
ENDROOT
BRANCH  10  13
HETATM   13  N5  UNL     1      21.981   1.891  52.661  1.00  0.00    -0.340 N 
HETATM   14  H13 UNL     1      22.007   2.871  53.015  1.00  0.00     0.167 HD
BRANCH  13  15
HETATM   15  C13 UNL     1      20.844   1.313  52.034  1.00  0.00     0.035 A 
HETATM   16  C14 UNL     1      20.588   1.602  50.705  1.00  0.00     0.029 A 
HETATM   17  C15 UNL     1      19.488   1.065  50.060  1.00  0.00     0.004 A 
HETATM   18  C16 UNL     1      18.659   0.236  50.780  1.00  0.00     0.019 A 
HETATM   19  C17 UNL     1      18.909  -0.064  52.125  1.00  0.00     0.013 A 
HETATM   20 BR1  UNL     1      17.701  -1.236  53.064  1.00  0.00    -0.051 Br
HETATM   21  C18 UNL     1      20.006   0.470  52.773  1.00  0.00     0.048 A 
ENDBRANCH  13  15
ENDBRANCH  10  13
BRANCH   1  22
HETATM   22  C4  UNL     1      25.130   4.369  49.804  1.00  0.00     0.311 C 
BRANCH  22  23
HETATM   23  N1  UNL     1      24.407   5.407  50.445  1.00  0.00     0.097 N 
HETATM   24  C1  UNL     1      25.205   6.605  50.468  1.00  0.00     0.310 C 
BRANCH  23  25
HETATM   25  C2  UNL     1      23.099   5.698  49.950  1.00  0.00     0.374 C 
BRANCH  25  26
HETATM   26  C3  UNL     1      22.174   5.840  51.134  1.00  0.00     0.243 C 
HETATM   27  N2  UNL     1      21.706   7.176  51.262  1.00  0.00    -0.369 N 
HETATM   28  H6  UNL     1      21.372   8.156  51.383  1.00  0.00     0.159 HD
HETATM   29  H7  UNL     1      21.857   7.697  52.170  1.00  0.00     0.159 HD
HETATM   30  O1  UNL     1      21.796   4.971  51.961  1.00  0.00    -0.272 OA
ENDBRANCH  25  26
ENDBRANCH  23  25
ENDBRANCH  22  23
ENDBRANCH   1  22
TORSDOF 6
ENDMDL
MODEL 8
REMARK VINA RESULT:      -8.3      2.376      2.905
REMARK  6 active torsions:
REMARK  status: ('A' for Active; 'I' for Inactive)
REMARK    1  A    between atoms: N1_2  and  C2_3 
REMARK    2  A    between atoms: N1_2  and  C4_7 
REMARK    3  A    between atoms: C2_3  and  C3_4 
REMARK       I    between atoms: C3_4  and  N2_5 
REMARK    4  A    between atoms: C4_7  and  C5_8 
REMARK    5  A    between atoms: C12_17  and  N5_18 
REMARK    6  A    between atoms: N5_18  and  C13_19 
ROOT
HETATM    1  C5  UNL     1      22.338   0.450  53.391  1.00  0.00    -0.029 A 
HETATM    2  C6  UNL     1      22.931  -0.780  53.601  1.00  0.00     0.010 A 
HETATM    3  C7  UNL     1      24.286  -0.905  53.351  1.00  0.00     0.014 A 
HETATM    4  C8  UNL     1      25.030   0.193  52.897  1.00  0.00     0.000 A 
HETATM    5  C9  UNL     1      26.390   0.036  52.663  1.00  0.00     0.073 A 
HETATM    6  C10 UNL     1      27.082  -1.215  52.856  1.00  0.00     0.102 C 
HETATM    7  N3  UNL     1      27.620  -2.220  53.007  1.00  0.00    -0.191 NA
HETATM    8  C11 UNL     1      27.050   1.163  52.227  1.00  0.00     0.142 A 
HETATM    9  N4  UNL     1      26.457   2.344  52.030  1.00  0.00    -0.241 NA
HETATM   10  C12 UNL     1      25.133   2.525  52.249  1.00  0.00     0.139 A 
HETATM   11  C19 UNL     1      24.400   1.427  52.692  1.00  0.00     0.022 A 
HETATM   12  C20 UNL     1      23.063   1.527  52.946  1.00  0.00     0.025 A 
ENDROOT
BRANCH  10  13
HETATM   13  N5  UNL     1      24.393   3.728  52.093  1.00  0.00    -0.340 N 
HETATM   14  H13 UNL     1      24.061   4.178  52.972  1.00  0.00     0.167 HD
BRANCH  13  15
HETATM   15  C13 UNL     1      24.141   4.254  50.797  1.00  0.00     0.035 A 
HETATM   16  C14 UNL     1      24.699   5.470  50.443  1.00  0.00     0.029 A 
HETATM   17  C15 UNL     1      24.472   6.020  49.194  1.00  0.00     0.004 A 
HETATM   18  C16 UNL     1      23.677   5.320  48.316  1.00  0.00     0.019 A 
HETATM   19  C17 UNL     1      23.107   4.088  48.664  1.00  0.00     0.013 A 
HETATM   20 BR1  UNL     1      22.005   3.169  47.376  1.00  0.00    -0.051 Br
HETATM   21  C18 UNL     1      23.331   3.536  49.909  1.00  0.00     0.048 A 
ENDBRANCH  13  15
ENDBRANCH  10  13
BRANCH   1  22
HETATM   22  C4  UNL     1      20.888   0.650  53.661  1.00  0.00     0.311 C 
BRANCH  22  23
HETATM   23  N1  UNL     1      20.056   0.236  52.589  1.00  0.00     0.097 N 
HETATM   24  C1  UNL     1      19.005  -0.606  53.096  1.00  0.00     0.310 C 
BRANCH  23  25
HETATM   25  C2  UNL     1      19.509   1.255  51.752  1.00  0.00     0.374 C 
BRANCH  25  26
HETATM   26  C3  UNL     1      20.010   1.022  50.347  1.00  0.00     0.243 C 
HETATM   27  N2  UNL     1      18.974   1.219  49.394  1.00  0.00    -0.369 N 
HETATM   28  H6  UNL     1      18.219   1.336  48.684  1.00  0.00     0.159 HD
HETATM   29  H7  UNL     1      18.733   0.441  48.718  1.00  0.00     0.159 HD
HETATM   30  O1  UNL     1      21.160   0.698  49.953  1.00  0.00    -0.272 OA
ENDBRANCH  25  26
ENDBRANCH  23  25
ENDBRANCH  22  23
ENDBRANCH   1  22
TORSDOF 6
ENDMDL
MODEL 9
REMARK VINA RESULT:      -8.2      2.517      5.424
REMARK  6 active torsions:
REMARK  status: ('A' for Active; 'I' for Inactive)
REMARK    1  A    between atoms: N1_2  and  C2_3 
REMARK    2  A    between atoms: N1_2  and  C4_7 
REMARK    3  A    between atoms: C2_3  and  C3_4 
REMARK       I    between atoms: C3_4  and  N2_5 
REMARK    4  A    between atoms: C4_7  and  C5_8 
REMARK    5  A    between atoms: C12_17  and  N5_18 
REMARK    6  A    between atoms: N5_18  and  C13_19 
ROOT
HETATM    1  C5  UNL     1      24.583   0.650  52.611  1.00  0.00    -0.029 A 
HETATM    2  C6  UNL     1      23.302   0.532  53.112  1.00  0.00     0.010 A 
HETATM    3  C7  UNL     1      22.347   1.441  52.692  1.00  0.00     0.014 A 
HETATM    4  C8  UNL     1      22.681   2.453  51.780  1.00  0.00     0.000 A 
HETATM    5  C9  UNL     1      21.698   3.345  51.372  1.00  0.00     0.073 A 
HETATM    6  C10 UNL     1      20.338   3.289  51.850  1.00  0.00     0.102 C 
HETATM    7  N3  UNL     1      19.259   3.238  52.245  1.00  0.00    -0.191 NA
HETATM    8  C11 UNL     1      22.105   4.302  50.469  1.00  0.00     0.142 A 
HETATM    9  N4  UNL     1      23.351   4.399  49.997  1.00  0.00    -0.241 NA
HETATM   10  C12 UNL     1      24.329   3.544  50.379  1.00  0.00     0.139 A 
HETATM   11  C19 UNL     1      23.990   2.548  51.291  1.00  0.00     0.022 A 
HETATM   12  C20 UNL     1      24.914   1.640  51.719  1.00  0.00     0.025 A 
ENDROOT
BRANCH  10  13
HETATM   13  N5  UNL     1      25.680   3.534  49.939  1.00  0.00    -0.340 N 
HETATM   14  H13 UNL     1      26.165   2.613  49.975  1.00  0.00     0.167 HD
BRANCH  13  15
HETATM   15  C13 UNL     1      26.298   4.730  49.486  1.00  0.00     0.035 A 
HETATM   16  C14 UNL     1      27.460   4.648  48.737  1.00  0.00     0.029 A 
HETATM   17  C15 UNL     1      28.095   5.789  48.283  1.00  0.00     0.004 A 
HETATM   18  C16 UNL     1      27.538   7.007  48.599  1.00  0.00     0.019 A 
HETATM   19  C17 UNL     1      26.362   7.103  49.355  1.00  0.00     0.013 A 
HETATM   20 BR1  UNL     1      25.644   8.847  49.752  1.00  0.00    -0.051 Br
HETATM   21  C18 UNL     1      25.725   5.966  49.810  1.00  0.00     0.048 A 
ENDBRANCH  13  15
ENDBRANCH  10  13
BRANCH   1  22
HETATM   22  C4  UNL     1      25.647  -0.309  53.012  1.00  0.00     0.311 C 
BRANCH  22  23
HETATM   23  N1  UNL     1      26.523   0.206  54.002  1.00  0.00     0.097 N 
HETATM   24  C1  UNL     1      26.010  -0.111  55.309  1.00  0.00     0.310 C 
BRANCH  23  25
HETATM   25  C2  UNL     1      27.901  -0.160  53.913  1.00  0.00     0.374 C 
BRANCH  25  26
HETATM   26  C3  UNL     1      28.717   1.110  53.862  1.00  0.00     0.243 C 
HETATM   27  N2  UNL     1      30.071   0.835  53.530  1.00  0.00    -0.369 N 
HETATM   28  H6  UNL     1      31.073   0.648  53.312  1.00  0.00     0.159 HD
HETATM   29  H7  UNL     1      30.842   1.160  54.177  1.00  0.00     0.159 HD
HETATM   30  O1  UNL     1      28.358   2.298  54.064  1.00  0.00    -0.272 OA
ENDBRANCH  25  26
ENDBRANCH  23  25
ENDBRANCH  22  23
ENDBRANCH   1  22
TORSDOF 6
ENDMDL
