MODEL 1
REMARK VINA RESULT:     -10.0      0.000      0.000
REMARK  4 active torsions:
REMARK  status: ('A' for Active; 'I' for Inactive)
REMARK    1  A    between atoms: C3_3  and  N1_4 
REMARK    2  A    between atoms: N1_4  and  C4_5 
REMARK    3  A    between atoms: C5_7  and  N3_8 
REMARK    4  A    between atoms: N5_10  and  C6_11 
ROOT
HETATM    1  N1  UNL     1      22.836   0.627  51.823  1.00  0.00    -0.345 N 
HETATM    2  H4  UNL     1      22.276   0.025  51.169  1.00  0.00     0.167 HD
ENDROOT
BRANCH   1   3
HETATM    3  C3  UNL     1      22.653   2.041  51.592  1.00  0.00     0.017 C 
HETATM    4  C2  UNL     1      21.605   2.602  52.165  1.00  0.00    -0.057 C 
HETATM    5  C1  UNL     1      20.641   1.886  53.001  1.00  0.00     0.046 C 
HETATM    6  C22 UNL     1      21.511   4.047  51.869  1.00  0.00     0.063 C 
HETATM    7  C21 UNL     1      22.693   4.598  51.232  1.00  0.00    -0.014 C 
HETATM    8  C14 UNL     1      23.754   4.078  50.680  1.00  0.00    -0.044 C 
HETATM    9  C13 UNL     1      23.704   2.611  50.732  1.00  0.00     0.096 C 
HETATM   10  C15 UNL     1      24.910   4.673  50.078  1.00  0.00    -0.012 A 
HETATM   11  C16 UNL     1      25.870   3.864  49.506  1.00  0.00     0.013 A 
HETATM   12  C20 UNL     1      25.250   5.997  49.981  1.00  0.00     0.021 A 
HETATM   13  C17 UNL     1      27.021   4.287  48.909  1.00  0.00     0.001 A 
HETATM   14  C18 UNL     1      27.295   5.629  48.846  1.00  0.00     0.001 A 
HETATM   15  C19 UNL     1      26.390   6.495  49.394  1.00  0.00     0.020 A 
HETATM   16 BR1  UNL     1      24.139   7.353  50.691  1.00  0.00    -0.050 Br
ENDBRANCH   1   3
BRANCH   1  17
HETATM   17  C4  UNL     1      23.686   0.108  52.838  1.00  0.00     0.143 A 
HETATM   18  N2  UNL     1      23.149  -0.470  53.834  1.00  0.00    -0.046 NA
HETATM   19  C5  UNL     1      23.965  -1.008  54.881  1.00  0.00     0.738 A 
HETATM   20  N4  UNL     1      25.268  -0.900  54.806  1.00  0.00     0.021 NA
HETATM   21  N5  UNL     1      25.902  -0.282  53.749  1.00  0.00    -0.247 N 
HETATM   22  C12 UNL     1      25.143   0.286  52.654  1.00  0.00     0.231 A 
BRANCH  19  23
HETATM   23  N3  UNL     1      23.509  -1.679  56.049  1.00  0.00    -0.230 N 
HETATM   24  H5  UNL     1      24.324  -1.939  56.624  1.00  0.00     0.174 HD
HETATM   25  H6  UNL     1      22.562  -1.922  56.377  1.00  0.00     0.174 HD
ENDBRANCH  19  23
BRANCH  21  26
HETATM   26  C6  UNL     1      27.321  -0.186  53.706  1.00  0.00     0.053 A 
HETATM   27  C7  UNL     1      28.090  -1.272  53.303  1.00  0.00     0.031 A 
HETATM   28  C8  UNL     1      29.473  -1.250  53.238  1.00  0.00     0.002 A 
HETATM   29  C9  UNL     1      30.108  -0.093  53.590  1.00  0.00     0.000 A 
HETATM   30  C10 UNL     1      29.377   1.027  54.001  1.00  0.00     0.002 A 
HETATM   31  C11 UNL     1      27.981   0.973  54.057  1.00  0.00     0.031 A 
ENDBRANCH  21  26
ENDBRANCH   1  17
TORSDOF 4
ENDMDL
MODEL 2
REMARK VINA RESULT:      -9.7      2.642      4.978
REMARK  4 active torsions:
REMARK  status: ('A' for Active; 'I' for Inactive)
REMARK    1  A    between atoms: C3_3  and  N1_4 
REMARK    2  A    between atoms: N1_4  and  C4_5 
REMARK    3  A    between atoms: C5_7  and  N3_8 
REMARK    4  A    between atoms: N5_10  and  C6_11 
ROOT
HETATM    1  N1  UNL     1      26.242   2.764  49.766  1.00  0.00    -0.345 N 
HETATM    2  H4  UNL     1      26.035   2.122  48.959  1.00  0.00     0.167 HD
ENDROOT
BRANCH   1   3
HETATM    3  C3  UNL     1      26.302   4.155  49.386  1.00  0.00     0.017 C 
HETATM    4  C2  UNL     1      25.245   4.892  49.673  1.00  0.00    -0.057 C 
HETATM    5  C1  UNL     1      24.044   4.385  50.339  1.00  0.00     0.046 C 
HETATM    6  C22 UNL     1      25.408   6.297  49.246  1.00  0.00     0.063 C 
HETATM    7  C21 UNL     1      26.758   6.637  48.835  1.00  0.00    -0.014 C 
HETATM    8  C14 UNL     1      27.828   5.942  48.568  1.00  0.00    -0.044 C 
HETATM    9  C13 UNL     1      27.572   4.505  48.728  1.00  0.00     0.096 C 
HETATM   10  C15 UNL     1      29.152   6.333  48.182  1.00  0.00    -0.012 A 
HETATM   11  C16 UNL     1      30.090   5.363  47.896  1.00  0.00     0.013 A 
HETATM   12  C20 UNL     1      29.679   7.592  48.051  1.00  0.00     0.021 A 
HETATM   13  C17 UNL     1      31.384   5.584  47.528  1.00  0.00     0.001 A 
HETATM   14  C18 UNL     1      31.844   6.871  47.416  1.00  0.00     0.001 A 
HETATM   15  C19 UNL     1      30.970   7.889  47.684  1.00  0.00     0.020 A 
HETATM   16 BR1  UNL     1      28.640   9.134  48.393  1.00  0.00    -0.050 Br
ENDBRANCH   1   3
BRANCH   1  17
HETATM   17  C4  UNL     1      26.441   2.312  51.099  1.00  0.00     0.143 A 
HETATM   18  N2  UNL     1      27.510   2.654  51.696  1.00  0.00    -0.046 NA
HETATM   19  C5  UNL     1      27.755   2.222  53.039  1.00  0.00     0.738 A 
HETATM   20  N4  UNL     1      26.872   1.473  53.650  1.00  0.00     0.021 NA
HETATM   21  N5  UNL     1      25.696   1.074  53.050  1.00  0.00    -0.247 N 
HETATM   22  C12 UNL     1      25.379   1.471  51.693  1.00  0.00     0.231 A 
BRANCH  19  23
HETATM   23  N3  UNL     1      28.899   2.524  53.830  1.00  0.00    -0.230 N 
HETATM   24  H5  UNL     1      28.736   3.412  54.327  1.00  0.00     0.174 HD
HETATM   25  H6  UNL     1      29.791   2.025  53.965  1.00  0.00     0.174 HD
ENDBRANCH  19  23
BRANCH  21  26
HETATM   26  C6  UNL     1      24.761   0.260  53.749  1.00  0.00     0.053 A 
HETATM   27  C7  UNL     1      23.417   0.263  53.391  1.00  0.00     0.031 A 
HETATM   28  C8  UNL     1      22.453  -0.502  54.026  1.00  0.00     0.002 A 
HETATM   29  C9  UNL     1      22.854  -1.301  55.059  1.00  0.00     0.000 A 
HETATM   30  C10 UNL     1      24.195  -1.339  55.455  1.00  0.00     0.002 A 
HETATM   31  C11 UNL     1      25.145  -0.554  54.794  1.00  0.00     0.031 A 
ENDBRANCH  21  26
ENDBRANCH   1  17
TORSDOF 4
ENDMDL
MODEL 3
REMARK VINA RESULT:      -9.6      3.173      6.803
REMARK  4 active torsions:
REMARK  status: ('A' for Active; 'I' for Inactive)
REMARK    1  A    between atoms: C3_3  and  N1_4 
REMARK    2  A    between atoms: N1_4  and  C4_5 
REMARK    3  A    between atoms: C5_7  and  N3_8 
REMARK    4  A    between atoms: N5_10  and  C6_11 
ROOT
HETATM    1  N1  UNL     1      23.007   3.959  52.331  1.00  0.00    -0.345 N 
HETATM    2  H4  UNL     1      22.530   4.397  53.158  1.00  0.00     0.167 HD
ENDROOT
BRANCH   1   3
HETATM    3  C3  UNL     1      23.393   2.587  52.556  1.00  0.00     0.017 C 
HETATM    4  C2  UNL     1      22.487   1.666  52.287  1.00  0.00    -0.057 C 
HETATM    5  C1  UNL     1      21.142   1.956  51.786  1.00  0.00     0.046 C 
HETATM    6  C22 UNL     1      22.981   0.299  52.550  1.00  0.00     0.063 C 
HETATM    7  C21 UNL     1      24.408   0.224  52.804  1.00  0.00    -0.014 C 
HETATM    8  C14 UNL     1      25.334   1.109  53.048  1.00  0.00    -0.044 C 
HETATM    9  C13 UNL     1      24.772   2.465  53.062  1.00  0.00     0.096 C 
HETATM   10  C15 UNL     1      26.744   0.981  53.274  1.00  0.00    -0.012 A 
HETATM   11  C16 UNL     1      27.486   2.104  53.576  1.00  0.00     0.013 A 
HETATM   12  C20 UNL     1      27.530  -0.140  53.226  1.00  0.00     0.021 A 
HETATM   13  C17 UNL     1      28.830   2.137  53.806  1.00  0.00     0.001 A 
HETATM   14  C18 UNL     1      29.555   0.974  53.742  1.00  0.00     0.001 A 
HETATM   15  C19 UNL     1      28.887  -0.182  53.446  1.00  0.00     0.020 A 
HETATM   16 BR1  UNL     1      26.802  -1.837  52.817  1.00  0.00    -0.050 Br
ENDBRANCH   1   3
BRANCH   1  17
HETATM   17  C4  UNL     1      23.249   4.644  51.109  1.00  0.00     0.143 A 
HETATM   18  N2  UNL     1      22.248   5.057  50.443  1.00  0.00    -0.046 NA
HETATM   19  C5  UNL     1      22.443   5.752  49.206  1.00  0.00     0.738 A 
HETATM   20  N4  UNL     1      23.658   5.959  48.764  1.00  0.00     0.021 NA
HETATM   21  N5  UNL     1      24.779   5.533  49.446  1.00  0.00    -0.247 N 
HETATM   22  C12 UNL     1      24.661   4.824  50.703  1.00  0.00     0.231 A 
BRANCH  19  23
HETATM   23  N3  UNL     1      21.426   6.270  48.357  1.00  0.00    -0.230 N 
HETATM   24  H5  UNL     1      20.875   6.966  48.883  1.00  0.00     0.174 HD
HETATM   25  H6  UNL     1      21.180   6.067  47.377  1.00  0.00     0.174 HD
ENDBRANCH  19  23
BRANCH  21  26
HETATM   26  C6  UNL     1      26.082   5.779  48.931  1.00  0.00     0.053 A 
HETATM   27  C7  UNL     1      26.408   7.022  48.398  1.00  0.00     0.031 A 
HETATM   28  C8  UNL     1      27.654   7.331  47.880  1.00  0.00     0.002 A 
HETATM   29  C9  UNL     1      28.610   6.355  47.899  1.00  0.00     0.000 A 
HETATM   30  C10 UNL     1      28.331   5.090  48.425  1.00  0.00     0.002 A 
HETATM   31  C11 UNL     1      27.062   4.808  48.940  1.00  0.00     0.031 A 
ENDBRANCH  21  26
ENDBRANCH   1  17
TORSDOF 4
ENDMDL
MODEL 4
REMARK VINA RESULT:      -9.6      3.541      7.054
REMARK  4 active torsions:
REMARK  status: ('A' for Active; 'I' for Inactive)
REMARK    1  A    between atoms: C3_3  and  N1_4 
REMARK    2  A    between atoms: N1_4  and  C4_5 
REMARK    3  A    between atoms: C5_7  and  N3_8 
REMARK    4  A    between atoms: N5_10  and  C6_11 
ROOT
HETATM    1  N1  UNL     1      23.923   3.370  49.817  1.00  0.00    -0.345 N 
HETATM    2  H4  UNL     1      23.488   2.954  48.955  1.00  0.00     0.167 HD
ENDROOT
BRANCH   1   3
HETATM    3  C3  UNL     1      23.812   2.520  50.978  1.00  0.00     0.017 C 
HETATM    4  C2  UNL     1      22.668   1.881  51.135  1.00  0.00    -0.057 C 
HETATM    5  C1  UNL     1      21.532   1.988  50.218  1.00  0.00     0.046 C 
HETATM    6  C22 UNL     1      22.657   1.040  52.350  1.00  0.00     0.063 C 
HETATM    7  C21 UNL     1      23.958   0.889  52.976  1.00  0.00    -0.014 C 
HETATM    8  C14 UNL     1      25.110   1.481  52.830  1.00  0.00    -0.044 C 
HETATM    9  C13 UNL     1      25.035   2.523  51.799  1.00  0.00     0.096 C 
HETATM   10  C15 UNL     1      26.378   1.277  53.465  1.00  0.00    -0.012 A 
HETATM   11  C16 UNL     1      27.435   2.109  53.154  1.00  0.00     0.013 A 
HETATM   12  C20 UNL     1      26.744   0.326  54.382  1.00  0.00     0.021 A 
HETATM   13  C17 UNL     1      28.695   2.029  53.669  1.00  0.00     0.001 A 
HETATM   14  C18 UNL     1      28.990   1.051  54.584  1.00  0.00     0.001 A 
HETATM   15  C19 UNL     1      27.992   0.187  54.943  1.00  0.00     0.020 A 
HETATM   16 BR1  UNL     1      25.516  -0.974  54.996  1.00  0.00    -0.050 Br
ENDBRANCH   1   3
BRANCH   1  17
HETATM   17  C4  UNL     1      24.562   4.640  49.841  1.00  0.00     0.143 A 
HETATM   18  N2  UNL     1      24.032   5.565  50.534  1.00  0.00    -0.046 NA
HETATM   19  C5  UNL     1      24.639   6.861  50.588  1.00  0.00     0.738 A 
HETATM   20  N4  UNL     1      25.742   7.088  49.919  1.00  0.00     0.021 NA
HETATM   21  N5  UNL     1      26.358   6.121  49.152  1.00  0.00    -0.247 N 
HETATM   22  C12 UNL     1      25.803   4.787  49.049  1.00  0.00     0.231 A 
BRANCH  19  23
HETATM   23  N3  UNL     1      24.165   7.987  51.316  1.00  0.00    -0.230 N 
HETATM   24  H5  UNL     1      24.730   8.812  51.060  1.00  0.00     0.174 HD
HETATM   25  H6  UNL     1      23.404   8.090  52.004  1.00  0.00     0.174 HD
ENDBRANCH  19  23
BRANCH  21  26
HETATM   26  C6  UNL     1      27.556   6.409  48.441  1.00  0.00     0.053 A 
HETATM   27  C7  UNL     1      27.669   7.574  47.691  1.00  0.00     0.031 A 
HETATM   28  C8  UNL     1      28.803   7.918  46.974  1.00  0.00     0.002 A 
HETATM   29  C9  UNL     1      29.865   7.059  47.014  1.00  0.00     0.000 A 
HETATM   30  C10 UNL     1      29.799   5.874  47.755  1.00  0.00     0.002 A 
HETATM   31  C11 UNL     1      28.639   5.555  48.468  1.00  0.00     0.031 A 
ENDBRANCH  21  26
ENDBRANCH   1  17
TORSDOF 4
ENDMDL
MODEL 5
REMARK VINA RESULT:      -9.3      1.949      5.180
REMARK  4 active torsions:
REMARK  status: ('A' for Active; 'I' for Inactive)
REMARK    1  A    between atoms: C3_3  and  N1_4 
REMARK    2  A    between atoms: N1_4  and  C4_5 
REMARK    3  A    between atoms: C5_7  and  N3_8 
REMARK    4  A    between atoms: N5_10  and  C6_11 
ROOT
HETATM    1  N1  UNL     1      26.770   2.794  50.487  1.00  0.00    -0.345 N 
HETATM    2  H4  UNL     1      27.480   2.588  49.740  1.00  0.00     0.167 HD
ENDROOT
BRANCH   1   3
HETATM    3  C3  UNL     1      25.841   3.836  50.119  1.00  0.00     0.017 C 
HETATM    4  C2  UNL     1      26.276   4.738  49.260  1.00  0.00    -0.057 C 
HETATM    5  C1  UNL     1      27.619   4.740  48.676  1.00  0.00     0.046 C 
HETATM    6  C22 UNL     1      25.252   5.757  48.949  1.00  0.00     0.063 C 
HETATM    7  C21 UNL     1      23.926   5.430  49.440  1.00  0.00    -0.014 C 
HETATM    8  C14 UNL     1      23.458   4.536  50.265  1.00  0.00    -0.044 C 
HETATM    9  C13 UNL     1      24.539   3.694  50.792  1.00  0.00     0.096 C 
HETATM   10  C15 UNL     1      22.125   4.242  50.704  1.00  0.00    -0.012 A 
HETATM   11  C16 UNL     1      21.924   3.259  51.651  1.00  0.00     0.013 A 
HETATM   12  C20 UNL     1      20.940   4.803  50.306  1.00  0.00     0.021 A 
HETATM   13  C17 UNL     1      20.718   2.867  52.153  1.00  0.00     0.001 A 
HETATM   14  C18 UNL     1      19.571   3.474  51.709  1.00  0.00     0.001 A 
HETATM   15  C19 UNL     1      19.691   4.459  50.768  1.00  0.00     0.020 A 
HETATM   16 BR1  UNL     1      20.887   6.171  49.001  1.00  0.00    -0.050 Br
ENDBRANCH   1   3
BRANCH   1  17
HETATM   17  C4  UNL     1      26.723   2.117  51.736  1.00  0.00     0.143 A 
HETATM   18  N2  UNL     1      27.745   2.176  52.490  1.00  0.00    -0.046 NA
HETATM   19  C5  UNL     1      27.745   1.508  53.757  1.00  0.00     0.738 A 
HETATM   20  N4  UNL     1      26.686   0.837  54.135  1.00  0.00     0.021 NA
HETATM   21  N5  UNL     1      25.551   0.740  53.357  1.00  0.00    -0.247 N 
HETATM   22  C12 UNL     1      25.478   1.388  52.063  1.00  0.00     0.231 A 
BRANCH  19  23
HETATM   23  N3  UNL     1      28.808   1.486  54.702  1.00  0.00    -0.230 N 
HETATM   24  H5  UNL     1      29.671   1.813  54.241  1.00  0.00     0.174 HD
HETATM   25  H6  UNL     1      28.838   1.213  55.695  1.00  0.00     0.174 HD
ENDBRANCH  19  23
BRANCH  21  26
HETATM   26  C6  UNL     1      24.421   0.001  53.805  1.00  0.00     0.053 A 
HETATM   27  C7  UNL     1      23.219   0.058  53.108  1.00  0.00     0.031 A 
HETATM   28  C8  UNL     1      22.080  -0.633  53.485  1.00  0.00     0.002 A 
HETATM   29  C9  UNL     1      22.152  -1.413  54.605  1.00  0.00     0.000 A 
HETATM   30  C10 UNL     1      23.339  -1.503  55.339  1.00  0.00     0.002 A 
HETATM   31  C11 UNL     1      24.472  -0.792  54.932  1.00  0.00     0.031 A 
ENDBRANCH  21  26
ENDBRANCH   1  17
TORSDOF 4
ENDMDL
MODEL 6
REMARK VINA RESULT:      -9.2      3.866      7.663
REMARK  4 active torsions:
REMARK  status: ('A' for Active; 'I' for Inactive)
REMARK    1  A    between atoms: C3_3  and  N1_4 
REMARK    2  A    between atoms: N1_4  and  C4_5 
REMARK    3  A    between atoms: C5_7  and  N3_8 
REMARK    4  A    between atoms: N5_10  and  C6_11 
ROOT
HETATM    1  N1  UNL     1      22.956   4.103  52.411  1.00  0.00    -0.345 N 
HETATM    2  H4  UNL     1      22.261   4.448  53.120  1.00  0.00     0.167 HD
ENDROOT
BRANCH   1   3
HETATM    3  C3  UNL     1      23.340   2.726  52.613  1.00  0.00     0.017 C 
HETATM    4  C2  UNL     1      22.424   1.813  52.349  1.00  0.00    -0.057 C 
HETATM    5  C1  UNL     1      21.073   2.114  51.874  1.00  0.00     0.046 C 
HETATM    6  C22 UNL     1      22.917   0.440  52.586  1.00  0.00     0.063 C 
HETATM    7  C21 UNL     1      24.348   0.357  52.815  1.00  0.00    -0.014 C 
HETATM    8  C14 UNL     1      25.282   1.234  53.054  1.00  0.00    -0.044 C 
HETATM    9  C13 UNL     1      24.726   2.592  53.093  1.00  0.00     0.096 C 
HETATM   10  C15 UNL     1      26.695   1.098  53.254  1.00  0.00    -0.012 A 
HETATM   11  C16 UNL     1      27.447   2.214  53.557  1.00  0.00     0.013 A 
HETATM   12  C20 UNL     1      27.475  -0.026  53.178  1.00  0.00     0.021 A 
HETATM   13  C17 UNL     1      28.795   2.238  53.763  1.00  0.00     0.001 A 
HETATM   14  C18 UNL     1      29.513   1.073  53.673  1.00  0.00     0.001 A 
HETATM   15  C19 UNL     1      28.835  -0.076  53.375  1.00  0.00     0.020 A 
HETATM   16 BR1  UNL     1      26.732  -1.714  52.762  1.00  0.00    -0.050 Br
ENDBRANCH   1   3
BRANCH   1  17
HETATM   17  C4  UNL     1      23.467   4.906  51.355  1.00  0.00     0.143 A 
HETATM   18  N2  UNL     1      24.423   5.703  51.615  1.00  0.00    -0.046 NA
HETATM   19  C5  UNL     1      24.970   6.532  50.584  1.00  0.00     0.738 A 
HETATM   20  N4  UNL     1      24.481   6.465  49.371  1.00  0.00     0.021 NA
HETATM   21  N5  UNL     1      23.446   5.618  49.034  1.00  0.00    -0.247 N 
HETATM   22  C12 UNL     1      22.841   4.750  50.024  1.00  0.00     0.231 A 
BRANCH  19  23
HETATM   23  N3  UNL     1      26.034   7.466  50.725  1.00  0.00    -0.230 N 
HETATM   24  H5  UNL     1      25.985   8.146  49.950  1.00  0.00     0.174 HD
HETATM   25  H6  UNL     1      26.782   7.555  51.428  1.00  0.00     0.174 HD
ENDBRANCH  19  23
BRANCH  21  26
HETATM   26  C6  UNL     1      22.943   5.575  47.704  1.00  0.00     0.053 A 
HETATM   27  C7  UNL     1      23.048   6.686  46.873  1.00  0.00     0.031 A 
HETATM   28  C8  UNL     1      22.581   6.716  45.570  1.00  0.00     0.002 A 
HETATM   29  C9  UNL     1      21.988   5.586  45.081  1.00  0.00     0.000 A 
HETATM   30  C10 UNL     1      21.860   4.443  45.878  1.00  0.00     0.002 A 
HETATM   31  C11 UNL     1      22.341   4.445  47.191  1.00  0.00     0.031 A 
ENDBRANCH  21  26
ENDBRANCH   1  17
TORSDOF 4
ENDMDL
MODEL 7
REMARK VINA RESULT:      -8.9      3.709      7.580
REMARK  4 active torsions:
REMARK  status: ('A' for Active; 'I' for Inactive)
REMARK    1  A    between atoms: C3_3  and  N1_4 
REMARK    2  A    between atoms: N1_4  and  C4_5 
REMARK    3  A    between atoms: C5_7  and  N3_8 
REMARK    4  A    between atoms: N5_10  and  C6_11 
ROOT
HETATM    1  N1  UNL     1      25.147   3.240  49.538  1.00  0.00    -0.345 N 
HETATM    2  H4  UNL     1      25.681   2.607  48.891  1.00  0.00     0.167 HD
ENDROOT
BRANCH   1   3
HETATM    3  C3  UNL     1      24.103   2.560  50.267  1.00  0.00     0.017 C 
HETATM    4  C2  UNL     1      22.922   2.493  49.682  1.00  0.00    -0.057 C 
HETATM    5  C1  UNL     1      22.621   3.059  48.366  1.00  0.00     0.046 C 
HETATM    6  C22 UNL     1      21.927   1.779  50.508  1.00  0.00     0.063 C 
HETATM    7  C21 UNL     1      22.494   1.092  51.655  1.00  0.00    -0.014 C 
HETATM    8  C14 UNL     1      23.657   1.114  52.243  1.00  0.00    -0.044 C 
HETATM    9  C13 UNL     1      24.565   2.052  51.571  1.00  0.00     0.096 C 
HETATM   10  C15 UNL     1      24.174   0.395  53.369  1.00  0.00    -0.012 A 
HETATM   11  C16 UNL     1      25.448   0.670  53.823  1.00  0.00     0.013 A 
HETATM   12  C20 UNL     1      23.581  -0.592  54.112  1.00  0.00     0.021 A 
HETATM   13  C17 UNL     1      26.073   0.062  54.872  1.00  0.00     0.001 A 
HETATM   14  C18 UNL     1      25.417  -0.919  55.572  1.00  0.00     0.001 A 
HETATM   15  C19 UNL     1      24.149  -1.247  55.180  1.00  0.00     0.020 A 
HETATM   16 BR1  UNL     1      21.834  -1.203  53.723  1.00  0.00    -0.050 Br
ENDBRANCH   1   3
BRANCH   1  17
HETATM   17  C4  UNL     1      25.423   4.627  49.686  1.00  0.00     0.143 A 
HETATM   18  N2  UNL     1      24.701   5.301  50.485  1.00  0.00    -0.046 NA
HETATM   19  C5  UNL     1      24.940   6.701  50.667  1.00  0.00     0.738 A 
HETATM   20  N4  UNL     1      25.909   7.283  50.004  1.00  0.00     0.021 NA
HETATM   21  N5  UNL     1      26.723   6.600  49.125  1.00  0.00    -0.247 N 
HETATM   22  C12 UNL     1      26.540   5.182  48.890  1.00  0.00     0.231 A 
BRANCH  19  23
HETATM   23  N3  UNL     1      24.218   7.580  51.521  1.00  0.00    -0.230 N 
HETATM   24  H5  UNL     1      23.311   7.148  51.754  1.00  0.00     0.174 HD
HETATM   25  H6  UNL     1      24.451   8.506  51.908  1.00  0.00     0.174 HD
ENDBRANCH  19  23
BRANCH  21  26
HETATM   26  C6  UNL     1      27.764   7.270  48.426  1.00  0.00     0.053 A 
HETATM   27  C7  UNL     1      28.825   6.552  47.883  1.00  0.00     0.031 A 
HETATM   28  C8  UNL     1      29.872   7.137  47.192  1.00  0.00     0.002 A 
HETATM   29  C9  UNL     1      29.853   8.494  47.037  1.00  0.00     0.000 A 
HETATM   30  C10 UNL     1      28.807   9.259  47.564  1.00  0.00     0.002 A 
HETATM   31  C11 UNL     1      27.764   8.639  48.259  1.00  0.00     0.031 A 
ENDBRANCH  21  26
ENDBRANCH   1  17
TORSDOF 4
ENDMDL
MODEL 8
REMARK VINA RESULT:      -8.8      3.710      7.848
REMARK  4 active torsions:
REMARK  status: ('A' for Active; 'I' for Inactive)
REMARK    1  A    between atoms: C3_3  and  N1_4 
REMARK    2  A    between atoms: N1_4  and  C4_5 
REMARK    3  A    between atoms: C5_7  and  N3_8 
REMARK    4  A    between atoms: N5_10  and  C6_11 
ROOT
HETATM    1  N1  UNL     1      22.811   3.626  50.202  1.00  0.00    -0.345 N 
HETATM    2  H4  UNL     1      22.964   4.664  50.158  1.00  0.00     0.167 HD
ENDROOT
BRANCH   1   3
HETATM    3  C3  UNL     1      23.960   2.900  50.686  1.00  0.00     0.017 C 
HETATM    4  C2  UNL     1      25.141   3.321  50.274  1.00  0.00    -0.057 C 
HETATM    5  C1  UNL     1      25.342   4.457  49.373  1.00  0.00     0.046 C 
HETATM    6  C22 UNL     1      26.249   2.514  50.827  1.00  0.00     0.063 C 
HETATM    7  C21 UNL     1      25.846   1.602  51.882  1.00  0.00    -0.014 C 
HETATM    8  C14 UNL     1      24.696   1.183  52.331  1.00  0.00    -0.044 C 
HETATM    9  C13 UNL     1      23.590   1.787  51.578  1.00  0.00     0.096 C 
HETATM   10  C15 UNL     1      24.352   0.289  53.397  1.00  0.00    -0.012 A 
HETATM   11  C16 UNL     1      23.027  -0.030  53.614  1.00  0.00     0.013 A 
HETATM   12  C20 UNL     1      25.171  -0.332  54.303  1.00  0.00     0.021 A 
HETATM   13  C17 UNL     1      22.553  -0.854  54.592  1.00  0.00     0.001 A 
HETATM   14  C18 UNL     1      23.432  -1.444  55.464  1.00  0.00     0.001 A 
HETATM   15  C19 UNL     1      24.764  -1.174  55.311  1.00  0.00     0.020 A 
HETATM   16 BR1  UNL     1      27.045  -0.078  54.274  1.00  0.00    -0.050 Br
ENDBRANCH   1   3
BRANCH   1  17
HETATM   17  C4  UNL     1      21.594   2.994  49.825  1.00  0.00     0.143 A 
HETATM   18  N2  UNL     1      21.112   3.254  48.678  1.00  0.00    -0.046 NA
HETATM   19  C5  UNL     1      19.888   2.642  48.255  1.00  0.00     0.738 A 
HETATM   20  N4  UNL     1      19.268   1.813  49.058  1.00  0.00     0.021 NA
HETATM   21  N5  UNL     1      19.746   1.496  50.312  1.00  0.00    -0.247 N 
HETATM   22  C12 UNL     1      20.977   2.076  50.808  1.00  0.00     0.231 A 
BRANCH  19  23
HETATM   23  N3  UNL     1      19.233   2.835  47.008  1.00  0.00    -0.230 N 
HETATM   24  H5  UNL     1      18.658   3.689  47.062  1.00  0.00     0.174 HD
HETATM   25  H6  UNL     1      19.247   2.290  46.133  1.00  0.00     0.174 HD
ENDBRANCH  19  23
BRANCH  21  26
HETATM   26  C6  UNL     1      19.041   0.590  51.153  1.00  0.00     0.053 A 
HETATM   27  C7  UNL     1      19.629   0.105  52.316  1.00  0.00     0.031 A 
HETATM   28  C8  UNL     1      19.004  -0.779  53.180  1.00  0.00     0.002 A 
HETATM   29  C9  UNL     1      17.739  -1.189  52.864  1.00  0.00     0.000 A 
HETATM   30  C10 UNL     1      17.106  -0.728  51.705  1.00  0.00     0.002 A 
HETATM   31  C11 UNL     1      17.765   0.163  50.852  1.00  0.00     0.031 A 
ENDBRANCH  21  26
ENDBRANCH   1  17
TORSDOF 4
ENDMDL
MODEL 9
REMARK VINA RESULT:      -8.8      2.111      3.421
REMARK  4 active torsions:
REMARK  status: ('A' for Active; 'I' for Inactive)
REMARK    1  A    between atoms: C3_3  and  N1_4 
REMARK    2  A    between atoms: N1_4  and  C4_5 
REMARK    3  A    between atoms: C5_7  and  N3_8 
REMARK    4  A    between atoms: N5_10  and  C6_11 
ROOT
HETATM    1  N1  UNL     1      24.169   4.811  51.903  1.00  0.00    -0.345 N 
HETATM    2  H4  UNL     1      24.228   5.421  52.757  1.00  0.00     0.167 HD
ENDROOT
BRANCH   1   3
HETATM    3  C3  UNL     1      24.103   5.560  50.671  1.00  0.00     0.017 C 
HETATM    4  C2  UNL     1      22.955   6.154  50.402  1.00  0.00    -0.057 C 
HETATM    5  C1  UNL     1      21.774   6.093  51.265  1.00  0.00     0.046 C 
HETATM    6  C22 UNL     1      22.992   6.893  49.124  1.00  0.00     0.063 C 
HETATM    7  C21 UNL     1      24.321   7.026  48.556  1.00  0.00    -0.014 C 
HETATM    8  C14 UNL     1      25.476   6.478  48.810  1.00  0.00    -0.044 C 
HETATM    9  C13 UNL     1      25.369   5.521  49.919  1.00  0.00     0.096 C 
HETATM   10  C15 UNL     1      26.773   6.662  48.227  1.00  0.00    -0.012 A 
HETATM   11  C16 UNL     1      27.828   5.886  48.660  1.00  0.00     0.013 A 
HETATM   12  C20 UNL     1      27.167   7.544  47.255  1.00  0.00     0.021 A 
HETATM   13  C17 UNL     1      29.112   5.956  48.207  1.00  0.00     0.001 A 
HETATM   14  C18 UNL     1      29.435   6.863  47.230  1.00  0.00     0.001 A 
HETATM   15  C19 UNL     1      28.440   7.669  46.750  1.00  0.00     0.020 A 
HETATM   16 BR1  UNL     1      25.946   8.757  46.472  1.00  0.00    -0.050 Br
ENDBRANCH   1   3
BRANCH   1  17
HETATM   17  C4  UNL     1      24.159   3.390  51.951  1.00  0.00     0.143 A 
HETATM   18  N2  UNL     1      23.073   2.788  51.681  1.00  0.00    -0.046 NA
HETATM   19  C5  UNL     1      23.014   1.357  51.717  1.00  0.00     0.738 A 
HETATM   20  N4  UNL     1      24.086   0.673  52.029  1.00  0.00     0.021 NA
HETATM   21  N5  UNL     1      25.290   1.275  52.330  1.00  0.00    -0.247 N 
HETATM   22  C12 UNL     1      25.426   2.717  52.315  1.00  0.00     0.231 A 
BRANCH  19  23
HETATM   23  N3  UNL     1      21.876   0.550  51.441  1.00  0.00    -0.230 N 
HETATM   24  H5  UNL     1      22.195  -0.372  51.105  1.00  0.00     0.174 HD
HETATM   25  H6  UNL     1      20.866   0.737  51.521  1.00  0.00     0.174 HD
ENDBRANCH  19  23
BRANCH  21  26
HETATM   26  C6  UNL     1      26.432   0.495  52.663  1.00  0.00     0.053 A 
HETATM   27  C7  UNL     1      26.417  -0.886  52.495  1.00  0.00     0.031 A 
HETATM   28  C8  UNL     1      27.490  -1.706  52.799  1.00  0.00     0.002 A 
HETATM   29  C9  UNL     1      28.622  -1.118  53.290  1.00  0.00     0.000 A 
HETATM   30  C10 UNL     1      28.685   0.266  53.476  1.00  0.00     0.002 A 
HETATM   31  C11 UNL     1      27.584   1.068  53.160  1.00  0.00     0.031 A 
ENDBRANCH  21  26
ENDBRANCH   1  17
TORSDOF 4
ENDMDL
