MODEL 1
REMARK VINA RESULT:      -7.8      0.000      0.000
REMARK  4 active torsions:
REMARK  status: ('A' for Active; 'I' for Inactive)
REMARK    1  A    between atoms: C7_9  and  N2_10 
REMARK    2  A    between atoms: N2_10  and  C8_11 
REMARK    3  A    between atoms: C8_11  and  C9_12 
REMARK    4  A    between atoms: C10_13  and  C11_14 
ROOT
HETATM    1  O1  UNL     1      26.237  -1.319  53.901  1.00  0.00    -0.274 OA
HETATM    2  C1  UNL     1      25.271  -1.004  54.624  1.00  0.00     0.217 C 
HETATM    3  C2  UNL     1      23.946  -0.854  55.352  1.00  0.00     0.103 C 
HETATM    4  C3  UNL     1      22.923  -1.311  54.332  1.00  0.00     0.011 C 
HETATM    5  C4  UNL     1      21.518  -0.965  54.787  1.00  0.00     0.020 C 
HETATM    6  C5  UNL     1      20.640  -1.280  53.568  1.00  0.00     0.119 C 
HETATM    7  N1  UNL     1      19.318  -0.778  53.748  1.00  0.00    -0.396 N 
HETATM    8  C6  UNL     1      18.166  -0.656  52.939  1.00  0.00     0.133 C 
HETATM    9  C7  UNL     1      18.455   0.434  52.195  1.00  0.00     0.140 C 
HETATM   10  N3  UNL     1      19.163   1.544  51.687  1.00  0.00    -0.223 NA
HETATM   11  C12 UNL     1      20.385   1.811  51.941  1.00  0.00     0.234 C 
HETATM   12  N4  UNL     1      21.682   2.399  51.999  1.00  0.00    -0.258 NA
HETATM   13  C13 UNL     1      21.969   3.468  51.322  1.00  0.00     0.094 C 
HETATM   14  C14 UNL     1      23.213   4.257  51.211  1.00  0.00     0.073 C 
HETATM   15  C15 UNL     1      24.361   3.439  51.685  1.00  0.00    -0.024 C 
HETATM   16  C16 UNL     1      25.513   2.907  51.309  1.00  0.00    -0.005 C 
HETATM   17  C17 UNL     1      26.730   2.107  51.621  1.00  0.00     0.194 C 
HETATM   18  O2  UNL     1      26.765   1.663  52.910  1.00  0.00    -0.386 OA
HETATM   19  C18 UNL     1      27.763   0.749  53.210  1.00  0.00     0.187 C 
HETATM   20  C19 UNL     1      27.687   0.363  54.694  1.00  0.00     0.148 C 
HETATM   21  N5  UNL     1      26.306  -0.081  54.964  1.00  0.00    -0.359 N 
HETATM   22  H9  UNL     1      18.896  -0.358  54.618  1.00  0.00     0.158 HD
HETATM   23  H30 UNL     1      25.945   0.568  55.740  1.00  0.00     0.162 HD
ENDROOT
BRANCH   9  24
HETATM   24  N2  UNL     1      17.386   0.757  51.268  1.00  0.00    -0.370 N 
HETATM   25  H11 UNL     1      16.945   0.219  50.458  1.00  0.00     0.161 HD
BRANCH  24  26
HETATM   26  C8  UNL     1      16.833   2.088  51.519  1.00  0.00     0.148 C 
BRANCH  26  27
HETATM   27  C9  UNL     1      15.448   2.013  52.024  1.00  0.00    -0.009 C 
HETATM   28  C10 UNL     1      14.639   2.794  52.725  1.00  0.00     0.002 C 
BRANCH  28  29
HETATM   29  C11 UNL     1      15.090   4.124  53.202  1.00  0.00     0.249 C 
HETATM   30  F1  UNL     1      14.134   4.698  54.042  1.00  0.00    -0.251 F 
ENDBRANCH  28  29
ENDBRANCH  26  27
ENDBRANCH  24  26
ENDBRANCH   9  24
TORSDOF 4
ENDMDL
MODEL 2
REMARK VINA RESULT:      -7.8      4.395      9.360
REMARK  4 active torsions:
REMARK  status: ('A' for Active; 'I' for Inactive)
REMARK    1  A    between atoms: C7_9  and  N2_10 
REMARK    2  A    between atoms: N2_10  and  C8_11 
REMARK    3  A    between atoms: C8_11  and  C9_12 
REMARK    4  A    between atoms: C10_13  and  C11_14 
ROOT
HETATM    1  O1  UNL     1      19.108   3.716  49.208  1.00  0.00    -0.274 OA
HETATM    2  C1  UNL     1      19.715   4.102  50.227  1.00  0.00     0.217 C 
HETATM    3  C2  UNL     1      20.713   4.517  51.295  1.00  0.00     0.103 C 
HETATM    4  C3  UNL     1      21.933   3.670  50.993  1.00  0.00     0.011 C 
HETATM    5  C4  UNL     1      22.935   3.748  52.130  1.00  0.00     0.020 C 
HETATM    6  C5  UNL     1      23.982   2.681  51.780  1.00  0.00     0.119 C 
HETATM    7  N1  UNL     1      24.865   2.455  52.875  1.00  0.00    -0.396 N 
HETATM    8  C6  UNL     1      25.894   1.532  53.169  1.00  0.00     0.133 C 
HETATM    9  C7  UNL     1      25.195   0.436  53.535  1.00  0.00     0.140 C 
HETATM   10  N3  UNL     1      24.098  -0.405  53.819  1.00  0.00    -0.223 NA
HETATM   11  C12 UNL     1      22.880  -0.136  53.546  1.00  0.00     0.234 C 
HETATM   12  N4  UNL     1      21.464  -0.170  53.396  1.00  0.00    -0.258 NA
HETATM   13  C13 UNL     1      20.769  -1.198  53.777  1.00  0.00     0.094 C 
HETATM   14  C14 UNL     1      19.319  -1.477  53.732  1.00  0.00     0.073 C 
HETATM   15  C15 UNL     1      18.668  -0.553  52.765  1.00  0.00    -0.024 C 
HETATM   16  C16 UNL     1      17.968  -0.512  51.643  1.00  0.00    -0.005 C 
HETATM   17  C17 UNL     1      17.266   0.268  50.585  1.00  0.00     0.194 C 
HETATM   18  O2  UNL     1      17.311   1.615  50.793  1.00  0.00    -0.386 OA
HETATM   19  C18 UNL     1      16.856   2.404  49.748  1.00  0.00     0.187 C 
HETATM   20  C19 UNL     1      16.948   3.887  50.138  1.00  0.00     0.148 C 
HETATM   21  N5  UNL     1      18.333   4.141  50.581  1.00  0.00    -0.359 N 
HETATM   22  H9  UNL     1      24.933   2.998  53.777  1.00  0.00     0.158 HD
HETATM   23  H30 UNL     1      18.246   4.509  51.586  1.00  0.00     0.162 HD
ENDROOT
BRANCH   9  24
HETATM   24  N2  UNL     1      26.067  -0.669  53.891  1.00  0.00    -0.370 N 
HETATM   25  H11 UNL     1      26.187  -1.235  54.788  1.00  0.00     0.161 HD
BRANCH  24  26
HETATM   26  C8  UNL     1      26.939  -1.052  52.781  1.00  0.00     0.148 C 
BRANCH  26  27
HETATM   27  C9  UNL     1      28.289  -1.417  53.254  1.00  0.00    -0.009 C 
HETATM   28  C10 UNL     1      29.297  -0.798  53.852  1.00  0.00     0.002 C 
BRANCH  28  29
HETATM   29  C11 UNL     1      29.203   0.638  54.209  1.00  0.00     0.249 C 
HETATM   30  F1  UNL     1      29.229   1.435  53.064  1.00  0.00    -0.251 F 
ENDBRANCH  28  29
ENDBRANCH  26  27
ENDBRANCH  24  26
ENDBRANCH   9  24
TORSDOF 4
ENDMDL
MODEL 3
REMARK VINA RESULT:      -7.7      5.148      8.832
REMARK  4 active torsions:
REMARK  status: ('A' for Active; 'I' for Inactive)
REMARK    1  A    between atoms: C7_9  and  N2_10 
REMARK    2  A    between atoms: N2_10  and  C8_11 
REMARK    3  A    between atoms: C8_11  and  C9_12 
REMARK    4  A    between atoms: C10_13  and  C11_14 
ROOT
HETATM    1  O1  UNL     1      21.251   7.481  50.825  1.00  0.00    -0.274 OA
HETATM    2  C1  UNL     1      21.026   6.305  50.476  1.00  0.00     0.217 C 
HETATM    3  C2  UNL     1      20.746   4.816  50.362  1.00  0.00     0.103 C 
HETATM    4  C3  UNL     1      21.404   4.233  51.598  1.00  0.00     0.011 C 
HETATM    5  C4  UNL     1      21.468   2.720  51.509  1.00  0.00     0.020 C 
HETATM    6  C5  UNL     1      22.346   2.311  52.700  1.00  0.00     0.119 C 
HETATM    7  N1  UNL     1      22.707   0.935  52.619  1.00  0.00    -0.396 N 
HETATM    8  C6  UNL     1      23.576   0.076  53.329  1.00  0.00     0.133 C 
HETATM    9  C7  UNL     1      24.781   0.400  52.812  1.00  0.00     0.140 C 
HETATM   10  N3  UNL     1      25.756   1.044  52.019  1.00  0.00    -0.223 NA
HETATM   11  C12 UNL     1      25.546   2.075  51.297  1.00  0.00     0.234 C 
HETATM   12  N4  UNL     1      25.675   3.185  50.412  1.00  0.00    -0.258 NA
HETATM   13  C13 UNL     1      26.815   3.491  49.874  1.00  0.00     0.094 C 
HETATM   14  C14 UNL     1      27.207   4.570  48.945  1.00  0.00     0.073 C 
HETATM   15  C15 UNL     1      26.169   5.636  48.959  1.00  0.00    -0.024 C 
HETATM   16  C16 UNL     1      25.966   6.915  49.225  1.00  0.00    -0.005 C 
HETATM   17  C17 UNL     1      25.055   8.092  49.296  1.00  0.00     0.194 C 
HETATM   18  O2  UNL     1      23.778   7.807  48.911  1.00  0.00    -0.386 OA
HETATM   19  C18 UNL     1      22.838   8.799  49.143  1.00  0.00     0.187 C 
HETATM   20  C19 UNL     1      21.462   8.341  48.639  1.00  0.00     0.148 C 
HETATM   21  N5  UNL     1      21.180   7.030  49.257  1.00  0.00    -0.359 N 
HETATM   22  H9  UNL     1      22.353   0.210  51.940  1.00  0.00     0.158 HD
HETATM   23  H30 UNL     1      21.031   6.355  48.435  1.00  0.00     0.162 HD
ENDROOT
BRANCH   9  24
HETATM   24  N2  UNL     1      25.853  -0.377  53.406  1.00  0.00    -0.370 N 
HETATM   25  H11 UNL     1      26.073  -0.652  54.414  1.00  0.00     0.161 HD
BRANCH  24  26
HETATM   26  C8  UNL     1      26.801  -0.854  52.400  1.00  0.00     0.148 C 
BRANCH  26  27
HETATM   27  C9  UNL     1      28.002  -1.444  53.023  1.00  0.00    -0.009 C 
HETATM   28  C10 UNL     1      29.104  -0.990  53.604  1.00  0.00     0.002 C 
BRANCH  28  29
HETATM   29  C11 UNL     1      29.345   0.466  53.745  1.00  0.00     0.249 C 
HETATM   30  F1  UNL     1      29.085   0.887  55.050  1.00  0.00    -0.251 F 
ENDBRANCH  28  29
ENDBRANCH  26  27
ENDBRANCH  24  26
ENDBRANCH   9  24
TORSDOF 4
ENDMDL
MODEL 4
REMARK VINA RESULT:      -7.7      1.441      4.174
REMARK  4 active torsions:
REMARK  status: ('A' for Active; 'I' for Inactive)
REMARK    1  A    between atoms: C7_9  and  N2_10 
REMARK    2  A    between atoms: N2_10  and  C8_11 
REMARK    3  A    between atoms: C8_11  and  C9_12 
REMARK    4  A    between atoms: C10_13  and  C11_14 
ROOT
HETATM    1  O1  UNL     1      27.153   2.161  53.724  1.00  0.00    -0.274 OA
HETATM    2  C1  UNL     1      26.580   2.109  52.617  1.00  0.00     0.217 C 
HETATM    3  C2  UNL     1      25.787   2.339  51.342  1.00  0.00     0.103 C 
HETATM    4  C3  UNL     1      24.685   3.286  51.772  1.00  0.00     0.011 C 
HETATM    5  C4  UNL     1      23.628   3.406  50.691  1.00  0.00     0.020 C 
HETATM    6  C5  UNL     1      22.496   4.200  51.359  1.00  0.00     0.119 C 
HETATM    7  N1  UNL     1      21.321   4.189  50.553  1.00  0.00    -0.396 N 
HETATM    8  C6  UNL     1      19.983   4.619  50.713  1.00  0.00     0.133 C 
HETATM    9  C7  UNL     1      19.455   3.626  51.460  1.00  0.00     0.140 C 
HETATM   10  N3  UNL     1      19.359   2.427  52.199  1.00  0.00    -0.223 NA
HETATM   11  C12 UNL     1      20.350   1.701  52.546  1.00  0.00     0.234 C 
HETATM   12  N4  UNL     1      21.187   0.682  53.087  1.00  0.00    -0.258 NA
HETATM   13  C13 UNL     1      20.694  -0.301  53.776  1.00  0.00     0.094 C 
HETATM   14  C14 UNL     1      21.334  -1.459  54.433  1.00  0.00     0.073 C 
HETATM   15  C15 UNL     1      22.789  -1.195  54.593  1.00  0.00    -0.024 C 
HETATM   16  C16 UNL     1      23.751  -1.065  55.491  1.00  0.00    -0.005 C 
HETATM   17  C17 UNL     1      25.181  -0.817  55.827  1.00  0.00     0.194 C 
HETATM   18  O2  UNL     1      25.964  -0.620  54.727  1.00  0.00    -0.386 OA
HETATM   19  C18 UNL     1      27.258  -0.187  54.974  1.00  0.00     0.187 C 
HETATM   20  C19 UNL     1      28.017  -0.032  53.648  1.00  0.00     0.148 C 
HETATM   21  N5  UNL     1      27.203   0.834  52.773  1.00  0.00    -0.359 N 
HETATM   22  H9  UNL     1      21.210   3.822  49.571  1.00  0.00     0.158 HD
HETATM   23  H30 UNL     1      27.010   0.249  51.894  1.00  0.00     0.162 HD
ENDROOT
BRANCH   9  24
HETATM   24  N2  UNL     1      18.052   3.858  51.756  1.00  0.00    -0.370 N 
HETATM   25  H11 UNL     1      17.557   4.446  52.496  1.00  0.00     0.161 HD
BRANCH  24  26
HETATM   26  C8  UNL     1      17.176   3.122  50.844  1.00  0.00     0.148 C 
BRANCH  26  27
HETATM   27  C9  UNL     1      15.885   3.813  50.658  1.00  0.00    -0.009 C 
HETATM   28  C10 UNL     1      14.782   3.995  51.370  1.00  0.00     0.002 C 
BRANCH  28  29
HETATM   29  C11 UNL     1      14.651   3.420  52.730  1.00  0.00     0.249 C 
HETATM   30  F1  UNL     1      15.296   4.223  53.672  1.00  0.00    -0.251 F 
ENDBRANCH  28  29
ENDBRANCH  26  27
ENDBRANCH  24  26
ENDBRANCH   9  24
TORSDOF 4
ENDMDL
MODEL 5
REMARK VINA RESULT:      -7.2      2.123      2.193
REMARK  4 active torsions:
REMARK  status: ('A' for Active; 'I' for Inactive)
REMARK    1  A    between atoms: C7_9  and  N2_10 
REMARK    2  A    between atoms: N2_10  and  C8_11 
REMARK    3  A    between atoms: C8_11  and  C9_12 
REMARK    4  A    between atoms: C10_13  and  C11_14 
ROOT
HETATM    1  O1  UNL     1      26.529  -1.169  53.762  1.00  0.00    -0.274 OA
HETATM    2  C1  UNL     1      25.587  -0.898  54.533  1.00  0.00     0.217 C 
HETATM    3  C2  UNL     1      24.293  -0.807  55.324  1.00  0.00     0.103 C 
HETATM    4  C3  UNL     1      23.241  -1.295  54.348  1.00  0.00     0.011 C 
HETATM    5  C4  UNL     1      21.847  -1.009  54.873  1.00  0.00     0.020 C 
HETATM    6  C5  UNL     1      20.925  -1.347  53.693  1.00  0.00     0.119 C 
HETATM    7  N1  UNL     1      19.595  -0.899  53.940  1.00  0.00    -0.396 N 
HETATM    8  C6  UNL     1      18.402  -0.816  53.187  1.00  0.00     0.133 C 
HETATM    9  C7  UNL     1      18.613   0.291  52.443  1.00  0.00     0.140 C 
HETATM   10  N3  UNL     1      19.252   1.433  51.914  1.00  0.00    -0.223 NA
HETATM   11  C12 UNL     1      20.474   1.746  52.113  1.00  0.00     0.234 C 
HETATM   12  N4  UNL     1      21.747   2.384  52.116  1.00  0.00    -0.258 NA
HETATM   13  C13 UNL     1      21.961   3.469  51.439  1.00  0.00     0.094 C 
HETATM   14  C14 UNL     1      23.166   4.308  51.277  1.00  0.00     0.073 C 
HETATM   15  C15 UNL     1      24.367   3.532  51.688  1.00  0.00    -0.024 C 
HETATM   16  C16 UNL     1      25.519   3.049  51.253  1.00  0.00    -0.005 C 
HETATM   17  C17 UNL     1      26.780   2.294  51.499  1.00  0.00     0.194 C 
HETATM   18  O2  UNL     1      26.893   1.841  52.780  1.00  0.00    -0.386 OA
HETATM   19  C18 UNL     1      27.939   0.964  53.022  1.00  0.00     0.187 C 
HETATM   20  C19 UNL     1      27.949   0.562  54.504  1.00  0.00     0.148 C 
HETATM   21  N5  UNL     1      26.600   0.061  54.833  1.00  0.00    -0.359 N 
HETATM   22  H9  UNL     1      19.199  -0.504  54.834  1.00  0.00     0.158 HD
HETATM   23  H30 UNL     1      26.252   0.689  55.633  1.00  0.00     0.162 HD
ENDROOT
BRANCH   9  24
HETATM   24  N2  UNL     1      17.489   0.581  51.570  1.00  0.00    -0.370 N 
HETATM   25  H11 UNL     1      16.532   1.019  51.747  1.00  0.00     0.161 HD
BRANCH  24  26
HETATM   26  C8  UNL     1      17.754   0.175  50.190  1.00  0.00     0.148 C 
BRANCH  26  27
HETATM   27  C9  UNL     1      16.608  -0.553  49.610  1.00  0.00    -0.009 C 
HETATM   28  C10 UNL     1      15.509  -0.236  48.942  1.00  0.00     0.002 C 
BRANCH  28  29
HETATM   29  C11 UNL     1      15.201   1.175  48.608  1.00  0.00     0.249 C 
HETATM   30  F1  UNL     1      16.091   1.663  47.649  1.00  0.00    -0.251 F 
ENDBRANCH  28  29
ENDBRANCH  26  27
ENDBRANCH  24  26
ENDBRANCH   9  24
TORSDOF 4
ENDMDL
MODEL 6
REMARK VINA RESULT:      -7.2      4.198      9.238
REMARK  4 active torsions:
REMARK  status: ('A' for Active; 'I' for Inactive)
REMARK    1  A    between atoms: C7_9  and  N2_10 
REMARK    2  A    between atoms: N2_10  and  C8_11 
REMARK    3  A    between atoms: C8_11  and  C9_12 
REMARK    4  A    between atoms: C10_13  and  C11_14 
ROOT
HETATM    1  O1  UNL     1      17.228   2.173  50.051  1.00  0.00    -0.274 OA
HETATM    2  C1  UNL     1      17.951   3.004  50.636  1.00  0.00     0.217 C 
HETATM    3  C2  UNL     1      19.003   4.004  51.084  1.00  0.00     0.103 C 
HETATM    4  C3  UNL     1      20.256   3.554  50.358  1.00  0.00     0.011 C 
HETATM    5  C4  UNL     1      21.478   4.269  50.902  1.00  0.00     0.020 C 
HETATM    6  C5  UNL     1      22.660   3.551  50.237  1.00  0.00     0.119 C 
HETATM    7  N1  UNL     1      23.895   3.943  50.831  1.00  0.00    -0.396 N 
HETATM    8  C6  UNL     1      25.242   3.527  50.728  1.00  0.00     0.133 C 
HETATM    9  C7  UNL     1      25.254   2.412  51.490  1.00  0.00     0.140 C 
HETATM   10  N3  UNL     1      24.799   1.374  52.330  1.00  0.00    -0.223 NA
HETATM   11  C12 UNL     1      23.575   1.142  52.609  1.00  0.00     0.234 C 
HETATM   12  N4  UNL     1      22.358   0.606  53.122  1.00  0.00    -0.258 NA
HETATM   13  C13 UNL     1      22.351  -0.442  53.886  1.00  0.00     0.094 C 
HETATM   14  C14 UNL     1      21.247  -1.180  54.533  1.00  0.00     0.073 C 
HETATM   15  C15 UNL     1      19.962  -0.830  53.869  1.00  0.00    -0.024 C 
HETATM   16  C16 UNL     1      18.947  -1.335  53.189  1.00  0.00    -0.005 C 
HETATM   17  C17 UNL     1      17.646  -1.157  52.484  1.00  0.00     0.194 C 
HETATM   18  O2  UNL     1      17.200   0.132  52.498  1.00  0.00    -0.386 OA
HETATM   19  C18 UNL     1      16.105   0.404  51.693  1.00  0.00     0.187 C 
HETATM   20  C19 UNL     1      15.710   1.881  51.832  1.00  0.00     0.148 C 
HETATM   21  N5  UNL     1      16.919   2.687  51.570  1.00  0.00    -0.359 N 
HETATM   22  H9  UNL     1      24.061   4.707  51.539  1.00  0.00     0.158 HD
HETATM   23  H30 UNL     1      17.068   3.272  52.458  1.00  0.00     0.162 HD
ENDROOT
BRANCH   9  24
HETATM   24  N2  UNL     1      26.569   1.799  51.532  1.00  0.00    -0.370 N 
HETATM   25  H11 UNL     1      27.143   1.269  50.804  1.00  0.00     0.161 HD
BRANCH  24  26
HETATM   26  C8  UNL     1      27.197   1.950  52.844  1.00  0.00     0.148 C 
BRANCH  26  27
HETATM   27  C9  UNL     1      28.226   0.917  53.075  1.00  0.00    -0.009 C 
HETATM   28  C10 UNL     1      28.246  -0.399  53.233  1.00  0.00     0.002 C 
BRANCH  28  29
HETATM   29  C11 UNL     1      26.993  -1.189  53.194  1.00  0.00     0.249 C 
HETATM   30  F1  UNL     1      26.807  -1.761  51.934  1.00  0.00    -0.251 F 
ENDBRANCH  28  29
ENDBRANCH  26  27
ENDBRANCH  24  26
ENDBRANCH   9  24
TORSDOF 4
ENDMDL
MODEL 7
REMARK VINA RESULT:      -7.2      6.542     10.273
REMARK  4 active torsions:
REMARK  status: ('A' for Active; 'I' for Inactive)
REMARK    1  A    between atoms: C7_9  and  N2_10 
REMARK    2  A    between atoms: N2_10  and  C8_11 
REMARK    3  A    between atoms: C8_11  and  C9_12 
REMARK    4  A    between atoms: C10_13  and  C11_14 
ROOT
HETATM    1  O1  UNL     1      23.349   9.643  47.150  1.00  0.00    -0.274 OA
HETATM    2  C1  UNL     1      23.186   8.445  46.845  1.00  0.00     0.217 C 
HETATM    3  C2  UNL     1      22.878   6.959  46.770  1.00  0.00     0.103 C 
HETATM    4  C3  UNL     1      23.068   6.482  48.196  1.00  0.00     0.011 C 
HETATM    5  C4  UNL     1      23.075   4.966  48.258  1.00  0.00     0.020 C 
HETATM    6  C5  UNL     1      23.496   4.652  49.701  1.00  0.00     0.119 C 
HETATM    7  N1  UNL     1      23.789   3.266  49.857  1.00  0.00    -0.396 N 
HETATM    8  C6  UNL     1      24.333   2.458  50.881  1.00  0.00     0.133 C 
HETATM    9  C7  UNL     1      25.656   2.703  50.762  1.00  0.00     0.140 C 
HETATM   10  N3  UNL     1      26.868   3.244  50.283  1.00  0.00    -0.223 NA
HETATM   11  C12 UNL     1      26.960   4.206  49.449  1.00  0.00     0.234 C 
HETATM   12  N4  UNL     1      27.429   5.223  48.567  1.00  0.00    -0.258 NA
HETATM   13  C13 UNL     1      28.697   5.448  48.410  1.00  0.00     0.094 C 
HETATM   14  C14 UNL     1      29.426   6.424  47.574  1.00  0.00     0.073 C 
HETATM   15  C15 UNL     1      28.499   7.511  47.160  1.00  0.00    -0.024 C 
HETATM   16  C16 UNL     1      28.290   8.815  47.238  1.00  0.00    -0.005 C 
HETATM   17  C17 UNL     1      27.470  10.014  46.908  1.00  0.00     0.194 C 
HETATM   18  O2  UNL     1      26.374   9.724  46.151  1.00  0.00    -0.386 OA
HETATM   19  C18 UNL     1      25.465  10.756  45.979  1.00  0.00     0.187 C 
HETATM   20  C19 UNL     1      24.303  10.285  45.091  1.00  0.00     0.148 C 
HETATM   21  N5  UNL     1      23.767   9.047  45.689  1.00  0.00    -0.359 N 
HETATM   22  H9  UNL     1      23.636   2.488  49.161  1.00  0.00     0.158 HD
HETATM   23  H30 UNL     1      23.856   8.300  44.922  1.00  0.00     0.162 HD
ENDROOT
BRANCH   9  24
HETATM   24  N2  UNL     1      26.434   1.961  51.738  1.00  0.00    -0.370 N 
HETATM   25  H11 UNL     1      27.384   2.140  52.192  1.00  0.00     0.161 HD
BRANCH  24  26
HETATM   26  C8  UNL     1      25.758   0.732  52.152  1.00  0.00     0.148 C 
BRANCH  26  27
HETATM   27  C9  UNL     1      26.697  -0.404  52.229  1.00  0.00    -0.009 C 
HETATM   28  C10 UNL     1      27.668  -0.794  53.044  1.00  0.00     0.002 C 
BRANCH  28  29
HETATM   29  C11 UNL     1      28.028   0.010  54.236  1.00  0.00     0.249 C 
HETATM   30  F1  UNL     1      26.991   0.005  55.169  1.00  0.00    -0.251 F 
ENDBRANCH  28  29
ENDBRANCH  26  27
ENDBRANCH  24  26
ENDBRANCH   9  24
TORSDOF 4
ENDMDL
MODEL 8
REMARK VINA RESULT:      -7.0      4.052      6.406
REMARK  4 active torsions:
REMARK  status: ('A' for Active; 'I' for Inactive)
REMARK    1  A    between atoms: C7_9  and  N2_10 
REMARK    2  A    between atoms: N2_10  and  C8_11 
REMARK    3  A    between atoms: C8_11  and  C9_12 
REMARK    4  A    between atoms: C10_13  and  C11_14 
ROOT
HETATM    1  O1  UNL     1      26.881   1.378  53.027  1.00  0.00    -0.274 OA
HETATM    2  C1  UNL     1      26.700   1.677  51.829  1.00  0.00     0.217 C 
HETATM    3  C2  UNL     1      26.488   2.338  50.478  1.00  0.00     0.103 C 
HETATM    4  C3  UNL     1      25.763   3.625  50.820  1.00  0.00     0.011 C 
HETATM    5  C4  UNL     1      25.220   4.285  49.566  1.00  0.00     0.020 C 
HETATM    6  C5  UNL     1      24.339   5.426  50.094  1.00  0.00     0.119 C 
HETATM    7  N1  UNL     1      23.558   5.994  49.047  1.00  0.00    -0.396 N 
HETATM    8  C6  UNL     1      22.512   6.941  48.967  1.00  0.00     0.133 C 
HETATM    9  C7  UNL     1      21.439   6.211  49.342  1.00  0.00     0.140 C 
HETATM   10  N3  UNL     1      20.667   5.109  49.769  1.00  0.00    -0.223 NA
HETATM   11  C12 UNL     1      21.142   3.999  50.183  1.00  0.00     0.234 C 
HETATM   12  N4  UNL     1      21.311   2.676  50.684  1.00  0.00    -0.258 NA
HETATM   13  C13 UNL     1      20.292   1.944  51.014  1.00  0.00     0.094 C 
HETATM   14  C14 UNL     1      20.200   0.570  51.548  1.00  0.00     0.073 C 
HETATM   15  C15 UNL     1      21.519   0.166  52.104  1.00  0.00    -0.024 C 
HETATM   16  C16 UNL     1      22.133  -0.211  53.213  1.00  0.00    -0.005 C 
HETATM   17  C17 UNL     1      23.371  -0.635  53.926  1.00  0.00     0.194 C 
HETATM   18  O2  UNL     1      24.464  -0.697  53.112  1.00  0.00    -0.386 OA
HETATM   19  C18 UNL     1      25.682  -0.887  53.747  1.00  0.00     0.187 C 
HETATM   20  C19 UNL     1      26.807  -0.957  52.704  1.00  0.00     0.148 C 
HETATM   21  N5  UNL     1      26.701   0.250  51.860  1.00  0.00    -0.359 N 
HETATM   22  H9  UNL     1      23.619   5.799  48.012  1.00  0.00     0.158 HD
HETATM   23  H30 UNL     1      26.575  -0.115  50.858  1.00  0.00     0.162 HD
ENDROOT
BRANCH   9  24
HETATM   24  N2  UNL     1      20.219   6.996  49.334  1.00  0.00    -0.370 N 
HETATM   25  H11 UNL     1      19.228   6.789  48.994  1.00  0.00     0.161 HD
BRANCH  24  26
HETATM   26  C8  UNL     1      20.425   8.327  49.906  1.00  0.00     0.148 C 
BRANCH  26  27
HETATM   27  C9  UNL     1      19.211   9.160  49.792  1.00  0.00    -0.009 C 
HETATM   28  C10 UNL     1      18.915  10.367  49.331  1.00  0.00     0.002 C 
BRANCH  28  29
HETATM   29  C11 UNL     1      19.964  11.235  48.745  1.00  0.00     0.249 C 
HETATM   30  F1  UNL     1      20.685  11.887  49.747  1.00  0.00    -0.251 F 
ENDBRANCH  28  29
ENDBRANCH  26  27
ENDBRANCH  24  26
ENDBRANCH   9  24
TORSDOF 4
ENDMDL
MODEL 9
REMARK VINA RESULT:      -6.8      5.434      9.996
REMARK  4 active torsions:
REMARK  status: ('A' for Active; 'I' for Inactive)
REMARK    1  A    between atoms: C7_9  and  N2_10 
REMARK    2  A    between atoms: N2_10  and  C8_11 
REMARK    3  A    between atoms: C8_11  and  C9_12 
REMARK    4  A    between atoms: C10_13  and  C11_14 
ROOT
HETATM    1  O1  UNL     1      21.745   7.465  46.898  1.00  0.00    -0.274 OA
HETATM    2  C1  UNL     1      22.492   7.586  47.890  1.00  0.00     0.217 C 
HETATM    3  C2  UNL     1      23.594   7.543  48.934  1.00  0.00     0.103 C 
HETATM    4  C3  UNL     1      24.223   6.179  48.735  1.00  0.00     0.011 C 
HETATM    5  C4  UNL     1      25.163   5.848  49.879  1.00  0.00     0.020 C 
HETATM    6  C5  UNL     1      25.531   4.376  49.648  1.00  0.00     0.119 C 
HETATM    7  N1  UNL     1      26.217   3.839  50.776  1.00  0.00    -0.396 N 
HETATM    8  C6  UNL     1      26.659   2.556  51.173  1.00  0.00     0.133 C 
HETATM    9  C7  UNL     1      25.519   1.990  51.624  1.00  0.00     0.140 C 
HETATM   10  N3  UNL     1      24.157   1.835  51.962  1.00  0.00    -0.223 NA
HETATM   11  C12 UNL     1      23.227   2.649  51.641  1.00  0.00     0.234 C 
HETATM   12  N4  UNL     1      21.977   3.310  51.468  1.00  0.00    -0.258 NA
HETATM   13  C13 UNL     1      20.875   2.802  51.927  1.00  0.00     0.094 C 
HETATM   14  C14 UNL     1      19.477   3.278  51.879  1.00  0.00     0.073 C 
HETATM   15  C15 UNL     1      19.344   4.314  50.819  1.00  0.00    -0.024 C 
HETATM   16  C16 UNL     1      18.725   4.598  49.685  1.00  0.00    -0.005 C 
HETATM   17  C17 UNL     1      18.473   5.526  48.547  1.00  0.00     0.194 C 
HETATM   18  O2  UNL     1      19.187   6.685  48.632  1.00  0.00    -0.386 OA
HETATM   19  C18 UNL     1      19.155   7.500  47.511  1.00  0.00     0.187 C 
HETATM   20  C19 UNL     1      19.982   8.769  47.766  1.00  0.00     0.148 C 
HETATM   21  N5  UNL     1      21.322   8.339  48.211  1.00  0.00    -0.359 N 
HETATM   22  H9  UNL     1      26.571   4.353  51.626  1.00  0.00     0.158 HD
HETATM   23  H30 UNL     1      21.459   8.788  49.177  1.00  0.00     0.162 HD
ENDROOT
BRANCH   9  24
HETATM   24  N2  UNL     1      25.736   0.635  52.095  1.00  0.00    -0.370 N 
HETATM   25  H11 UNL     1      25.067  -0.163  52.333  1.00  0.00     0.161 HD
BRANCH  24  26
HETATM   26  C8  UNL     1      27.158   0.342  52.272  1.00  0.00     0.148 C 
BRANCH  26  27
HETATM   27  C9  UNL     1      27.508   0.197  53.699  1.00  0.00    -0.009 C 
HETATM   28  C10 UNL     1      28.559  -0.218  54.392  1.00  0.00     0.002 C 
BRANCH  28  29
HETATM   29  C11 UNL     1      29.783  -0.694  53.705  1.00  0.00     0.249 C 
HETATM   30  F1  UNL     1      29.557  -1.926  53.087  1.00  0.00    -0.251 F 
ENDBRANCH  28  29
ENDBRANCH  26  27
ENDBRANCH  24  26
ENDBRANCH   9  24
TORSDOF 4
ENDMDL
