MODEL 1
REMARK VINA RESULT:      -8.9      0.000      0.000
REMARK  7 active torsions:
REMARK  status: ('A' for Active; 'I' for Inactive)
REMARK    1  A    between atoms: C2_2  and  C3_3 
REMARK    2  A    between atoms: C4_4  and  C5_5 
REMARK    3  A    between atoms: N2_7  and  C6_8 
REMARK    4  A    between atoms: C6_8  and  S1_9 
REMARK    5  A    between atoms: S1_9  and  C7_10 
REMARK    6  A    between atoms: C13_18  and  C14_19 
REMARK    7  A    between atoms: C17_22  and  O1_23 
ROOT
HETATM    1  C5  UNL     1      21.545  -0.143  53.481  1.00  0.00     0.056 C 
HETATM    2  N1  UNL     1      21.793   0.890  52.767  1.00  0.00    -0.180 NA
HETATM    3  N2  UNL     1      23.163   1.225  52.787  1.00  0.00    -0.286 N 
HETATM    4  C13 UNL     1      23.755  -0.084  52.957  1.00  0.00     0.143 C 
HETATM    5  C21 UNL     1      22.833  -0.601  54.070  1.00  0.00     0.093 C 
ENDROOT
BRANCH   3   6
HETATM    6  C6  UNL     1      23.744   2.549  52.665  1.00  0.00     0.223 C 
BRANCH   6   7
HETATM    7  S1  UNL     1      22.880   3.605  51.500  1.00  0.00    -0.118 SA
BRANCH   7   8
HETATM    8  C7  UNL     1      23.868   5.070  51.241  1.00  0.00     0.071 C 
HETATM    9  C8  UNL     1      24.894   5.114  50.414  1.00  0.00     0.015 C 
HETATM   10  C9  UNL     1      25.248   3.885  49.658  1.00  0.00     0.085 C 
HETATM   11  N3  UNL     1      25.591   6.348  50.308  1.00  0.00    -0.387 N 
HETATM   12  C10 UNL     1      26.637   4.001  49.097  1.00  0.00     0.000 C 
HETATM   13  C11 UNL     1      27.186   5.201  48.914  1.00  0.00     0.026 C 
HETATM   14 CL1  UNL     1      28.826   5.220  48.247  1.00  0.00    -0.087 Cl
HETATM   15  C12 UNL     1      26.533   6.504  49.224  1.00  0.00     0.170 C 
HETATM   16  H16 UNL     1      25.402   7.112  51.019  1.00  0.00     0.159 HD
ENDBRANCH   7   8
ENDBRANCH   6   7
ENDBRANCH   3   6
BRANCH   4  17
HETATM   17  C14 UNL     1      25.163  -0.088  53.331  1.00  0.00    -0.033 A 
HETATM   18  C15 UNL     1      26.150  -0.292  52.373  1.00  0.00     0.012 A 
HETATM   19  C16 UNL     1      27.473  -0.286  52.780  1.00  0.00     0.037 A 
HETATM   20  C17 UNL     1      27.861  -0.086  54.110  1.00  0.00     0.068 A 
HETATM   21  C19 UNL     1      26.847   0.114  55.035  1.00  0.00     0.037 A 
HETATM   22  C20 UNL     1      25.518   0.112  54.644  1.00  0.00     0.012 A 
BRANCH  20  23
HETATM   23  O1  UNL     1      29.218  -0.101  54.407  1.00  0.00    -0.356 OA
HETATM   24  C18 UNL     1      30.064  -0.862  53.575  1.00  0.00     0.210 C 
ENDBRANCH  20  23
ENDBRANCH   4  17
BRANCH   1  25
HETATM   25  C4  UNL     1      20.245  -0.771  53.691  1.00  0.00     0.025 C 
HETATM   26  C3  UNL     1      19.231  -0.471  52.893  1.00  0.00    -0.025 C 
BRANCH  26  27
HETATM   27  C2  UNL     1      17.893  -1.118  53.109  1.00  0.00     0.022 C 
HETATM   28  C1  UNL     1      18.031  -2.478  53.754  1.00  0.00     0.009 C 
ENDBRANCH  26  27
ENDBRANCH   1  25
TORSDOF 7
ENDMDL
MODEL 2
REMARK VINA RESULT:      -8.3      2.528      5.869
REMARK  7 active torsions:
REMARK  status: ('A' for Active; 'I' for Inactive)
REMARK    1  A    between atoms: C2_2  and  C3_3 
REMARK    2  A    between atoms: C4_4  and  C5_5 
REMARK    3  A    between atoms: N2_7  and  C6_8 
REMARK    4  A    between atoms: C6_8  and  S1_9 
REMARK    5  A    between atoms: S1_9  and  C7_10 
REMARK    6  A    between atoms: C13_18  and  C14_19 
REMARK    7  A    between atoms: C17_22  and  O1_23 
ROOT
HETATM    1  C5  UNL     1      26.118   1.338  52.764  1.00  0.00     0.056 C 
HETATM    2  N1  UNL     1      25.676   2.470  53.166  1.00  0.00    -0.180 NA
HETATM    3  N2  UNL     1      24.281   2.581  52.987  1.00  0.00    -0.286 N 
HETATM    4  C13 UNL     1      23.882   1.200  53.140  1.00  0.00     0.143 C 
HETATM    5  C21 UNL     1      24.958   0.559  52.252  1.00  0.00     0.093 C 
ENDROOT
BRANCH   3   6
HETATM    6  C6  UNL     1      23.525   3.791  52.723  1.00  0.00     0.223 C 
BRANCH   6   7
HETATM    7  S1  UNL     1      23.448   4.223  50.983  1.00  0.00    -0.118 SA
BRANCH   7   8
HETATM    8  C7  UNL     1      24.477   5.659  50.722  1.00  0.00     0.071 C 
HETATM    9  C8  UNL     1      25.548   5.652  49.952  1.00  0.00     0.015 C 
HETATM   10  C9  UNL     1      25.918   4.387  49.266  1.00  0.00     0.085 C 
HETATM   11  N3  UNL     1      26.273   6.868  49.835  1.00  0.00    -0.387 N 
HETATM   12  C10 UNL     1      27.337   4.456  48.779  1.00  0.00     0.000 C 
HETATM   13  C11 UNL     1      27.919   5.637  48.579  1.00  0.00     0.026 C 
HETATM   14 CL1  UNL     1      29.593   5.601  48.004  1.00  0.00    -0.087 Cl
HETATM   15  C12 UNL     1      27.276   6.963  48.800  1.00  0.00     0.170 C 
HETATM   16  H16 UNL     1      26.061   7.663  50.504  1.00  0.00     0.159 HD
ENDBRANCH   7   8
ENDBRANCH   6   7
ENDBRANCH   3   6
BRANCH   4  17
HETATM   17  C14 UNL     1      22.524   0.891  52.708  1.00  0.00    -0.033 A 
HETATM   18  C15 UNL     1      22.228   0.743  51.357  1.00  0.00     0.012 A 
HETATM   19  C16 UNL     1      20.923   0.451  50.998  1.00  0.00     0.037 A 
HETATM   20  C17 UNL     1      19.891   0.299  51.933  1.00  0.00     0.068 A 
HETATM   21  C19 UNL     1      20.228   0.454  53.269  1.00  0.00     0.037 A 
HETATM   22  C20 UNL     1      21.529   0.747  53.644  1.00  0.00     0.012 A 
BRANCH  20  23
HETATM   23  O1  UNL     1      18.618   0.006  51.461  1.00  0.00    -0.356 OA
HETATM   24  C18 UNL     1      17.812  -0.854  52.234  1.00  0.00     0.210 C 
ENDBRANCH  20  23
ENDBRANCH   4  17
BRANCH   1  25
HETATM   25  C4  UNL     1      27.502   0.877  52.795  1.00  0.00     0.025 C 
HETATM   26  C3  UNL     1      27.809  -0.252  53.416  1.00  0.00    -0.025 C 
BRANCH  26  27
HETATM   27  C2  UNL     1      29.234  -0.725  53.447  1.00  0.00     0.022 C 
HETATM   28  C1  UNL     1      29.324  -2.225  53.287  1.00  0.00     0.009 C 
ENDBRANCH  26  27
ENDBRANCH   1  25
TORSDOF 7
ENDMDL
MODEL 3
REMARK VINA RESULT:      -7.5      2.947      6.344
REMARK  7 active torsions:
REMARK  status: ('A' for Active; 'I' for Inactive)
REMARK    1  A    between atoms: C2_2  and  C3_3 
REMARK    2  A    between atoms: C4_4  and  C5_5 
REMARK    3  A    between atoms: N2_7  and  C6_8 
REMARK    4  A    between atoms: C6_8  and  S1_9 
REMARK    5  A    between atoms: S1_9  and  C7_10 
REMARK    6  A    between atoms: C13_18  and  C14_19 
REMARK    7  A    between atoms: C17_22  and  O1_23 
ROOT
HETATM    1  C5  UNL     1      25.345   0.648  53.058  1.00  0.00     0.056 C 
HETATM    2  N1  UNL     1      25.429   1.618  52.226  1.00  0.00    -0.180 NA
HETATM    3  N2  UNL     1      24.174   1.944  51.672  1.00  0.00    -0.286 N 
HETATM    4  C13 UNL     1      23.299   1.592  52.769  1.00  0.00     0.143 C 
HETATM    5  C21 UNL     1      23.918   0.230  53.118  1.00  0.00     0.093 C 
ENDROOT
BRANCH   3   6
HETATM    6  C6  UNL     1      23.912   2.482  50.351  1.00  0.00     0.223 C 
BRANCH   6   7
HETATM    7  S1  UNL     1      24.493   4.166  50.135  1.00  0.00    -0.118 SA
BRANCH   7   8
HETATM    8  C7  UNL     1      26.189   4.101  49.579  1.00  0.00     0.071 C 
HETATM    9  C8  UNL     1      26.802   5.118  49.005  1.00  0.00     0.015 C 
HETATM   10  C9  UNL     1      26.047   6.382  48.810  1.00  0.00     0.085 C 
HETATM   11  N3  UNL     1      28.153   4.924  48.612  1.00  0.00    -0.387 N 
HETATM   12  C10 UNL     1      26.748   7.259  47.812  1.00  0.00     0.000 C 
HETATM   13  C11 UNL     1      28.049   7.097  47.578  1.00  0.00     0.026 C 
HETATM   14 CL1  UNL     1      28.773   8.184  46.382  1.00  0.00    -0.087 Cl
HETATM   15  C12 UNL     1      28.924   6.086  48.236  1.00  0.00     0.170 C 
HETATM   16  H16 UNL     1      28.555   3.942  48.605  1.00  0.00     0.159 HD
ENDBRANCH   7   8
ENDBRANCH   6   7
ENDBRANCH   3   6
BRANCH   4  17
HETATM   17  C14 UNL     1      21.883   1.508  52.435  1.00  0.00    -0.033 A 
HETATM   18  C15 UNL     1      21.076   2.639  52.487  1.00  0.00     0.012 A 
HETATM   19  C16 UNL     1      19.736   2.508  52.160  1.00  0.00     0.037 A 
HETATM   20  C17 UNL     1      19.161   1.289  51.782  1.00  0.00     0.068 A 
HETATM   21  C19 UNL     1      19.999   0.186  51.743  1.00  0.00     0.037 A 
HETATM   22  C20 UNL     1      21.341   0.300  52.066  1.00  0.00     0.012 A 
BRANCH  20  23
HETATM   23  O1  UNL     1      17.805   1.272  51.476  1.00  0.00    -0.356 OA
HETATM   24  C18 UNL     1      17.148   0.025  51.477  1.00  0.00     0.210 C 
ENDBRANCH  20  23
ENDBRANCH   4  17
BRANCH   1  25
HETATM   25  C4  UNL     1      26.437   0.048  53.816  1.00  0.00     0.025 C 
HETATM   26  C3  UNL     1      27.663   0.541  53.712  1.00  0.00    -0.025 C 
BRANCH  26  27
HETATM   27  C2  UNL     1      28.786  -0.077  54.494  1.00  0.00     0.022 C 
HETATM   28  C1  UNL     1      29.729  -0.846  53.598  1.00  0.00     0.009 C 
ENDBRANCH  26  27
ENDBRANCH   1  25
TORSDOF 7
ENDMDL
MODEL 4
REMARK VINA RESULT:      -7.4      2.681      3.162
REMARK  7 active torsions:
REMARK  status: ('A' for Active; 'I' for Inactive)
REMARK    1  A    between atoms: C2_2  and  C3_3 
REMARK    2  A    between atoms: C4_4  and  C5_5 
REMARK    3  A    between atoms: N2_7  and  C6_8 
REMARK    4  A    between atoms: C6_8  and  S1_9 
REMARK    5  A    between atoms: S1_9  and  C7_10 
REMARK    6  A    between atoms: C13_18  and  C14_19 
REMARK    7  A    between atoms: C17_22  and  O1_23 
ROOT
HETATM    1  C5  UNL     1      21.517   0.408  53.325  1.00  0.00     0.056 C 
HETATM    2  N1  UNL     1      21.862   1.486  52.727  1.00  0.00    -0.180 NA
HETATM    3  N2  UNL     1      23.251   1.714  52.819  1.00  0.00    -0.286 N 
HETATM    4  C13 UNL     1      23.742   0.354  52.869  1.00  0.00     0.143 C 
HETATM    5  C21 UNL     1      22.747  -0.202  53.898  1.00  0.00     0.093 C 
ENDROOT
BRANCH   3   6
HETATM    6  C6  UNL     1      23.929   2.997  52.850  1.00  0.00     0.223 C 
BRANCH   6   7
HETATM    7  S1  UNL     1      24.342   3.628  51.222  1.00  0.00    -0.118 SA
BRANCH   7   8
HETATM    8  C7  UNL     1      22.822   3.856  50.313  1.00  0.00     0.071 C 
HETATM    9  C8  UNL     1      22.262   5.035  50.122  1.00  0.00     0.015 C 
HETATM   10  C9  UNL     1      22.928   6.235  50.691  1.00  0.00     0.085 C 
HETATM   11  N3  UNL     1      21.052   5.067  49.379  1.00  0.00    -0.387 N 
HETATM   12  C10 UNL     1      21.972   7.394  50.724  1.00  0.00     0.000 C 
HETATM   13  C11 UNL     1      20.916   7.412  49.912  1.00  0.00     0.026 C 
HETATM   14 CL1  UNL     1      19.856   8.826  50.035  1.00  0.00    -0.087 Cl
HETATM   15  C12 UNL     1      20.568   6.351  48.927  1.00  0.00     0.170 C 
HETATM   16  H16 UNL     1      20.543   4.159  49.180  1.00  0.00     0.159 HD
ENDBRANCH   7   8
ENDBRANCH   6   7
ENDBRANCH   3   6
BRANCH   4  17
HETATM   17  C14 UNL     1      25.132   0.208  53.280  1.00  0.00    -0.033 A 
HETATM   18  C15 UNL     1      26.137   0.051  52.332  1.00  0.00     0.012 A 
HETATM   19  C16 UNL     1      27.443  -0.085  52.773  1.00  0.00     0.037 A 
HETATM   20  C17 UNL     1      27.795  -0.071  54.128  1.00  0.00     0.068 A 
HETATM   21  C19 UNL     1      26.764   0.088  55.042  1.00  0.00     0.037 A 
HETATM   22  C20 UNL     1      25.453   0.225  54.617  1.00  0.00     0.012 A 
BRANCH  20  23
HETATM   23  O1  UNL     1      29.136  -0.216  54.459  1.00  0.00    -0.356 OA
HETATM   24  C18 UNL     1      29.953  -0.957  53.581  1.00  0.00     0.210 C 
ENDBRANCH  20  23
ENDBRANCH   4  17
BRANCH   1  25
HETATM   25  C4  UNL     1      20.168  -0.139  53.433  1.00  0.00     0.025 C 
HETATM   26  C3  UNL     1      19.997  -1.428  53.683  1.00  0.00    -0.025 C 
BRANCH  26  27
HETATM   27  C2  UNL     1      18.609  -1.990  53.795  1.00  0.00     0.022 C 
HETATM   28  C1  UNL     1      17.617  -1.186  52.987  1.00  0.00     0.009 C 
ENDBRANCH  26  27
ENDBRANCH   1  25
TORSDOF 7
ENDMDL
MODEL 5
REMARK VINA RESULT:      -7.4      3.611      7.668
REMARK  7 active torsions:
REMARK  status: ('A' for Active; 'I' for Inactive)
REMARK    1  A    between atoms: C2_2  and  C3_3 
REMARK    2  A    between atoms: C4_4  and  C5_5 
REMARK    3  A    between atoms: N2_7  and  C6_8 
REMARK    4  A    between atoms: C6_8  and  S1_9 
REMARK    5  A    between atoms: S1_9  and  C7_10 
REMARK    6  A    between atoms: C13_18  and  C14_19 
REMARK    7  A    between atoms: C17_22  and  O1_23 
ROOT
HETATM    1  C5  UNL     1      23.975   3.765  50.001  1.00  0.00     0.056 C 
HETATM    2  N1  UNL     1      23.046   3.327  50.765  1.00  0.00    -0.180 NA
HETATM    3  N2  UNL     1      23.520   2.338  51.652  1.00  0.00    -0.286 N 
HETATM    4  C13 UNL     1      24.889   2.771  51.828  1.00  0.00     0.143 C 
HETATM    5  C21 UNL     1      25.226   3.042  50.354  1.00  0.00     0.093 C 
ENDROOT
BRANCH   3   6
HETATM    6  C6  UNL     1      22.775   1.218  52.195  1.00  0.00     0.223 C 
BRANCH   6   7
HETATM    7  S1  UNL     1      20.999   1.476  52.203  1.00  0.00    -0.118 SA
BRANCH   7   8
HETATM    8  C7  UNL     1      20.264   0.241  53.263  1.00  0.00     0.071 C 
HETATM    9  C8  UNL     1      19.164  -0.417  52.953  1.00  0.00     0.015 C 
HETATM   10  C9  UNL     1      18.501  -0.119  51.657  1.00  0.00     0.085 C 
HETATM   11  N3  UNL     1      18.691  -1.372  53.893  1.00  0.00    -0.387 N 
HETATM   12  C10 UNL     1      17.095  -0.648  51.657  1.00  0.00     0.000 C 
HETATM   13  C11 UNL     1      16.751  -1.629  52.489  1.00  0.00     0.026 C 
HETATM   14 CL1  UNL     1      15.068  -2.175  52.405  1.00  0.00    -0.087 Cl
HETATM   15  C12 UNL     1      17.660  -2.290  53.467  1.00  0.00     0.170 C 
HETATM   16  H16 UNL     1      19.103  -1.385  54.870  1.00  0.00     0.159 HD
ENDBRANCH   7   8
ENDBRANCH   6   7
ENDBRANCH   3   6
BRANCH   4  17
HETATM   17  C14 UNL     1      25.777   1.797  52.449  1.00  0.00    -0.033 A 
HETATM   18  C15 UNL     1      26.380   0.802  51.688  1.00  0.00     0.012 A 
HETATM   19  C16 UNL     1      27.215  -0.100  52.326  1.00  0.00     0.037 A 
HETATM   20  C17 UNL     1      27.477  -0.054  53.700  1.00  0.00     0.068 A 
HETATM   21  C19 UNL     1      26.857   0.952  54.424  1.00  0.00     0.037 A 
HETATM   22  C20 UNL     1      26.019   1.863  53.801  1.00  0.00     0.012 A 
BRANCH  20  23
HETATM   23  O1  UNL     1      28.331  -1.011  54.236  1.00  0.00    -0.356 OA
HETATM   24  C18 UNL     1      29.562  -1.231  53.586  1.00  0.00     0.210 C 
ENDBRANCH  20  23
ENDBRANCH   4  17
BRANCH   1  25
HETATM   25  C4  UNL     1      23.849   4.787  48.967  1.00  0.00     0.025 C 
HETATM   26  C3  UNL     1      24.600   5.876  49.019  1.00  0.00    -0.025 C 
BRANCH  26  27
HETATM   27  C2  UNL     1      24.470   6.927  47.954  1.00  0.00     0.022 C 
HETATM   28  C1  UNL     1      23.400   7.937  48.299  1.00  0.00     0.009 C 
ENDBRANCH  26  27
ENDBRANCH   1  25
TORSDOF 7
ENDMDL
MODEL 6
REMARK VINA RESULT:      -7.4      2.913      6.252
REMARK  7 active torsions:
REMARK  status: ('A' for Active; 'I' for Inactive)
REMARK    1  A    between atoms: C2_2  and  C3_3 
REMARK    2  A    between atoms: C4_4  and  C5_5 
REMARK    3  A    between atoms: N2_7  and  C6_8 
REMARK    4  A    between atoms: C6_8  and  S1_9 
REMARK    5  A    between atoms: S1_9  and  C7_10 
REMARK    6  A    between atoms: C13_18  and  C14_19 
REMARK    7  A    between atoms: C17_22  and  O1_23 
ROOT
HETATM    1  C5  UNL     1      26.103   0.903  52.783  1.00  0.00     0.056 C 
HETATM    2  N1  UNL     1      25.746   2.100  53.067  1.00  0.00    -0.180 NA
HETATM    3  N2  UNL     1      24.356   2.283  52.912  1.00  0.00    -0.286 N 
HETATM    4  C13 UNL     1      23.876   0.955  53.228  1.00  0.00     0.143 C 
HETATM    5  C21 UNL     1      24.881   0.151  52.390  1.00  0.00     0.093 C 
ENDROOT
BRANCH   3   6
HETATM    6  C6  UNL     1      23.670   3.504  52.535  1.00  0.00     0.223 C 
BRANCH   6   7
HETATM    7  S1  UNL     1      23.678   3.813  50.767  1.00  0.00    -0.118 SA
BRANCH   7   8
HETATM    8  C7  UNL     1      25.177   4.696  50.365  1.00  0.00     0.071 C 
HETATM    9  C8  UNL     1      25.214   5.995  50.139  1.00  0.00     0.015 C 
HETATM   10  C9  UNL     1      23.946   6.765  50.223  1.00  0.00     0.085 C 
HETATM   11  N3  UNL     1      26.477   6.565  49.829  1.00  0.00    -0.387 N 
HETATM   12  C10 UNL     1      24.105   8.104  49.561  1.00  0.00     0.000 C 
HETATM   13  C11 UNL     1      25.318   8.633  49.407  1.00  0.00     0.026 C 
HETATM   14 CL1  UNL     1      25.389  10.215  48.613  1.00  0.00    -0.087 Cl
HETATM   15  C12 UNL     1      26.595   8.005  49.846  1.00  0.00     0.170 C 
HETATM   16  H16 UNL     1      27.291   5.925  49.596  1.00  0.00     0.159 HD
ENDBRANCH   7   8
ENDBRANCH   6   7
ENDBRANCH   3   6
BRANCH   4  17
HETATM   17  C14 UNL     1      22.489   0.692  52.867  1.00  0.00    -0.033 A 
HETATM   18  C15 UNL     1      22.108   0.609  51.532  1.00  0.00     0.012 A 
HETATM   19  C16 UNL     1      20.778   0.358  51.241  1.00  0.00     0.037 A 
HETATM   20  C17 UNL     1      19.802   0.184  52.230  1.00  0.00     0.068 A 
HETATM   21  C19 UNL     1      20.221   0.274  53.548  1.00  0.00     0.037 A 
HETATM   22  C20 UNL     1      21.549   0.525  53.856  1.00  0.00     0.012 A 
BRANCH  20  23
HETATM   23  O1  UNL     1      18.496  -0.063  51.825  1.00  0.00    -0.356 OA
HETATM   24  C18 UNL     1      17.720   1.035  51.401  1.00  0.00     0.210 C 
ENDBRANCH  20  23
ENDBRANCH   4  17
BRANCH   1  25
HETATM   25  C4  UNL     1      27.456   0.359  52.831  1.00  0.00     0.025 C 
HETATM   26  C3  UNL     1      28.351   0.884  53.654  1.00  0.00    -0.025 C 
BRANCH  26  27
HETATM   27  C2  UNL     1      29.743   0.323  53.703  1.00  0.00     0.022 C 
HETATM   28  C1  UNL     1      29.759  -1.151  53.374  1.00  0.00     0.009 C 
ENDBRANCH  26  27
ENDBRANCH   1  25
TORSDOF 7
ENDMDL
MODEL 7
REMARK VINA RESULT:      -7.4      3.281      7.831
REMARK  7 active torsions:
REMARK  status: ('A' for Active; 'I' for Inactive)
REMARK    1  A    between atoms: C2_2  and  C3_3 
REMARK    2  A    between atoms: C4_4  and  C5_5 
REMARK    3  A    between atoms: N2_7  and  C6_8 
REMARK    4  A    between atoms: C6_8  and  S1_9 
REMARK    5  A    between atoms: S1_9  and  C7_10 
REMARK    6  A    between atoms: C13_18  and  C14_19 
REMARK    7  A    between atoms: C17_22  and  O1_23 
ROOT
HETATM    1  C5  UNL     1      26.222   5.002  49.063  1.00  0.00     0.056 C 
HETATM    2  N1  UNL     1      24.954   4.853  48.970  1.00  0.00    -0.180 NA
HETATM    3  N2  UNL     1      24.502   3.742  49.713  1.00  0.00    -0.286 N 
HETATM    4  C13 UNL     1      25.472   3.726  50.785  1.00  0.00     0.143 C 
HETATM    5  C21 UNL     1      26.739   3.917  49.941  1.00  0.00     0.093 C 
ENDROOT
BRANCH   3   6
HETATM    6  C6  UNL     1      23.363   2.894  49.415  1.00  0.00     0.223 C 
BRANCH   6   7
HETATM    7  S1  UNL     1      21.800   3.565  49.989  1.00  0.00    -0.118 SA
BRANCH   7   8
HETATM    8  C7  UNL     1      21.507   2.955  51.641  1.00  0.00     0.071 C 
HETATM    9  C8  UNL     1      20.804   1.870  51.898  1.00  0.00     0.015 C 
HETATM   10  C9  UNL     1      20.225   1.115  50.757  1.00  0.00     0.085 C 
HETATM   11  N3  UNL     1      20.651   1.501  53.261  1.00  0.00    -0.387 N 
HETATM   12  C10 UNL     1      19.156   0.177  51.242  1.00  0.00     0.000 C 
HETATM   13  C11 UNL     1      19.143  -0.221  52.513  1.00  0.00     0.026 C 
HETATM   14 CL1  UNL     1      17.839  -1.326  52.976  1.00  0.00    -0.087 Cl
HETATM   15  C12 UNL     1      20.126   0.188  53.555  1.00  0.00     0.170 C 
HETATM   16  H16 UNL     1      20.923   2.193  54.018  1.00  0.00     0.159 HD
ENDBRANCH   7   8
ENDBRANCH   6   7
ENDBRANCH   3   6
BRANCH   4  17
HETATM   17  C14 UNL     1      25.495   2.508  51.586  1.00  0.00    -0.033 A 
HETATM   18  C15 UNL     1      26.385   1.482  51.287  1.00  0.00     0.012 A 
HETATM   19  C16 UNL     1      26.368   0.345  52.078  1.00  0.00     0.037 A 
HETATM   20  C17 UNL     1      25.497   0.184  53.161  1.00  0.00     0.068 A 
HETATM   21  C19 UNL     1      24.626   1.229  53.426  1.00  0.00     0.037 A 
HETATM   22  C20 UNL     1      24.630   2.373  52.645  1.00  0.00     0.012 A 
BRANCH  20  23
HETATM   23  O1  UNL     1      25.565  -0.999  53.887  1.00  0.00    -0.356 OA
HETATM   24  C18 UNL     1      24.815  -1.085  55.077  1.00  0.00     0.210 C 
ENDBRANCH  20  23
ENDBRANCH   4  17
BRANCH   1  25
HETATM   25  C4  UNL     1      27.030   6.040  48.431  1.00  0.00     0.025 C 
HETATM   26  C3  UNL     1      28.325   5.843  48.239  1.00  0.00    -0.025 C 
BRANCH  26  27
HETATM   27  C2  UNL     1      29.156   6.912  47.587  1.00  0.00     0.022 C 
HETATM   28  C1  UNL     1      29.788   7.825  48.611  1.00  0.00     0.009 C 
ENDBRANCH  26  27
ENDBRANCH   1  25
TORSDOF 7
ENDMDL
MODEL 8
REMARK VINA RESULT:      -7.4      3.615      6.727
REMARK  7 active torsions:
REMARK  status: ('A' for Active; 'I' for Inactive)
REMARK    1  A    between atoms: C2_2  and  C3_3 
REMARK    2  A    between atoms: C4_4  and  C5_5 
REMARK    3  A    between atoms: N2_7  and  C6_8 
REMARK    4  A    between atoms: C6_8  and  S1_9 
REMARK    5  A    between atoms: S1_9  and  C7_10 
REMARK    6  A    between atoms: C13_18  and  C14_19 
REMARK    7  A    between atoms: C17_22  and  O1_23 
ROOT
HETATM    1  C5  UNL     1      26.309   0.421  52.828  1.00  0.00     0.056 C 
HETATM    2  N1  UNL     1      25.148  -0.119  52.853  1.00  0.00    -0.180 NA
HETATM    3  N2  UNL     1      24.127   0.824  52.611  1.00  0.00    -0.286 N 
HETATM    4  C13 UNL     1      24.820   1.752  51.745  1.00  0.00     0.143 C 
HETATM    5  C21 UNL     1      26.124   1.871  52.547  1.00  0.00     0.093 C 
ENDROOT
BRANCH   3   6
HETATM    6  C6  UNL     1      22.772   0.799  53.129  1.00  0.00     0.223 C 
BRANCH   6   7
HETATM    7  S1  UNL     1      21.561   0.220  51.938  1.00  0.00    -0.118 SA
BRANCH   7   8
HETATM    8  C7  UNL     1      20.775   1.648  51.208  1.00  0.00     0.071 C 
HETATM    9  C8  UNL     1      20.911   1.979  49.939  1.00  0.00     0.015 C 
HETATM   10  C9  UNL     1      21.761   1.124  49.071  1.00  0.00     0.085 C 
HETATM   11  N3  UNL     1      20.228   3.142  49.494  1.00  0.00    -0.387 N 
HETATM   12  C10 UNL     1      22.117   1.855  47.807  1.00  0.00     0.000 C 
HETATM   13  C11 UNL     1      21.360   2.867  47.386  1.00  0.00     0.026 C 
HETATM   14 CL1  UNL     1      21.871   3.657  45.885  1.00  0.00    -0.087 Cl
HETATM   15  C12 UNL     1      20.138   3.373  48.070  1.00  0.00     0.170 C 
HETATM   16  H16 UNL     1      19.807   3.802  50.210  1.00  0.00     0.159 HD
ENDBRANCH   7   8
ENDBRANCH   6   7
ENDBRANCH   3   6
BRANCH   4  17
HETATM   17  C14 UNL     1      24.154   3.032  51.543  1.00  0.00    -0.033 A 
HETATM   18  C15 UNL     1      24.083   3.601  50.276  1.00  0.00     0.012 A 
HETATM   19  C16 UNL     1      23.439   4.818  50.136  1.00  0.00     0.037 A 
HETATM   20  C17 UNL     1      22.857   5.500  51.211  1.00  0.00     0.068 A 
HETATM   21  C19 UNL     1      22.949   4.900  52.457  1.00  0.00     0.037 A 
HETATM   22  C20 UNL     1      23.589   3.682  52.614  1.00  0.00     0.012 A 
BRANCH  20  23
HETATM   23  O1  UNL     1      22.237   6.717  50.957  1.00  0.00    -0.356 OA
HETATM   24  C18 UNL     1      22.741   7.504  49.902  1.00  0.00     0.210 C 
ENDBRANCH  20  23
ENDBRANCH   4  17
BRANCH   1  25
HETATM   25  C4  UNL     1      27.590  -0.247  53.036  1.00  0.00     0.025 C 
HETATM   26  C3  UNL     1      27.677  -1.562  52.907  1.00  0.00    -0.025 C 
BRANCH  26  27
HETATM   27  C2  UNL     1      28.996  -2.249  53.120  1.00  0.00     0.022 C 
HETATM   28  C1  UNL     1      30.025  -1.307  53.699  1.00  0.00     0.009 C 
ENDBRANCH  26  27
ENDBRANCH   1  25
TORSDOF 7
ENDMDL
MODEL 9
REMARK VINA RESULT:      -7.2      4.297      7.152
REMARK  7 active torsions:
REMARK  status: ('A' for Active; 'I' for Inactive)
REMARK    1  A    between atoms: C2_2  and  C3_3 
REMARK    2  A    between atoms: C4_4  and  C5_5 
REMARK    3  A    between atoms: N2_7  and  C6_8 
REMARK    4  A    between atoms: C6_8  and  S1_9 
REMARK    5  A    between atoms: S1_9  and  C7_10 
REMARK    6  A    between atoms: C13_18  and  C14_19 
REMARK    7  A    between atoms: C17_22  and  O1_23 
ROOT
HETATM    1  C5  UNL     1      23.078   1.478  51.299  1.00  0.00     0.056 C 
HETATM    2  N1  UNL     1      22.699   1.609  50.083  1.00  0.00    -0.180 NA
HETATM    3  N2  UNL     1      22.992   2.894  49.579  1.00  0.00    -0.286 N 
HETATM    4  C13 UNL     1      24.186   3.210  50.332  1.00  0.00     0.143 C 
HETATM    5  C21 UNL     1      23.697   2.765  51.718  1.00  0.00     0.093 C 
ENDROOT
BRANCH   3   6
HETATM    6  C6  UNL     1      22.248   3.632  48.575  1.00  0.00     0.223 C 
BRANCH   6   7
HETATM    7  S1  UNL     1      20.591   4.081  49.098  1.00  0.00    -0.118 SA
BRANCH   7   8
HETATM    8  C7  UNL     1      19.525   2.675  48.830  1.00  0.00     0.071 C 
HETATM    9  C8  UNL     1      19.094   1.896  49.804  1.00  0.00     0.015 C 
HETATM   10  C9  UNL     1      19.517   2.203  51.195  1.00  0.00     0.085 C 
HETATM   11  N3  UNL     1      18.250   0.812  49.445  1.00  0.00    -0.387 N 
HETATM   12  C10 UNL     1      19.274   1.018  52.086  1.00  0.00     0.000 C 
HETATM   13  C11 UNL     1      18.379   0.095  51.741  1.00  0.00     0.026 C 
HETATM   14 CL1  UNL     1      18.173  -1.259  52.864  1.00  0.00    -0.087 Cl
HETATM   15  C12 UNL     1      17.552   0.116  50.501  1.00  0.00     0.170 C 
HETATM   16  H16 UNL     1      18.157   0.545  48.423  1.00  0.00     0.159 HD
ENDBRANCH   7   8
ENDBRANCH   6   7
ENDBRANCH   3   6
BRANCH   4  17
HETATM   17  C14 UNL     1      24.597   4.608  50.291  1.00  0.00    -0.033 A 
HETATM   18  C15 UNL     1      25.606   5.023  49.430  1.00  0.00     0.012 A 
HETATM   19  C16 UNL     1      25.960   6.362  49.429  1.00  0.00     0.037 A 
HETATM   20  C17 UNL     1      25.349   7.313  50.254  1.00  0.00     0.068 A 
HETATM   21  C19 UNL     1      24.347   6.858  51.098  1.00  0.00     0.037 A 
HETATM   22  C20 UNL     1      23.981   5.522  51.111  1.00  0.00     0.012 A 
BRANCH  20  23
HETATM   23  O1  UNL     1      25.784   8.630  50.171  1.00  0.00    -0.356 OA
HETATM   24  C18 UNL     1      27.167   8.857  50.024  1.00  0.00     0.210 C 
ENDBRANCH  20  23
ENDBRANCH   4  17
BRANCH   1  25
HETATM   25  C4  UNL     1      22.938   0.292  52.137  1.00  0.00     0.025 C 
HETATM   26  C3  UNL     1      22.984   0.405  53.456  1.00  0.00    -0.025 C 
BRANCH  26  27
HETATM   27  C2  UNL     1      22.839  -0.817  54.317  1.00  0.00     0.022 C 
HETATM   28  C1  UNL     1      21.391  -1.094  54.647  1.00  0.00     0.009 C 
ENDBRANCH  26  27
ENDBRANCH   1  25
TORSDOF 7
ENDMDL
