MODEL 1
REMARK VINA RESULT:      -8.0      0.000      0.000
REMARK  11 active torsions:
REMARK  status: ('A' for Active; 'I' for Inactive)
REMARK    1  A    between atoms: C2_2  and  N1_3 
REMARK    2  A    between atoms: N1_3  and  C3_4 
REMARK    3  A    between atoms: N1_3  and  C5_7 
REMARK    4  A    between atoms: C3_4  and  C4_5 
REMARK    5  A    between atoms: C4_5  and  O1_6 
REMARK    6  A    between atoms: C5_7  and  C6_8 
REMARK    7  A    between atoms: C6_8  and  O2_9 
REMARK    8  A    between atoms: O2_9  and  C7_10 
REMARK    9  A    between atoms: C10_13  and  N2_14 
REMARK   10  A    between atoms: N2_14  and  C11_15 
REMARK   11  A    between atoms: C20_28  and  O3_29 
ROOT
HETATM    1  C7  UNL     1      24.035   0.707  53.065  1.00  0.00     0.103 A 
HETATM    2  C8  UNL     1      24.455   1.671  52.181  1.00  0.00     0.057 A 
HETATM    3  C9  UNL     1      23.801   2.095  51.052  1.00  0.00     0.042 A 
HETATM    4  C10 UNL     1      24.329   3.074  50.246  1.00  0.00     0.142 A 
HETATM    5  N3  UNL     1      23.583   3.380  49.190  1.00  0.00    -0.224 NA
HETATM    6  C17 UNL     1      22.411   2.800  48.910  1.00  0.00     0.236 A 
HETATM    7  N4  UNL     1      21.885   1.827  49.713  1.00  0.00    -0.241 NA
HETATM    8  C18 UNL     1      22.599   1.472  50.804  1.00  0.00     0.075 A 
HETATM    9  C19 UNL     1      22.079   0.492  51.619  1.00  0.00     0.072 A 
HETATM   10  C20 UNL     1      22.806   0.113  52.752  1.00  0.00     0.103 A 
ENDROOT
BRANCH   1  11
HETATM   11  O2  UNL     1      24.527   0.168  54.206  1.00  0.00    -0.347 OA
BRANCH  11  12
HETATM   12  C6  UNL     1      25.710  -0.535  54.390  1.00  0.00     0.195 C 
BRANCH  12  13
HETATM   13  C5  UNL     1      26.920   0.265  54.733  1.00  0.00     0.149 C 
BRANCH  13  14
HETATM   14  N1  UNL     1      27.993   0.019  53.759  1.00  0.00    -0.387 N 
BRANCH  14  15
HETATM   15  C2  UNL     1      28.987   1.053  53.719  1.00  0.00     0.075 C 
HETATM   16  C1  UNL     1      28.477   2.283  53.668  1.00  0.00     0.029 C 
ENDBRANCH  14  15
BRANCH  14  17
HETATM   17  C3  UNL     1      27.901  -1.196  52.999  1.00  0.00     0.148 C 
BRANCH  17  18
HETATM   18  C4  UNL     1      29.083  -2.124  53.283  1.00  0.00     0.183 C 
BRANCH  18  19
HETATM   19  O1  UNL     1      28.570  -3.410  53.370  1.00  0.00    -0.399 OA
HETATM   20  H8  UNL     1      27.605  -3.315  53.614  1.00  0.00     0.209 HD
ENDBRANCH  18  19
ENDBRANCH  17  18
ENDBRANCH  14  17
ENDBRANCH  13  14
ENDBRANCH  12  13
ENDBRANCH  11  12
ENDBRANCH   1  11
BRANCH  10  21
HETATM   21  O3  UNL     1      22.175  -0.894  53.505  1.00  0.00    -0.353 OA
HETATM   22  C21 UNL     1      21.392  -0.618  54.621  1.00  0.00     0.210 C 
ENDBRANCH  10  21
BRANCH   4  23
HETATM   23  N2  UNL     1      25.575   3.685  50.522  1.00  0.00    -0.340 N 
HETATM   24  H14 UNL     1      26.182   3.399  51.315  1.00  0.00     0.167 HD
BRANCH  23  25
HETATM   25  C11 UNL     1      26.179   4.744  49.801  1.00  0.00     0.035 A 
HETATM   26  C12 UNL     1      27.236   4.589  48.938  1.00  0.00     0.032 A 
HETATM   27  C13 UNL     1      27.849   5.604  48.238  1.00  0.00     0.046 A 
HETATM   28  C14 UNL     1      27.392   6.894  48.391  1.00  0.00     0.138 A 
HETATM   29  F1  UNL     1      27.949   7.935  47.735  1.00  0.00    -0.204 F 
HETATM   30  C15 UNL     1      26.336   7.117  49.241  1.00  0.00     0.074 A 
HETATM   31 CL1  UNL     1      25.713   8.742  49.476  1.00  0.00    -0.081 Cl
HETATM   32  C16 UNL     1      25.772   6.055  49.906  1.00  0.00     0.056 A 
ENDBRANCH  23  25
ENDBRANCH   4  23
TORSDOF 11
ENDMDL
MODEL 2
REMARK VINA RESULT:      -7.9      3.962      6.773
REMARK  11 active torsions:
REMARK  status: ('A' for Active; 'I' for Inactive)
REMARK    1  A    between atoms: C2_2  and  N1_3 
REMARK    2  A    between atoms: N1_3  and  C3_4 
REMARK    3  A    between atoms: N1_3  and  C5_7 
REMARK    4  A    between atoms: C3_4  and  C4_5 
REMARK    5  A    between atoms: C4_5  and  O1_6 
REMARK    6  A    between atoms: C5_7  and  C6_8 
REMARK    7  A    between atoms: C6_8  and  O2_9 
REMARK    8  A    between atoms: O2_9  and  C7_10 
REMARK    9  A    between atoms: C10_13  and  N2_14 
REMARK   10  A    between atoms: N2_14  and  C11_15 
REMARK   11  A    between atoms: C20_28  and  O3_29 
ROOT
HETATM    1  C7  UNL     1      21.054   0.697  51.478  1.00  0.00     0.103 A 
HETATM    2  C8  UNL     1      22.307   0.507  52.010  1.00  0.00     0.057 A 
HETATM    3  C9  UNL     1      22.615  -0.139  53.181  1.00  0.00     0.042 A 
HETATM    4  C10 UNL     1      23.916  -0.265  53.605  1.00  0.00     0.142 A 
HETATM    5  N3  UNL     1      24.059  -0.914  54.756  1.00  0.00    -0.224 NA
HETATM    6  C17 UNL     1      23.042  -1.413  55.463  1.00  0.00     0.236 A 
HETATM    7  N4  UNL     1      21.747  -1.289  55.041  1.00  0.00    -0.241 NA
HETATM    8  C18 UNL     1      21.537  -0.638  53.876  1.00  0.00     0.075 A 
HETATM    9  C19 UNL     1      20.238  -0.505  53.441  1.00  0.00     0.072 A 
HETATM   10  C20 UNL     1      20.004   0.166  52.236  1.00  0.00     0.103 A 
ENDROOT
BRANCH   1  11
HETATM   11  O2  UNL     1      20.563   1.289  50.365  1.00  0.00    -0.347 OA
BRANCH  11  12
HETATM   12  C6  UNL     1      20.479   2.644  50.070  1.00  0.00     0.195 C 
BRANCH  12  13
HETATM   13  C5  UNL     1      21.744   3.321  49.665  1.00  0.00     0.149 C 
BRANCH  13  14
HETATM   14  N1  UNL     1      22.227   4.195  50.744  1.00  0.00    -0.387 N 
BRANCH  14  15
HETATM   15  C2  UNL     1      21.260   5.158  51.186  1.00  0.00     0.075 C 
HETATM   16  C1  UNL     1      21.539   6.406  50.813  1.00  0.00     0.029 C 
ENDBRANCH  14  15
BRANCH  14  17
HETATM   17  C3  UNL     1      23.570   3.969  51.197  1.00  0.00     0.148 C 
BRANCH  17  18
HETATM   18  C4  UNL     1      23.674   4.084  52.718  1.00  0.00     0.183 C 
BRANCH  18  19
HETATM   19  O1  UNL     1      24.750   3.298  53.106  1.00  0.00    -0.399 OA
HETATM   20  H8  UNL     1      24.366   2.440  53.447  1.00  0.00     0.209 HD
ENDBRANCH  18  19
ENDBRANCH  17  18
ENDBRANCH  14  17
ENDBRANCH  13  14
ENDBRANCH  12  13
ENDBRANCH  11  12
ENDBRANCH   1  11
BRANCH  10  21
HETATM   21  O3  UNL     1      18.640   0.237  51.897  1.00  0.00    -0.353 OA
HETATM   22  C21 UNL     1      17.694  -0.653  52.397  1.00  0.00     0.210 C 
ENDBRANCH  10  21
BRANCH   4  23
HETATM   23  N2  UNL     1      25.002   0.272  52.873  1.00  0.00    -0.340 N 
HETATM   24  H14 UNL     1      24.878   0.929  52.078  1.00  0.00     0.167 HD
BRANCH  23  25
HETATM   25  C11 UNL     1      26.378   0.016  53.088  1.00  0.00     0.035 A 
HETATM   26  C12 UNL     1      26.998  -1.175  52.802  1.00  0.00     0.032 A 
HETATM   27  C13 UNL     1      28.330  -1.453  53.015  1.00  0.00     0.046 A 
HETATM   28  C14 UNL     1      29.136  -0.479  53.561  1.00  0.00     0.138 A 
HETATM   29  F1  UNL     1      30.451  -0.686  53.798  1.00  0.00    -0.204 F 
HETATM   30  C15 UNL     1      28.578   0.737  53.870  1.00  0.00     0.074 A 
HETATM   31 CL1  UNL     1      29.559   2.014  54.569  1.00  0.00    -0.081 Cl
HETATM   32  C16 UNL     1      27.241   0.943  53.628  1.00  0.00     0.056 A 
ENDBRANCH  23  25
ENDBRANCH   4  23
TORSDOF 11
ENDMDL
MODEL 3
REMARK VINA RESULT:      -7.9      1.064      1.904
REMARK  11 active torsions:
REMARK  status: ('A' for Active; 'I' for Inactive)
REMARK    1  A    between atoms: C2_2  and  N1_3 
REMARK    2  A    between atoms: N1_3  and  C3_4 
REMARK    3  A    between atoms: N1_3  and  C5_7 
REMARK    4  A    between atoms: C3_4  and  C4_5 
REMARK    5  A    between atoms: C4_5  and  O1_6 
REMARK    6  A    between atoms: C5_7  and  C6_8 
REMARK    7  A    between atoms: C6_8  and  O2_9 
REMARK    8  A    between atoms: O2_9  and  C7_10 
REMARK    9  A    between atoms: C10_13  and  N2_14 
REMARK   10  A    between atoms: N2_14  and  C11_15 
REMARK   11  A    between atoms: C20_28  and  O3_29 
ROOT
HETATM    1  C7  UNL     1      24.345   0.265  53.208  1.00  0.00     0.103 A 
HETATM    2  C8  UNL     1      24.643   1.238  52.285  1.00  0.00     0.057 A 
HETATM    3  C9  UNL     1      23.803   1.752  51.330  1.00  0.00     0.042 A 
HETATM    4  C10 UNL     1      24.223   2.730  50.460  1.00  0.00     0.142 A 
HETATM    5  N3  UNL     1      23.300   3.129  49.593  1.00  0.00    -0.224 NA
HETATM    6  C17 UNL     1      22.057   2.639  49.545  1.00  0.00     0.236 A 
HETATM    7  N4  UNL     1      21.638   1.667  50.411  1.00  0.00    -0.241 NA
HETATM    8  C18 UNL     1      22.534   1.219  51.318  1.00  0.00     0.075 A 
HETATM    9  C19 UNL     1      22.124   0.239  52.194  1.00  0.00     0.072 A 
HETATM   10  C20 UNL     1      23.039  -0.234  53.140  1.00  0.00     0.103 A 
ENDROOT
BRANCH   1  11
HETATM   11  O2  UNL     1      25.022  -0.354  54.204  1.00  0.00    -0.347 OA
BRANCH  11  12
HETATM   12  C6  UNL     1      26.365  -0.240  54.539  1.00  0.00     0.195 C 
BRANCH  12  13
HETATM   13  C5  UNL     1      27.351  -0.555  53.466  1.00  0.00     0.149 C 
BRANCH  13  14
HETATM   14  N1  UNL     1      28.716  -0.239  53.915  1.00  0.00    -0.387 N 
BRANCH  14  15
HETATM   15  C2  UNL     1      29.680  -1.252  53.592  1.00  0.00     0.075 C 
HETATM   16  C1  UNL     1      29.135  -2.395  53.176  1.00  0.00     0.029 C 
ENDBRANCH  14  15
BRANCH  14  17
HETATM   17  C3  UNL     1      28.891   1.011  54.597  1.00  0.00     0.148 C 
BRANCH  17  18
HETATM   18  C4  UNL     1      28.765   2.195  53.637  1.00  0.00     0.183 C 
BRANCH  18  19
HETATM   19  O1  UNL     1      27.691   2.955  54.079  1.00  0.00    -0.399 OA
HETATM   20  H8  UNL     1      28.003   3.905  54.096  1.00  0.00     0.209 HD
ENDBRANCH  18  19
ENDBRANCH  17  18
ENDBRANCH  14  17
ENDBRANCH  13  14
ENDBRANCH  12  13
ENDBRANCH  11  12
ENDBRANCH   1  11
BRANCH  10  21
HETATM   21  O3  UNL     1      22.506  -1.231  53.977  1.00  0.00    -0.353 OA
HETATM   22  C21 UNL     1      21.180  -1.226  54.400  1.00  0.00     0.210 C 
ENDBRANCH  10  21
BRANCH   4  23
HETATM   23  N2  UNL     1      25.540   3.247  50.490  1.00  0.00    -0.340 N 
HETATM   24  H14 UNL     1      26.319   2.781  50.994  1.00  0.00     0.167 HD
BRANCH  23  25
HETATM   25  C11 UNL     1      25.999   4.434  49.868  1.00  0.00     0.035 A 
HETATM   26  C12 UNL     1      27.084   4.499  49.029  1.00  0.00     0.032 A 
HETATM   27  C13 UNL     1      27.558   5.642  48.425  1.00  0.00     0.046 A 
HETATM   28  C14 UNL     1      26.916   6.837  48.659  1.00  0.00     0.138 A 
HETATM   29  F1  UNL     1      27.330   7.996  48.100  1.00  0.00    -0.204 F 
HETATM   30  C15 UNL     1      25.822   6.842  49.490  1.00  0.00     0.074 A 
HETATM   31 CL1  UNL     1      24.967   8.338  49.826  1.00  0.00    -0.081 Cl
HETATM   32  C16 UNL     1      25.405   5.662  50.058  1.00  0.00     0.056 A 
ENDBRANCH  23  25
ENDBRANCH   4  23
TORSDOF 11
ENDMDL
MODEL 4
REMARK VINA RESULT:      -7.8      3.905      6.620
REMARK  11 active torsions:
REMARK  status: ('A' for Active; 'I' for Inactive)
REMARK    1  A    between atoms: C2_2  and  N1_3 
REMARK    2  A    between atoms: N1_3  and  C3_4 
REMARK    3  A    between atoms: N1_3  and  C5_7 
REMARK    4  A    between atoms: C3_4  and  C4_5 
REMARK    5  A    between atoms: C4_5  and  O1_6 
REMARK    6  A    between atoms: C5_7  and  C6_8 
REMARK    7  A    between atoms: C6_8  and  O2_9 
REMARK    8  A    between atoms: O2_9  and  C7_10 
REMARK    9  A    between atoms: C10_13  and  N2_14 
REMARK   10  A    between atoms: N2_14  and  C11_15 
REMARK   11  A    between atoms: C20_28  and  O3_29 
ROOT
HETATM    1  C7  UNL     1      22.045   2.350  51.268  1.00  0.00     0.103 A 
HETATM    2  C8  UNL     1      22.946   1.456  51.792  1.00  0.00     0.057 A 
HETATM    3  C9  UNL     1      22.754   0.629  52.871  1.00  0.00     0.042 A 
HETATM    4  C10 UNL     1      23.741  -0.227  53.298  1.00  0.00     0.142 A 
HETATM    5  N3  UNL     1      23.411  -0.964  54.353  1.00  0.00    -0.224 NA
HETATM    6  C17 UNL     1      22.226  -0.900  54.968  1.00  0.00     0.236 A 
HETATM    7  N4  UNL     1      21.244  -0.050  54.542  1.00  0.00    -0.241 NA
HETATM    8  C18 UNL     1      21.521   0.727  53.472  1.00  0.00     0.075 A 
HETATM    9  C19 UNL     1      20.540   1.589  53.034  1.00  0.00     0.072 A 
HETATM   10  C20 UNL     1      20.810   2.400  51.927  1.00  0.00     0.103 A 
ENDROOT
BRANCH   1  11
HETATM   11  O2  UNL     1      22.049   3.225  50.235  1.00  0.00    -0.347 OA
BRANCH  11  12
HETATM   12  C6  UNL     1      22.889   3.256  49.130  1.00  0.00     0.195 C 
BRANCH  12  13
HETATM   13  C5  UNL     1      23.555   4.555  48.830  1.00  0.00     0.149 C 
BRANCH  13  14
HETATM   14  N1  UNL     1      24.844   4.646  49.532  1.00  0.00    -0.387 N 
BRANCH  14  15
HETATM   15  C2  UNL     1      25.638   3.455  49.442  1.00  0.00     0.075 C 
HETATM   16  C1  UNL     1      26.543   3.341  50.413  1.00  0.00     0.029 C 
ENDBRANCH  14  15
BRANCH  14  17
HETATM   17  C3  UNL     1      25.123   5.888  50.196  1.00  0.00     0.148 C 
BRANCH  17  18
HETATM   18  C4  UNL     1      23.933   6.354  51.036  1.00  0.00     0.183 C 
BRANCH  18  19
HETATM   19  O1  UNL     1      24.438   6.724  52.274  1.00  0.00    -0.399 OA
HETATM   20  H8  UNL     1      25.432   6.771  52.173  1.00  0.00     0.209 HD
ENDBRANCH  18  19
ENDBRANCH  17  18
ENDBRANCH  14  17
ENDBRANCH  13  14
ENDBRANCH  12  13
ENDBRANCH  11  12
ENDBRANCH   1  11
BRANCH  10  21
HETATM   21  O3  UNL     1      19.735   3.235  51.576  1.00  0.00    -0.353 OA
HETATM   22  C21 UNL     1      18.419   2.784  51.523  1.00  0.00     0.210 C 
ENDBRANCH  10  21
BRANCH   4  23
HETATM   23  N2  UNL     1      25.005  -0.294  52.666  1.00  0.00    -0.340 N 
HETATM   24  H14 UNL     1      25.162  -0.789  51.766  1.00  0.00     0.167 HD
BRANCH  23  25
HETATM   25  C11 UNL     1      26.216   0.274  53.129  1.00  0.00     0.035 A 
HETATM   26  C12 UNL     1      26.350   1.575  53.551  1.00  0.00     0.032 A 
HETATM   27  C13 UNL     1      27.519   2.154  53.991  1.00  0.00     0.046 A 
HETATM   28  C14 UNL     1      28.669   1.398  54.024  1.00  0.00     0.138 A 
HETATM   29  F1  UNL     1      29.849   1.905  54.443  1.00  0.00    -0.204 F 
HETATM   30  C15 UNL     1      28.604   0.088  53.615  1.00  0.00     0.074 A 
HETATM   31 CL1  UNL     1      30.040  -0.921  53.635  1.00  0.00    -0.081 Cl
HETATM   32  C16 UNL     1      27.402  -0.423  53.189  1.00  0.00     0.056 A 
ENDBRANCH  23  25
ENDBRANCH   4  23
TORSDOF 11
ENDMDL
MODEL 5
REMARK VINA RESULT:      -7.6      3.459      7.210
REMARK  11 active torsions:
REMARK  status: ('A' for Active; 'I' for Inactive)
REMARK    1  A    between atoms: C2_2  and  N1_3 
REMARK    2  A    between atoms: N1_3  and  C3_4 
REMARK    3  A    between atoms: N1_3  and  C5_7 
REMARK    4  A    between atoms: C3_4  and  C4_5 
REMARK    5  A    between atoms: C4_5  and  O1_6 
REMARK    6  A    between atoms: C5_7  and  C6_8 
REMARK    7  A    between atoms: C6_8  and  O2_9 
REMARK    8  A    between atoms: O2_9  and  C7_10 
REMARK    9  A    between atoms: C10_13  and  N2_14 
REMARK   10  A    between atoms: N2_14  and  C11_15 
REMARK   11  A    between atoms: C20_28  and  O3_29 
ROOT
HETATM    1  C7  UNL     1      26.411   1.354  52.032  1.00  0.00     0.103 A 
HETATM    2  C8  UNL     1      25.205   0.744  52.279  1.00  0.00     0.057 A 
HETATM    3  C9  UNL     1      24.852   0.045  53.406  1.00  0.00     0.042 A 
HETATM    4  C10 UNL     1      23.606  -0.521  53.534  1.00  0.00     0.142 A 
HETATM    5  N3  UNL     1      23.408  -1.165  54.679  1.00  0.00    -0.224 NA
HETATM    6  C17 UNL     1      24.326  -1.270  55.645  1.00  0.00     0.236 A 
HETATM    7  N4  UNL     1      25.565  -0.706  55.519  1.00  0.00    -0.241 NA
HETATM    8  C18 UNL     1      25.826  -0.036  54.375  1.00  0.00     0.075 A 
HETATM    9  C19 UNL     1      27.071   0.535  54.236  1.00  0.00     0.072 A 
HETATM   10  C20 UNL     1      27.357   1.231  53.057  1.00  0.00     0.103 A 
ENDROOT
BRANCH   1  11
HETATM   11  O2  UNL     1      26.933   2.072  51.010  1.00  0.00    -0.347 OA
BRANCH  11  12
HETATM   12  C6  UNL     1      26.513   3.298  50.511  1.00  0.00     0.195 C 
BRANCH  12  13
HETATM   13  C5  UNL     1      25.389   3.275  49.532  1.00  0.00     0.149 C 
BRANCH  13  14
HETATM   14  N1  UNL     1      24.614   4.522  49.609  1.00  0.00    -0.387 N 
BRANCH  14  15
HETATM   15  C2  UNL     1      23.298   4.421  49.046  1.00  0.00     0.075 C 
HETATM   16  C1  UNL     1      22.884   3.166  48.877  1.00  0.00     0.029 C 
ENDBRANCH  14  15
BRANCH  14  17
HETATM   17  C3  UNL     1      25.266   5.643  50.225  1.00  0.00     0.148 C 
BRANCH  17  18
HETATM   18  C4  UNL     1      24.252   6.669  50.733  1.00  0.00     0.183 C 
BRANCH  18  19
HETATM   19  O1  UNL     1      24.504   6.843  52.086  1.00  0.00    -0.399 OA
HETATM   20  H8  UNL     1      24.771   7.799  52.205  1.00  0.00     0.209 HD
ENDBRANCH  18  19
ENDBRANCH  17  18
ENDBRANCH  14  17
ENDBRANCH  13  14
ENDBRANCH  12  13
ENDBRANCH  11  12
ENDBRANCH   1  11
BRANCH  10  21
HETATM   21  O3  UNL     1      28.657   1.768  53.032  1.00  0.00    -0.353 OA
HETATM   22  C21 UNL     1      29.433   1.910  54.178  1.00  0.00     0.210 C 
ENDBRANCH  10  21
BRANCH   4  23
HETATM   23  N2  UNL     1      22.630  -0.430  52.513  1.00  0.00    -0.340 N 
HETATM   24  H14 UNL     1      22.539  -1.132  51.753  1.00  0.00     0.167 HD
BRANCH  23  25
HETATM   25  C11 UNL     1      21.657   0.588  52.358  1.00  0.00     0.035 A 
HETATM   26  C12 UNL     1      20.317   0.355  52.170  1.00  0.00     0.032 A 
HETATM   27  C13 UNL     1      19.354   1.326  52.002  1.00  0.00     0.046 A 
HETATM   28  C14 UNL     1      19.731   2.650  52.018  1.00  0.00     0.138 A 
HETATM   29  F1  UNL     1      18.838   3.652  51.858  1.00  0.00    -0.204 F 
HETATM   30  C15 UNL     1      21.058   2.952  52.203  1.00  0.00     0.074 A 
HETATM   31 CL1  UNL     1      21.595   4.623  52.230  1.00  0.00    -0.081 Cl
HETATM   32  C16 UNL     1      21.963   1.930  52.364  1.00  0.00     0.056 A 
ENDBRANCH  23  25
ENDBRANCH   4  23
TORSDOF 11
ENDMDL
MODEL 6
REMARK VINA RESULT:      -7.6      2.120      2.901
REMARK  11 active torsions:
REMARK  status: ('A' for Active; 'I' for Inactive)
REMARK    1  A    between atoms: C2_2  and  N1_3 
REMARK    2  A    between atoms: N1_3  and  C3_4 
REMARK    3  A    between atoms: N1_3  and  C5_7 
REMARK    4  A    between atoms: C3_4  and  C4_5 
REMARK    5  A    between atoms: C4_5  and  O1_6 
REMARK    6  A    between atoms: C5_7  and  C6_8 
REMARK    7  A    between atoms: C6_8  and  O2_9 
REMARK    8  A    between atoms: O2_9  and  C7_10 
REMARK    9  A    between atoms: C10_13  and  N2_14 
REMARK   10  A    between atoms: N2_14  and  C11_15 
REMARK   11  A    between atoms: C20_28  and  O3_29 
ROOT
HETATM    1  C7  UNL     1      23.428   0.662  52.509  1.00  0.00     0.103 A 
HETATM    2  C8  UNL     1      23.114   1.697  51.662  1.00  0.00     0.057 A 
HETATM    3  C9  UNL     1      21.934   2.395  51.617  1.00  0.00     0.042 A 
HETATM    4  C10 UNL     1      21.743   3.418  50.718  1.00  0.00     0.142 A 
HETATM    5  N3  UNL     1      20.551   4.000  50.793  1.00  0.00    -0.224 NA
HETATM    6  C17 UNL     1      19.598   3.644  51.659  1.00  0.00     0.236 A 
HETATM    7  N4  UNL     1      19.788   2.628  52.554  1.00  0.00    -0.241 NA
HETATM    8  C18 UNL     1      20.982   1.996  52.527  1.00  0.00     0.075 A 
HETATM    9  C19 UNL     1      21.184   0.970  53.423  1.00  0.00     0.072 A 
HETATM   10  C20 UNL     1      22.415   0.306  53.408  1.00  0.00     0.103 A 
ENDROOT
BRANCH   1  11
HETATM   11  O2  UNL     1      24.511  -0.127  52.702  1.00  0.00    -0.347 OA
BRANCH  11  12
HETATM   12  C6  UNL     1      25.853   0.228  52.693  1.00  0.00     0.195 C 
BRANCH  12  13
HETATM   13  C5  UNL     1      26.833  -0.844  53.028  1.00  0.00     0.149 C 
BRANCH  13  14
HETATM   14  N1  UNL     1      28.037  -0.266  53.642  1.00  0.00    -0.387 N 
BRANCH  14  15
HETATM   15  C2  UNL     1      29.205  -1.091  53.515  1.00  0.00     0.075 C 
HETATM   16  C1  UNL     1      28.942  -2.327  53.094  1.00  0.00     0.029 C 
ENDBRANCH  14  15
BRANCH  14  17
HETATM   17  C3  UNL     1      27.883   1.016  54.269  1.00  0.00     0.148 C 
BRANCH  17  18
HETATM   18  C4  UNL     1      28.871   2.038  53.703  1.00  0.00     0.183 C 
BRANCH  18  19
HETATM   19  O1  UNL     1      29.694   2.421  54.753  1.00  0.00    -0.399 OA
HETATM   20  H8  UNL     1      30.228   3.200  54.425  1.00  0.00     0.209 HD
ENDBRANCH  18  19
ENDBRANCH  17  18
ENDBRANCH  14  17
ENDBRANCH  13  14
ENDBRANCH  12  13
ENDBRANCH  11  12
ENDBRANCH   1  11
BRANCH  10  21
HETATM   21  O3  UNL     1      22.503  -0.720  54.366  1.00  0.00    -0.353 OA
HETATM   22  C21 UNL     1      21.556  -1.735  54.469  1.00  0.00     0.210 C 
ENDBRANCH  10  21
BRANCH   4  23
HETATM   23  N2  UNL     1      22.738   3.795  49.786  1.00  0.00    -0.340 N 
HETATM   24  H14 UNL     1      22.854   3.332  48.864  1.00  0.00     0.167 HD
BRANCH  23  25
HETATM   25  C11 UNL     1      23.702   4.821  49.944  1.00  0.00     0.035 A 
HETATM   26  C12 UNL     1      23.536   5.923  50.746  1.00  0.00     0.032 A 
HETATM   27  C13 UNL     1      24.451   6.940  50.903  1.00  0.00     0.046 A 
HETATM   28  C14 UNL     1      25.641   6.881  50.215  1.00  0.00     0.138 A 
HETATM   29  F1  UNL     1      26.581   7.845  50.323  1.00  0.00    -0.204 F 
HETATM   30  C15 UNL     1      25.870   5.803  49.394  1.00  0.00     0.074 A 
HETATM   31 CL1  UNL     1      27.371   5.677  48.491  1.00  0.00    -0.081 Cl
HETATM   32  C16 UNL     1      24.911   4.825  49.287  1.00  0.00     0.056 A 
ENDBRANCH  23  25
ENDBRANCH   4  23
TORSDOF 11
ENDMDL
MODEL 7
REMARK VINA RESULT:      -7.4      4.124      6.719
REMARK  11 active torsions:
REMARK  status: ('A' for Active; 'I' for Inactive)
REMARK    1  A    between atoms: C2_2  and  N1_3 
REMARK    2  A    between atoms: N1_3  and  C3_4 
REMARK    3  A    between atoms: N1_3  and  C5_7 
REMARK    4  A    between atoms: C3_4  and  C4_5 
REMARK    5  A    between atoms: C4_5  and  O1_6 
REMARK    6  A    between atoms: C5_7  and  C6_8 
REMARK    7  A    between atoms: C6_8  and  O2_9 
REMARK    8  A    between atoms: O2_9  and  C7_10 
REMARK    9  A    between atoms: C10_13  and  N2_14 
REMARK   10  A    between atoms: N2_14  and  C11_15 
REMARK   11  A    between atoms: C20_28  and  O3_29 
ROOT
HETATM    1  C7  UNL     1      21.960   3.762  52.284  1.00  0.00     0.103 A 
HETATM    2  C8  UNL     1      23.064   2.974  52.505  1.00  0.00     0.057 A 
HETATM    3  C9  UNL     1      23.073   1.635  52.805  1.00  0.00     0.042 A 
HETATM    4  C10 UNL     1      24.251   0.956  53.004  1.00  0.00     0.142 A 
HETATM    5  N3  UNL     1      24.103  -0.334  53.285  1.00  0.00    -0.224 NA
HETATM    6  C17 UNL     1      22.919  -0.947  53.375  1.00  0.00     0.236 A 
HETATM    7  N4  UNL     1      21.747  -0.273  53.176  1.00  0.00    -0.241 NA
HETATM    8  C18 UNL     1      21.833   1.044  52.886  1.00  0.00     0.075 A 
HETATM    9  C19 UNL     1      20.659   1.735  52.685  1.00  0.00     0.072 A 
HETATM   10  C20 UNL     1      20.731   3.099  52.383  1.00  0.00     0.103 A 
ENDROOT
BRANCH   1  11
HETATM   11  O2  UNL     1      21.755   5.065  51.981  1.00  0.00    -0.347 OA
BRANCH  11  12
HETATM   12  C6  UNL     1      22.056   5.738  50.804  1.00  0.00     0.195 C 
BRANCH  12  13
HETATM   13  C5  UNL     1      23.480   6.128  50.600  1.00  0.00     0.149 C 
BRANCH  13  14
HETATM   14  N1  UNL     1      24.162   5.151  49.739  1.00  0.00    -0.387 N 
BRANCH  14  15
HETATM   15  C2  UNL     1      25.557   4.995  50.034  1.00  0.00     0.075 C 
HETATM   16  C1  UNL     1      26.356   5.277  49.006  1.00  0.00     0.029 C 
ENDBRANCH  14  15
BRANCH  14  17
HETATM   17  C3  UNL     1      23.356   4.502  48.744  1.00  0.00     0.148 C 
BRANCH  17  18
HETATM   18  C4  UNL     1      23.374   2.982  48.915  1.00  0.00     0.183 C 
BRANCH  18  19
HETATM   19  O1  UNL     1      22.051   2.576  49.020  1.00  0.00    -0.399 OA
HETATM   20  H8  UNL     1      21.979   1.710  48.527  1.00  0.00     0.209 HD
ENDBRANCH  18  19
ENDBRANCH  17  18
ENDBRANCH  14  17
ENDBRANCH  13  14
ENDBRANCH  12  13
ENDBRANCH  11  12
ENDBRANCH   1  11
BRANCH  10  21
HETATM   21  O3  UNL     1      19.470   3.694  52.200  1.00  0.00    -0.353 OA
HETATM   22  C21 UNL     1      18.631   3.365  51.139  1.00  0.00     0.210 C 
ENDBRANCH  10  21
BRANCH   4  23
HETATM   23  N2  UNL     1      25.511   1.596  52.926  1.00  0.00    -0.340 N 
HETATM   24  H14 UNL     1      25.622   2.597  52.671  1.00  0.00     0.167 HD
BRANCH  23  25
HETATM   25  C11 UNL     1      26.776   1.010  53.171  1.00  0.00     0.035 A 
HETATM   26  C12 UNL     1      27.878   1.701  53.614  1.00  0.00     0.032 A 
HETATM   27  C13 UNL     1      29.122   1.157  53.844  1.00  0.00     0.046 A 
HETATM   28  C14 UNL     1      29.314  -0.189  53.623  1.00  0.00     0.138 A 
HETATM   29  F1  UNL     1      30.509  -0.786  53.828  1.00  0.00    -0.204 F 
HETATM   30  C15 UNL     1      28.252  -0.938  53.179  1.00  0.00     0.074 A 
HETATM   31 CL1  UNL     1      28.441  -2.657  52.879  1.00  0.00    -0.081 Cl
HETATM   32  C16 UNL     1      27.039  -0.327  52.972  1.00  0.00     0.056 A 
ENDBRANCH  23  25
ENDBRANCH   4  23
TORSDOF 11
ENDMDL
MODEL 8
REMARK VINA RESULT:      -7.3      4.350      7.283
REMARK  11 active torsions:
REMARK  status: ('A' for Active; 'I' for Inactive)
REMARK    1  A    between atoms: C2_2  and  N1_3 
REMARK    2  A    between atoms: N1_3  and  C3_4 
REMARK    3  A    between atoms: N1_3  and  C5_7 
REMARK    4  A    between atoms: C3_4  and  C4_5 
REMARK    5  A    between atoms: C4_5  and  O1_6 
REMARK    6  A    between atoms: C5_7  and  C6_8 
REMARK    7  A    between atoms: C6_8  and  O2_9 
REMARK    8  A    between atoms: O2_9  and  C7_10 
REMARK    9  A    between atoms: C10_13  and  N2_14 
REMARK   10  A    between atoms: N2_14  and  C11_15 
REMARK   11  A    between atoms: C20_28  and  O3_29 
ROOT
HETATM    1  C7  UNL     1      23.047   4.868  51.341  1.00  0.00     0.103 A 
HETATM    2  C8  UNL     1      23.758   3.913  52.027  1.00  0.00     0.057 A 
HETATM    3  C9  UNL     1      23.343   2.644  52.341  1.00  0.00     0.042 A 
HETATM    4  C10 UNL     1      24.154   1.778  53.034  1.00  0.00     0.142 A 
HETATM    5  N3  UNL     1      23.616   0.585  53.265  1.00  0.00    -0.224 NA
HETATM    6  C17 UNL     1      22.391   0.228  52.867  1.00  0.00     0.236 A 
HETATM    7  N4  UNL     1      21.584   1.089  52.176  1.00  0.00    -0.241 NA
HETATM    8  C18 UNL     1      22.076   2.319  51.912  1.00  0.00     0.075 A 
HETATM    9  C19 UNL     1      21.272   3.195  51.218  1.00  0.00     0.072 A 
HETATM   10  C20 UNL     1      21.767   4.473  50.935  1.00  0.00     0.103 A 
ENDROOT
BRANCH   1  11
HETATM   11  O2  UNL     1      23.282   6.140  50.944  1.00  0.00    -0.347 OA
BRANCH  11  12
HETATM   12  C6  UNL     1      24.465   6.865  51.018  1.00  0.00     0.195 C 
BRANCH  12  13
HETATM   13  C5  UNL     1      24.937   7.508  49.759  1.00  0.00     0.149 C 
BRANCH  13  14
HETATM   14  N1  UNL     1      26.295   7.050  49.427  1.00  0.00    -0.387 N 
BRANCH  14  15
HETATM   15  C2  UNL     1      26.403   5.628  49.266  1.00  0.00     0.075 C 
HETATM   16  C1  UNL     1      27.476   5.249  48.573  1.00  0.00     0.029 C 
ENDBRANCH  14  15
BRANCH  14  17
HETATM   17  C3  UNL     1      27.302   8.066  49.311  1.00  0.00     0.148 C 
BRANCH  17  18
HETATM   18  C4  UNL     1      26.867   9.365  49.992  1.00  0.00     0.183 C 
BRANCH  18  19
HETATM   19  O1  UNL     1      27.605   9.469  51.162  1.00  0.00    -0.399 OA
HETATM   20  H8  UNL     1      27.893  10.423  51.234  1.00  0.00     0.209 HD
ENDBRANCH  18  19
ENDBRANCH  17  18
ENDBRANCH  14  17
ENDBRANCH  13  14
ENDBRANCH  12  13
ENDBRANCH  11  12
ENDBRANCH   1  11
BRANCH  10  21
HETATM   21  O3  UNL     1      20.857   5.275  50.223  1.00  0.00    -0.353 OA
HETATM   22  C21 UNL     1      20.519   5.031  48.895  1.00  0.00     0.210 C 
ENDBRANCH  10  21
BRANCH   4  23
HETATM   23  N2  UNL     1      25.447   2.147  53.474  1.00  0.00    -0.340 N 
HETATM   24  H14 UNL     1      25.663   3.080  53.877  1.00  0.00     0.167 HD
BRANCH  23  25
HETATM   25  C11 UNL     1      26.615   1.347  53.440  1.00  0.00     0.035 A 
HETATM   26  C12 UNL     1      27.883   1.816  53.683  1.00  0.00     0.032 A 
HETATM   27  C13 UNL     1      29.034   1.061  53.641  1.00  0.00     0.046 A 
HETATM   28  C14 UNL     1      28.945  -0.278  53.331  1.00  0.00     0.138 A 
HETATM   29  F1  UNL     1      30.035  -1.074  53.271  1.00  0.00    -0.204 F 
HETATM   30  C15 UNL     1      27.705  -0.810  53.076  1.00  0.00     0.074 A 
HETATM   31 CL1  UNL     1      27.533  -2.511  52.675  1.00  0.00    -0.081 Cl
HETATM   32  C16 UNL     1      26.599   0.004  53.138  1.00  0.00     0.056 A 
ENDBRANCH  23  25
ENDBRANCH   4  23
TORSDOF 11
ENDMDL
MODEL 9
REMARK VINA RESULT:      -7.3      4.582      7.844
REMARK  11 active torsions:
REMARK  status: ('A' for Active; 'I' for Inactive)
REMARK    1  A    between atoms: C2_2  and  N1_3 
REMARK    2  A    between atoms: N1_3  and  C3_4 
REMARK    3  A    between atoms: N1_3  and  C5_7 
REMARK    4  A    between atoms: C3_4  and  C4_5 
REMARK    5  A    between atoms: C4_5  and  O1_6 
REMARK    6  A    between atoms: C5_7  and  C6_8 
REMARK    7  A    between atoms: C6_8  and  O2_9 
REMARK    8  A    between atoms: O2_9  and  C7_10 
REMARK    9  A    between atoms: C10_13  and  N2_14 
REMARK   10  A    between atoms: N2_14  and  C11_15 
REMARK   11  A    between atoms: C20_28  and  O3_29 
ROOT
HETATM    1  C7  UNL     1      25.583   1.059  52.096  1.00  0.00     0.103 A 
HETATM    2  C8  UNL     1      24.242   1.027  52.391  1.00  0.00     0.057 A 
HETATM    3  C9  UNL     1      23.630   0.274  53.361  1.00  0.00     0.042 A 
HETATM    4  C10 UNL     1      22.271   0.332  53.559  1.00  0.00     0.142 A 
HETATM    5  N3  UNL     1      21.822  -0.452  54.533  1.00  0.00    -0.224 NA
HETATM    6  C17 UNL     1      22.603  -1.243  55.275  1.00  0.00     0.236 A 
HETATM    7  N4  UNL     1      23.955  -1.301  55.080  1.00  0.00    -0.241 NA
HETATM    8  C18 UNL     1      24.471  -0.524  54.101  1.00  0.00     0.075 A 
HETATM    9  C19 UNL     1      25.831  -0.575  53.894  1.00  0.00     0.072 A 
HETATM   10  C20 UNL     1      26.382   0.223  52.886  1.00  0.00     0.103 A 
ENDROOT
BRANCH   1  11
HETATM   11  O2  UNL     1      26.355   1.721  51.203  1.00  0.00    -0.347 OA
BRANCH  11  12
HETATM   12  C6  UNL     1      26.342   3.072  50.882  1.00  0.00     0.195 C 
BRANCH  12  13
HETATM   13  C5  UNL     1      25.452   3.486  49.760  1.00  0.00     0.149 C 
BRANCH  13  14
HETATM   14  N1  UNL     1      24.182   4.014  50.278  1.00  0.00    -0.387 N 
BRANCH  14  15
HETATM   15  C2  UNL     1      23.036   3.233  49.908  1.00  0.00     0.075 C 
HETATM   16  C1  UNL     1      23.044   2.844  48.633  1.00  0.00     0.029 C 
ENDBRANCH  14  15
BRANCH  14  17
HETATM   17  C3  UNL     1      24.261   5.210  51.068  1.00  0.00     0.148 C 
BRANCH  17  18
HETATM   18  C4  UNL     1      24.713   6.405  50.228  1.00  0.00     0.183 C 
BRANCH  18  19
HETATM   19  O1  UNL     1      25.710   7.046  50.949  1.00  0.00    -0.399 OA
HETATM   20  H8  UNL     1      25.964   7.858  50.423  1.00  0.00     0.209 HD
ENDBRANCH  18  19
ENDBRANCH  17  18
ENDBRANCH  14  17
ENDBRANCH  13  14
ENDBRANCH  12  13
ENDBRANCH  11  12
ENDBRANCH   1  11
BRANCH  10  21
HETATM   21  O3  UNL     1      27.777   0.085  52.770  1.00  0.00    -0.353 OA
HETATM   22  C21 UNL     1      28.458  -1.053  53.192  1.00  0.00     0.210 C 
ENDBRANCH  10  21
BRANCH   4  23
HETATM   23  N2  UNL     1      21.430   1.154  52.771  1.00  0.00    -0.340 N 
HETATM   24  H14 UNL     1      21.597   2.171  52.638  1.00  0.00     0.167 HD
BRANCH  23  25
HETATM   25  C11 UNL     1      20.272   0.751  52.063  1.00  0.00     0.035 A 
HETATM   26  C12 UNL     1      19.957   1.166  50.793  1.00  0.00     0.032 A 
HETATM   27  C13 UNL     1      18.830   0.800  50.091  1.00  0.00     0.046 A 
HETATM   28  C14 UNL     1      17.921  -0.050  50.680  1.00  0.00     0.138 A 
HETATM   29  F1  UNL     1      16.795  -0.447  50.048  1.00  0.00    -0.204 F 
HETATM   30  C15 UNL     1      18.177  -0.503  51.952  1.00  0.00     0.074 A 
HETATM   31 CL1  UNL     1      17.052  -1.588  52.752  1.00  0.00    -0.081 Cl
HETATM   32  C16 UNL     1      19.324  -0.096  52.591  1.00  0.00     0.056 A 
ENDBRANCH  23  25
ENDBRANCH   4  23
TORSDOF 11
ENDMDL
