MODEL 1
REMARK VINA RESULT:      -7.7      0.000      0.000
REMARK  4 active torsions:
REMARK  status: ('A' for Active; 'I' for Inactive)
REMARK    1  A    between atoms: O1_2  and  C2_3 
REMARK    2  A    between atoms: N1_7  and  C6_8 
REMARK    3  A    between atoms: C10_14  and  O2_15 
REMARK    4  A    between atoms: C12_17  and  O3_18 
ROOT
HETATM    1  C6  UNL     1      23.074  -0.065  53.308  1.00  0.00     0.147 A 
HETATM    2  N2  UNL     1      22.803  -0.796  54.423  1.00  0.00    -0.223 NA
HETATM    3  C7  UNL     1      21.527  -1.154  54.704  1.00  0.00     0.236 A 
HETATM    4  N3  UNL     1      20.490  -0.814  53.916  1.00  0.00    -0.241 NA
HETATM    5  C8  UNL     1      20.747  -0.092  52.811  1.00  0.00     0.075 A 
HETATM    6  C9  UNL     1      19.740   0.302  51.946  1.00  0.00     0.072 A 
HETATM    7  C10 UNL     1      20.072   1.048  50.827  1.00  0.00     0.103 A 
HETATM    8  C12 UNL     1      21.361   1.422  50.523  1.00  0.00     0.102 A 
HETATM    9  C14 UNL     1      22.393   1.038  51.378  1.00  0.00     0.057 A 
HETATM   10  C15 UNL     1      22.029   0.296  52.483  1.00  0.00     0.042 A 
ENDROOT
BRANCH   1  11
HETATM   11  N1  UNL     1      24.459   0.229  53.157  1.00  0.00    -0.315 N 
HETATM   12  C5  UNL     1      24.864   1.575  53.388  1.00  0.00     0.098 C 
HETATM   13  C4  UNL     1      26.072   1.966  53.814  1.00  0.00     0.020 C 
HETATM   14  C3  UNL     1      27.255   1.153  54.145  1.00  0.00     0.040 C 
HETATM   15  C2  UNL     1      27.478  -0.138  53.843  1.00  0.00     0.091 C 
HETATM   16  C17 UNL     1      26.560  -1.025  53.100  1.00  0.00     0.083 C 
HETATM   17  C16 UNL     1      25.265  -0.896  52.789  1.00  0.00     0.124 C 
HETATM   18 CL1  UNL     1      27.332  -2.492  52.540  1.00  0.00    -0.080 Cl
BRANCH  15  19
HETATM   19  O1  UNL     1      28.677  -0.690  54.267  1.00  0.00    -0.354 OA
HETATM   20  C1  UNL     1      29.923  -0.508  53.658  1.00  0.00     0.210 C 
ENDBRANCH  15  19
ENDBRANCH   1  11
BRANCH   8  21
HETATM   21  O3  UNL     1      21.611   2.169  49.381  1.00  0.00    -0.353 OA
HETATM   22  C13 UNL     1      21.952   1.466  48.194  1.00  0.00     0.210 C 
ENDBRANCH   8  21
BRANCH   7  23
HETATM   23  O2  UNL     1      18.995   1.411  49.996  1.00  0.00    -0.353 OA
HETATM   24  C11 UNL     1      17.755   0.719  50.088  1.00  0.00     0.210 C 
ENDBRANCH   7  23
TORSDOF 4
ENDMDL
MODEL 2
REMARK VINA RESULT:      -7.7      2.730      7.000
REMARK  4 active torsions:
REMARK  status: ('A' for Active; 'I' for Inactive)
REMARK    1  A    between atoms: O1_2  and  C2_3 
REMARK    2  A    between atoms: N1_7  and  C6_8 
REMARK    3  A    between atoms: C10_14  and  O2_15 
REMARK    4  A    between atoms: C12_17  and  O3_18 
ROOT
HETATM    1  C6  UNL     1      23.496   0.269  53.354  1.00  0.00     0.147 A 
HETATM    2  N2  UNL     1      22.938  -0.590  54.251  1.00  0.00    -0.223 NA
HETATM    3  C7  UNL     1      23.724  -1.243  55.140  1.00  0.00     0.236 A 
HETATM    4  N3  UNL     1      25.060  -1.080  55.182  1.00  0.00    -0.241 NA
HETATM    5  C8  UNL     1      25.620  -0.234  54.301  1.00  0.00     0.075 A 
HETATM    6  C9  UNL     1      26.986  -0.009  54.272  1.00  0.00     0.072 A 
HETATM    7  C10 UNL     1      27.501   0.874  53.337  1.00  0.00     0.103 A 
HETATM    8  C12 UNL     1      26.721   1.547  52.424  1.00  0.00     0.102 A 
HETATM    9  C14 UNL     1      25.343   1.338  52.432  1.00  0.00     0.057 A 
HETATM   10  C15 UNL     1      24.862   0.453  53.375  1.00  0.00     0.042 A 
ENDROOT
BRANCH   1  11
HETATM   11  N1  UNL     1      22.537   0.872  52.491  1.00  0.00    -0.315 N 
HETATM   12  C5  UNL     1      21.676  -0.003  51.768  1.00  0.00     0.098 C 
HETATM   13  C4  UNL     1      20.437   0.288  51.349  1.00  0.00     0.020 C 
HETATM   14  C3  UNL     1      19.663   1.531  51.514  1.00  0.00     0.040 C 
HETATM   15  C2  UNL     1      20.117   2.741  51.885  1.00  0.00     0.091 C 
HETATM   16  C17 UNL     1      21.518   3.079  52.211  1.00  0.00     0.083 C 
HETATM   17  C16 UNL     1      22.576   2.303  52.474  1.00  0.00     0.124 C 
HETATM   18 CL1  UNL     1      21.813   4.804  52.250  1.00  0.00    -0.080 Cl
BRANCH  15  19
HETATM   19  O1  UNL     1      19.189   3.767  51.970  1.00  0.00    -0.354 OA
HETATM   20  C1  UNL     1      17.884   3.736  51.465  1.00  0.00     0.210 C 
ENDBRANCH  15  19
ENDBRANCH   1  11
BRANCH   8  21
HETATM   21  O3  UNL     1      27.314   2.415  51.519  1.00  0.00    -0.353 OA
HETATM   22  C13 UNL     1      26.465   3.089  50.599  1.00  0.00     0.210 C 
ENDBRANCH   8  21
BRANCH   7  23
HETATM   23  O2  UNL     1      28.897   1.050  53.369  1.00  0.00    -0.353 OA
HETATM   24  C11 UNL     1      29.753  -0.060  53.618  1.00  0.00     0.210 C 
ENDBRANCH   7  23
TORSDOF 4
ENDMDL
MODEL 3
REMARK VINA RESULT:      -7.5      3.128      6.554
REMARK  4 active torsions:
REMARK  status: ('A' for Active; 'I' for Inactive)
REMARK    1  A    between atoms: O1_2  and  C2_3 
REMARK    2  A    between atoms: N1_7  and  C6_8 
REMARK    3  A    between atoms: C10_14  and  O2_15 
REMARK    4  A    between atoms: C12_17  and  O3_18 
ROOT
HETATM    1  C6  UNL     1      23.338   1.501  52.698  1.00  0.00     0.147 A 
HETATM    2  N2  UNL     1      22.180   0.883  53.060  1.00  0.00    -0.223 NA
HETATM    3  C7  UNL     1      22.221  -0.269  53.770  1.00  0.00     0.236 A 
HETATM    4  N3  UNL     1      23.378  -0.847  54.145  1.00  0.00    -0.241 NA
HETATM    5  C8  UNL     1      24.527  -0.245  53.794  1.00  0.00     0.075 A 
HETATM    6  C9  UNL     1      25.761  -0.771  54.136  1.00  0.00     0.072 A 
HETATM    7  C10 UNL     1      26.908  -0.102  53.741  1.00  0.00     0.103 A 
HETATM    8  C12 UNL     1      26.889   1.069  53.019  1.00  0.00     0.102 A 
HETATM    9  C14 UNL     1      25.659   1.620  52.662  1.00  0.00     0.057 A 
HETATM   10  C15 UNL     1      24.536   0.930  53.070  1.00  0.00     0.042 A 
ENDROOT
BRANCH   1  11
HETATM   11  N1  UNL     1      23.123   2.697  51.957  1.00  0.00    -0.315 N 
HETATM   12  C5  UNL     1      23.183   3.925  52.679  1.00  0.00     0.098 C 
HETATM   13  C4  UNL     1      23.532   5.114  52.171  1.00  0.00     0.020 C 
HETATM   14  C3  UNL     1      23.931   5.463  50.796  1.00  0.00     0.040 C 
HETATM   15  C2  UNL     1      23.780   4.725  49.683  1.00  0.00     0.091 C 
HETATM   16  C17 UNL     1      23.167   3.383  49.609  1.00  0.00     0.083 C 
HETATM   17  C16 UNL     1      22.873   2.492  50.563  1.00  0.00     0.124 C 
HETATM   18 CL1  UNL     1      22.768   2.904  47.973  1.00  0.00    -0.080 Cl
BRANCH  15  19
HETATM   19  O1  UNL     1      24.239   5.271  48.494  1.00  0.00    -0.354 OA
HETATM   20  C1  UNL     1      24.236   6.630  48.161  1.00  0.00     0.210 C 
ENDBRANCH  15  19
ENDBRANCH   1  11
BRANCH   8  21
HETATM   21  O3  UNL     1      28.083   1.679  52.661  1.00  0.00    -0.353 OA
HETATM   22  C13 UNL     1      28.697   2.537  53.613  1.00  0.00     0.210 C 
ENDBRANCH   8  21
BRANCH   7  23
HETATM   23  O2  UNL     1      28.124  -0.698  54.126  1.00  0.00    -0.353 OA
HETATM   24  C11 UNL     1      28.796  -1.588  53.241  1.00  0.00     0.210 C 
ENDBRANCH   7  23
TORSDOF 4
ENDMDL
MODEL 4
REMARK VINA RESULT:      -7.4      2.664      7.240
REMARK  4 active torsions:
REMARK  status: ('A' for Active; 'I' for Inactive)
REMARK    1  A    between atoms: O1_2  and  C2_3 
REMARK    2  A    between atoms: N1_7  and  C6_8 
REMARK    3  A    between atoms: C10_14  and  O2_15 
REMARK    4  A    between atoms: C12_17  and  O3_18 
ROOT
HETATM    1  C6  UNL     1      24.344   1.988  51.572  1.00  0.00     0.147 A 
HETATM    2  N2  UNL     1      24.697   2.944  50.669  1.00  0.00    -0.223 NA
HETATM    3  C7  UNL     1      26.002   3.258  50.491  1.00  0.00     0.236 A 
HETATM    4  N3  UNL     1      26.991   2.656  51.178  1.00  0.00    -0.241 NA
HETATM    5  C8  UNL     1      26.654   1.710  52.071  1.00  0.00     0.075 A 
HETATM    6  C9  UNL     1      27.607   1.042  52.822  1.00  0.00     0.072 A 
HETATM    7  C10 UNL     1      27.193   0.079  53.728  1.00  0.00     0.103 A 
HETATM    8  C12 UNL     1      25.872  -0.255  53.924  1.00  0.00     0.102 A 
HETATM    9  C14 UNL     1      24.893   0.403  53.181  1.00  0.00     0.057 A 
HETATM   10  C15 UNL     1      25.338   1.356  52.288  1.00  0.00     0.042 A 
ENDROOT
BRANCH   1  11
HETATM   11  N1  UNL     1      22.938   1.777  51.640  1.00  0.00    -0.315 N 
HETATM   12  C5  UNL     1      22.209   1.870  50.418  1.00  0.00     0.098 C 
HETATM   13  C4  UNL     1      21.066   1.231  50.139  1.00  0.00     0.020 C 
HETATM   14  C3  UNL     1      20.285   0.303  50.976  1.00  0.00     0.040 C 
HETATM   15  C2  UNL     1      20.398   0.094  52.299  1.00  0.00     0.091 C 
HETATM   16  C17 UNL     1      21.351   0.768  53.205  1.00  0.00     0.083 C 
HETATM   17  C16 UNL     1      22.445   1.496  52.955  1.00  0.00     0.124 C 
HETATM   18 CL1  UNL     1      20.949   0.559  54.896  1.00  0.00    -0.080 Cl
BRANCH  15  19
HETATM   19  O1  UNL     1      19.545  -0.839  52.868  1.00  0.00    -0.354 OA
HETATM   20  C1  UNL     1      18.149  -0.834  52.778  1.00  0.00     0.210 C 
ENDBRANCH  15  19
ENDBRANCH   1  11
BRANCH   8  21
HETATM   21  O3  UNL     1      25.539  -1.232  54.852  1.00  0.00    -0.353 OA
HETATM   22  C13 UNL     1      24.204  -1.251  55.339  1.00  0.00     0.210 C 
ENDBRANCH   8  21
BRANCH   7  23
HETATM   23  O2  UNL     1      28.218  -0.556  54.453  1.00  0.00    -0.353 OA
HETATM   24  C11 UNL     1      29.387  -1.017  53.785  1.00  0.00     0.210 C 
ENDBRANCH   7  23
TORSDOF 4
ENDMDL
MODEL 5
REMARK VINA RESULT:      -7.4      2.675      6.315
REMARK  4 active torsions:
REMARK  status: ('A' for Active; 'I' for Inactive)
REMARK    1  A    between atoms: O1_2  and  C2_3 
REMARK    2  A    between atoms: N1_7  and  C6_8 
REMARK    3  A    between atoms: C10_14  and  O2_15 
REMARK    4  A    between atoms: C12_17  and  O3_18 
ROOT
HETATM    1  C6  UNL     1      22.328   0.914  52.744  1.00  0.00     0.147 A 
HETATM    2  N2  UNL     1      21.278   0.322  53.378  1.00  0.00    -0.223 NA
HETATM    3  C7  UNL     1      21.503  -0.640  54.304  1.00  0.00     0.236 A 
HETATM    4  N3  UNL     1      22.742  -1.050  54.637  1.00  0.00    -0.241 NA
HETATM    5  C8  UNL     1      23.785  -0.471  54.017  1.00  0.00     0.075 A 
HETATM    6  C9  UNL     1      25.093  -0.832  54.297  1.00  0.00     0.072 A 
HETATM    7  C10 UNL     1      26.122  -0.199  53.621  1.00  0.00     0.103 A 
HETATM    8  C12 UNL     1      25.916   0.781  52.676  1.00  0.00     0.102 A 
HETATM    9  C14 UNL     1      24.609   1.163  52.376  1.00  0.00     0.057 A 
HETATM   10  C15 UNL     1      23.607   0.513  53.066  1.00  0.00     0.042 A 
ENDROOT
BRANCH   1  11
HETATM   11  N1  UNL     1      21.924   1.902  51.802  1.00  0.00    -0.315 N 
HETATM   12  C5  UNL     1      21.531   3.170  52.321  1.00  0.00     0.098 C 
HETATM   13  C4  UNL     1      21.627   4.341  51.679  1.00  0.00     0.020 C 
HETATM   14  C3  UNL     1      22.138   4.627  50.327  1.00  0.00     0.040 C 
HETATM   15  C2  UNL     1      22.376   3.753  49.335  1.00  0.00     0.091 C 
HETATM   16  C17 UNL     1      22.168   2.291  49.398  1.00  0.00     0.083 C 
HETATM   17  C16 UNL     1      21.971   1.471  50.437  1.00  0.00     0.124 C 
HETATM   18 CL1  UNL     1      22.187   1.529  47.822  1.00  0.00    -0.080 Cl
BRANCH  15  19
HETATM   19  O1  UNL     1      22.860   4.265  48.141  1.00  0.00    -0.354 OA
HETATM   20  C1  UNL     1      22.542   5.514  47.596  1.00  0.00     0.210 C 
ENDBRANCH  15  19
ENDBRANCH   1  11
BRANCH   8  21
HETATM   21  O3  UNL     1      27.003   1.368  52.043  1.00  0.00    -0.353 OA
HETATM   22  C13 UNL     1      26.753   2.495  51.215  1.00  0.00     0.210 C 
ENDBRANCH   8  21
BRANCH   7  23
HETATM   23  O2  UNL     1      27.422  -0.620  53.959  1.00  0.00    -0.353 OA
HETATM   24  C11 UNL     1      28.206   0.142  54.871  1.00  0.00     0.210 C 
ENDBRANCH   7  23
TORSDOF 4
ENDMDL
MODEL 6
REMARK VINA RESULT:      -7.2      2.798      6.962
REMARK  4 active torsions:
REMARK  status: ('A' for Active; 'I' for Inactive)
REMARK    1  A    between atoms: O1_2  and  C2_3 
REMARK    2  A    between atoms: N1_7  and  C6_8 
REMARK    3  A    between atoms: C10_14  and  O2_15 
REMARK    4  A    between atoms: C12_17  and  O3_18 
ROOT
HETATM    1  C6  UNL     1      22.208   0.473  52.890  1.00  0.00     0.147 A 
HETATM    2  N2  UNL     1      21.218  -0.020  53.684  1.00  0.00    -0.223 NA
HETATM    3  C7  UNL     1      21.529  -0.796  54.749  1.00  0.00     0.236 A 
HETATM    4  N3  UNL     1      22.798  -1.112  55.069  1.00  0.00    -0.241 NA
HETATM    5  C8  UNL     1      23.783  -0.631  54.291  1.00  0.00     0.075 A 
HETATM    6  C9  UNL     1      25.116  -0.908  54.545  1.00  0.00     0.072 A 
HETATM    7  C10 UNL     1      26.083  -0.383  53.704  1.00  0.00     0.103 A 
HETATM    8  C12 UNL     1      25.789   0.408  52.617  1.00  0.00     0.102 A 
HETATM    9  C14 UNL     1      24.454   0.702  52.338  1.00  0.00     0.057 A 
HETATM   10  C15 UNL     1      23.516   0.164  53.195  1.00  0.00     0.042 A 
ENDROOT
BRANCH   1  11
HETATM   11  N1  UNL     1      21.716   1.268  51.816  1.00  0.00    -0.315 N 
HETATM   12  C5  UNL     1      21.074   0.583  50.745  1.00  0.00     0.098 C 
HETATM   13  C4  UNL     1      20.121   1.091  49.951  1.00  0.00     0.020 C 
HETATM   14  C3  UNL     1      19.508   2.430  49.967  1.00  0.00     0.040 C 
HETATM   15  C2  UNL     1      19.946   3.529  50.603  1.00  0.00     0.091 C 
HETATM   16  C17 UNL     1      21.163   3.621  51.437  1.00  0.00     0.083 C 
HETATM   17  C16 UNL     1      21.942   2.674  51.970  1.00  0.00     0.124 C 
HETATM   18 CL1  UNL     1      21.642   5.272  51.766  1.00  0.00    -0.080 Cl
BRANCH  15  19
HETATM   19  O1  UNL     1      19.191   4.684  50.467  1.00  0.00    -0.354 OA
HETATM   20  C1  UNL     1      18.555   5.114  49.298  1.00  0.00     0.210 C 
ENDBRANCH  15  19
ENDBRANCH   1  11
BRANCH   8  21
HETATM   21  O3  UNL     1      26.816   0.896  51.821  1.00  0.00    -0.353 OA
HETATM   22  C13 UNL     1      26.903   2.303  51.646  1.00  0.00     0.210 C 
ENDBRANCH   8  21
BRANCH   7  23
HETATM   23  O2  UNL     1      27.413  -0.709  54.026  1.00  0.00    -0.353 OA
HETATM   24  C11 UNL     1      28.178   0.154  54.861  1.00  0.00     0.210 C 
ENDBRANCH   7  23
TORSDOF 4
ENDMDL
MODEL 7
REMARK VINA RESULT:      -7.2      3.307      7.595
REMARK  4 active torsions:
REMARK  status: ('A' for Active; 'I' for Inactive)
REMARK    1  A    between atoms: O1_2  and  C2_3 
REMARK    2  A    between atoms: N1_7  and  C6_8 
REMARK    3  A    between atoms: C10_14  and  O2_15 
REMARK    4  A    between atoms: C12_17  and  O3_18 
ROOT
HETATM    1  C6  UNL     1      24.322   2.427  50.876  1.00  0.00     0.147 A 
HETATM    2  N2  UNL     1      24.966   3.272  50.024  1.00  0.00    -0.223 NA
HETATM    3  C7  UNL     1      26.311   3.413  50.101  1.00  0.00     0.236 A 
HETATM    4  N3  UNL     1      27.060   2.744  50.998  1.00  0.00    -0.241 NA
HETATM    5  C8  UNL     1      26.433   1.907  51.843  1.00  0.00     0.075 A 
HETATM    6  C9  UNL     1      27.125   1.181  52.798  1.00  0.00     0.072 A 
HETATM    7  C10 UNL     1      26.420   0.337  53.640  1.00  0.00     0.103 A 
HETATM    8  C12 UNL     1      25.054   0.179  53.580  1.00  0.00     0.102 A 
HETATM    9  C14 UNL     1      24.334   0.899  52.627  1.00  0.00     0.057 A 
HETATM   10  C15 UNL     1      25.066   1.729  51.804  1.00  0.00     0.042 A 
ENDROOT
BRANCH   1  11
HETATM   11  N1  UNL     1      22.914   2.392  50.667  1.00  0.00    -0.315 N 
HETATM   12  C5  UNL     1      22.307   1.107  50.562  1.00  0.00     0.098 C 
HETATM   13  C4  UNL     1      21.042   0.811  50.887  1.00  0.00     0.020 C 
HETATM   14  C3  UNL     1      19.983   1.688  51.416  1.00  0.00     0.040 C 
HETATM   15  C2  UNL     1      19.963   3.032  51.442  1.00  0.00     0.091 C 
HETATM   16  C17 UNL     1      21.025   3.925  50.934  1.00  0.00     0.083 C 
HETATM   17  C16 UNL     1      22.296   3.681  50.592  1.00  0.00     0.124 C 
HETATM   18 CL1  UNL     1      20.496   5.584  50.757  1.00  0.00    -0.080 Cl
BRANCH  15  19
HETATM   19  O1  UNL     1      18.847   3.638  51.996  1.00  0.00    -0.354 OA
HETATM   20  C1  UNL     1      17.534   3.523  51.528  1.00  0.00     0.210 C 
ENDBRANCH  15  19
ENDBRANCH   1  11
BRANCH   8  21
HETATM   21  O3  UNL     1      24.421  -0.687  54.460  1.00  0.00    -0.353 OA
HETATM   22  C13 UNL     1      23.019  -0.866  54.316  1.00  0.00     0.210 C 
ENDBRANCH   8  21
BRANCH   7  23
HETATM   23  O2  UNL     1      27.192  -0.366  54.584  1.00  0.00    -0.353 OA
HETATM   24  C11 UNL     1      28.535   0.028  54.846  1.00  0.00     0.210 C 
ENDBRANCH   7  23
TORSDOF 4
ENDMDL
MODEL 8
REMARK VINA RESULT:      -7.1      4.669      6.177
REMARK  4 active torsions:
REMARK  status: ('A' for Active; 'I' for Inactive)
REMARK    1  A    between atoms: O1_2  and  C2_3 
REMARK    2  A    between atoms: N1_7  and  C6_8 
REMARK    3  A    between atoms: C10_14  and  O2_15 
REMARK    4  A    between atoms: C12_17  and  O3_18 
ROOT
HETATM    1  C6  UNL     1      23.438   2.813  50.320  1.00  0.00     0.147 A 
HETATM    2  N2  UNL     1      22.532   3.061  49.335  1.00  0.00    -0.223 NA
HETATM    3  C7  UNL     1      21.418   2.298  49.232  1.00  0.00     0.236 A 
HETATM    4  N3  UNL     1      21.156   1.282  50.076  1.00  0.00    -0.241 NA
HETATM    5  C8  UNL     1      22.044   1.030  51.053  1.00  0.00     0.075 A 
HETATM    6  C9  UNL     1      21.855   0.003  51.964  1.00  0.00     0.072 A 
HETATM    7  C10 UNL     1      22.809  -0.207  52.945  1.00  0.00     0.103 A 
HETATM    8  C12 UNL     1      23.948   0.556  53.067  1.00  0.00     0.102 A 
HETATM    9  C14 UNL     1      24.162   1.595  52.163  1.00  0.00     0.057 A 
HETATM   10  C15 UNL     1      23.193   1.778  51.198  1.00  0.00     0.042 A 
ENDROOT
BRANCH   1  11
HETATM   11  N1  UNL     1      24.550   3.701  50.291  1.00  0.00    -0.315 N 
HETATM   12  C5  UNL     1      25.800   3.160  49.871  1.00  0.00     0.098 C 
HETATM   13  C4  UNL     1      26.789   3.843  49.280  1.00  0.00     0.020 C 
HETATM   14  C3  UNL     1      26.854   5.270  48.919  1.00  0.00     0.040 C 
HETATM   15  C2  UNL     1      26.050   6.262  49.337  1.00  0.00     0.091 C 
HETATM   16  C17 UNL     1      24.910   6.122  50.267  1.00  0.00     0.083 C 
HETATM   17  C16 UNL     1      24.248   5.041  50.695  1.00  0.00     0.124 C 
HETATM   18 CL1  UNL     1      24.354   7.655  50.902  1.00  0.00    -0.080 Cl
BRANCH  15  19
HETATM   19  O1  UNL     1      26.311   7.535  48.854  1.00  0.00    -0.354 OA
HETATM   20  C1  UNL     1      27.507   8.243  49.013  1.00  0.00     0.210 C 
ENDBRANCH  15  19
ENDBRANCH   1  11
BRANCH   8  21
HETATM   21  O3  UNL     1      24.857   0.282  54.080  1.00  0.00    -0.353 OA
HETATM   22  C13 UNL     1      26.204   0.688  53.884  1.00  0.00     0.210 C 
ENDBRANCH   8  21
BRANCH   7  23
HETATM   23  O2  UNL     1      22.547  -1.268  53.833  1.00  0.00    -0.353 OA
HETATM   24  C11 UNL     1      21.237  -1.455  54.356  1.00  0.00     0.210 C 
ENDBRANCH   7  23
TORSDOF 4
ENDMDL
MODEL 9
REMARK VINA RESULT:      -6.8      3.430      7.396
REMARK  4 active torsions:
REMARK  status: ('A' for Active; 'I' for Inactive)
REMARK    1  A    between atoms: O1_2  and  C2_3 
REMARK    2  A    between atoms: N1_7  and  C6_8 
REMARK    3  A    between atoms: C10_14  and  O2_15 
REMARK    4  A    between atoms: C12_17  and  O3_18 
ROOT
HETATM    1  C6  UNL     1      23.006   1.397  51.525  1.00  0.00     0.147 A 
HETATM    2  N2  UNL     1      22.236   0.546  52.258  1.00  0.00    -0.223 NA
HETATM    3  C7  UNL     1      22.797  -0.193  53.245  1.00  0.00     0.236 A 
HETATM    4  N3  UNL     1      24.108  -0.125  53.544  1.00  0.00    -0.241 NA
HETATM    5  C8  UNL     1      24.876   0.713  52.827  1.00  0.00     0.075 A 
HETATM    6  C9  UNL     1      26.234   0.843  53.066  1.00  0.00     0.072 A 
HETATM    7  C10 UNL     1      26.970   1.723  52.290  1.00  0.00     0.103 A 
HETATM    8  C12 UNL     1      26.421   2.483  51.282  1.00  0.00     0.102 A 
HETATM    9  C14 UNL     1      25.056   2.369  51.021  1.00  0.00     0.057 A 
HETATM   10  C15 UNL     1      24.351   1.485  51.812  1.00  0.00     0.042 A 
ENDROOT
BRANCH   1  11
HETATM   11  N1  UNL     1      22.268   2.098  50.530  1.00  0.00    -0.315 N 
HETATM   12  C5  UNL     1      21.827   1.346  49.402  1.00  0.00     0.098 C 
HETATM   13  C4  UNL     1      20.743   1.612  48.661  1.00  0.00     0.020 C 
HETATM   14  C3  UNL     1      19.759   2.699  48.800  1.00  0.00     0.040 C 
HETATM   15  C2  UNL     1      19.868   3.820  49.533  1.00  0.00     0.091 C 
HETATM   16  C17 UNL     1      21.026   4.200  50.368  1.00  0.00     0.083 C 
HETATM   17  C16 UNL     1      22.068   3.488  50.811  1.00  0.00     0.124 C 
HETATM   18 CL1  UNL     1      21.001   5.884  50.845  1.00  0.00    -0.080 Cl
BRANCH  15  19
HETATM   19  O1  UNL     1      18.799   4.702  49.504  1.00  0.00    -0.354 OA
HETATM   20  C1  UNL     1      17.459   4.373  49.729  1.00  0.00     0.210 C 
ENDBRANCH  15  19
ENDBRANCH   1  11
BRANCH   8  21
HETATM   21  O3  UNL     1      27.227   3.342  50.549  1.00  0.00    -0.353 OA
HETATM   22  C13 UNL     1      26.649   3.988  49.423  1.00  0.00     0.210 C 
ENDBRANCH   8  21
BRANCH   7  23
HETATM   23  O2  UNL     1      28.343   1.801  52.592  1.00  0.00    -0.353 OA
HETATM   24  C11 UNL     1      28.776   2.434  53.791  1.00  0.00     0.210 C 
ENDBRANCH   7  23
TORSDOF 4
ENDMDL
