MODEL 1
REMARK VINA RESULT:      -6.6      0.000      0.000
REMARK  6 active torsions:
REMARK  status: ('A' for Active; 'I' for Inactive)
REMARK    1  A    between atoms: C1_2  and  C2_3 
REMARK       I    between atoms: C1_2  and  N2_13 
REMARK    2  A    between atoms: C3_4  and  C4_5 
REMARK    3  A    between atoms: C4_5  and  C5_6 
REMARK    4  A    between atoms: C5_6  and  N1_7 
REMARK    5  A    between atoms: N2_13  and  C10_14 
REMARK    6  A    between atoms: N3_18  and  C14_19 
ROOT
HETATM    1  O1  UNL     1      24.828   2.864  50.074  1.00  0.00    -0.258 OA
HETATM    2  C1  UNL     1      26.081   2.997  50.274  1.00  0.00     0.302 C 
HETATM    3  N2  UNL     1      26.761   2.150  51.196  1.00  0.00    -0.302 N 
HETATM    4  H13 UNL     1      27.783   2.346  51.280  1.00  0.00     0.171 HD
ENDROOT
BRANCH   2   5
HETATM    5  C2  UNL     1      26.744   4.030  49.528  1.00  0.00    -0.005 C 
HETATM    6  C3  UNL     1      27.316   4.900  48.909  1.00  0.00    -0.095 C 
BRANCH   6   7
HETATM    7  C4  UNL     1      28.039   5.959  48.162  1.00  0.00     0.124 C 
BRANCH   7   8
HETATM    8  C5  UNL     1      29.492   5.579  48.161  1.00  0.00     0.284 C 
BRANCH   8   9
HETATM    9  N1  UNL     1      30.396   6.615  48.499  1.00  0.00     0.093 N 
HETATM   10  C6  UNL     1      31.663   6.168  49.023  1.00  0.00     0.298 C 
HETATM   11  C7  UNL     1      32.173   5.014  48.209  1.00  0.00     0.198 C 
HETATM   12  O2  UNL     1      32.106   5.354  46.873  1.00  0.00    -0.388 OA
HETATM   13  C8  UNL     1      31.965   6.695  46.618  1.00  0.00     0.198 C 
HETATM   14  C9  UNL     1      30.720   7.287  47.227  1.00  0.00     0.298 C 
ENDBRANCH   8   9
ENDBRANCH   7   8
ENDBRANCH   6   7
ENDBRANCH   2   5
BRANCH   3  15
HETATM   15  C10 UNL     1      26.131   1.129  51.940  1.00  0.00     0.106 A 
HETATM   16  C11 UNL     1      26.705   0.000  52.328  1.00  0.00     0.029 A 
HETATM   17  C12 UNL     1      25.752  -0.852  53.094  1.00  0.00     0.109 A 
HETATM   18  C13 UNL     1      24.521  -0.021  53.091  1.00  0.00     0.106 A 
HETATM   19  N3  UNL     1      23.524  -0.550  53.712  1.00  0.00    -0.246 NA
HETATM   20  N4  UNL     1      24.780   1.177  52.381  1.00  0.00    -0.331 N 
HETATM   21  H19 UNL     1      24.027   1.880  52.277  1.00  0.00     0.168 HD
BRANCH  19  22
HETATM   22  C14 UNL     1      22.275   0.139  53.789  1.00  0.00     0.372 C 
HETATM   23  F1  UNL     1      21.582  -0.096  54.980  1.00  0.00    -0.232 F 
ENDBRANCH  19  22
ENDBRANCH   3  15
TORSDOF 6
ENDMDL
MODEL 2
REMARK VINA RESULT:      -6.5      4.302      8.962
REMARK  6 active torsions:
REMARK  status: ('A' for Active; 'I' for Inactive)
REMARK    1  A    between atoms: C1_2  and  C2_3 
REMARK       I    between atoms: C1_2  and  N2_13 
REMARK    2  A    between atoms: C3_4  and  C4_5 
REMARK    3  A    between atoms: C4_5  and  C5_6 
REMARK    4  A    between atoms: C5_6  and  N1_7 
REMARK    5  A    between atoms: N2_13  and  C10_14 
REMARK    6  A    between atoms: N3_18  and  C14_19 
ROOT
HETATM    1  O1  UNL     1      26.444   4.947  48.973  1.00  0.00    -0.258 OA
HETATM    2  C1  UNL     1      25.644   5.061  49.960  1.00  0.00     0.302 C 
HETATM    3  N2  UNL     1      25.383   6.337  50.537  1.00  0.00    -0.302 N 
HETATM    4  H13 UNL     1      24.714   6.314  51.338  1.00  0.00     0.171 HD
ENDROOT
BRANCH   2   5
HETATM    5  C2  UNL     1      25.040   3.849  50.441  1.00  0.00    -0.005 C 
HETATM    6  C3  UNL     1      24.539   2.830  50.860  1.00  0.00    -0.095 C 
BRANCH   6   7
HETATM    7  C4  UNL     1      23.933   1.586  51.398  1.00  0.00     0.124 C 
BRANCH   7   8
HETATM    8  C5  UNL     1      24.622   1.291  52.699  1.00  0.00     0.284 C 
BRANCH   8   9
HETATM    9  N1  UNL     1      25.531   0.206  52.678  1.00  0.00     0.093 N 
HETATM   10  C6  UNL     1      26.912   0.574  52.480  1.00  0.00     0.298 C 
HETATM   11  C7  UNL     1      27.247   1.769  53.326  1.00  0.00     0.198 C 
HETATM   12  O2  UNL     1      26.816   1.531  54.615  1.00  0.00    -0.388 OA
HETATM   13  C8  UNL     1      26.547   0.218  54.908  1.00  0.00     0.198 C 
HETATM   14  C9  UNL     1      25.478  -0.380  54.030  1.00  0.00     0.298 C 
ENDBRANCH   8   9
ENDBRANCH   7   8
ENDBRANCH   6   7
ENDBRANCH   2   5
BRANCH   3  15
HETATM   15  C10 UNL     1      25.964   7.541  50.083  1.00  0.00     0.106 A 
HETATM   16  C11 UNL     1      25.302   8.654  49.807  1.00  0.00     0.029 A 
HETATM   17  C12 UNL     1      26.225   9.731  49.352  1.00  0.00     0.109 A 
HETATM   18  C13 UNL     1      27.546   9.055  49.416  1.00  0.00     0.106 A 
HETATM   19  N3  UNL     1      28.539   9.797  49.064  1.00  0.00    -0.246 NA
HETATM   20  N4  UNL     1      27.357   7.723  49.861  1.00  0.00    -0.331 N 
HETATM   21  H19 UNL     1      28.177   7.100  49.964  1.00  0.00     0.168 HD
BRANCH  19  22
HETATM   22  C14 UNL     1      29.869   9.276  49.077  1.00  0.00     0.372 C 
HETATM   23  F1  UNL     1      30.715   9.934  49.974  1.00  0.00    -0.232 F 
ENDBRANCH  19  22
ENDBRANCH   3  15
TORSDOF 6
ENDMDL
MODEL 3
REMARK VINA RESULT:      -6.5      4.325      9.042
REMARK  6 active torsions:
REMARK  status: ('A' for Active; 'I' for Inactive)
REMARK    1  A    between atoms: C1_2  and  C2_3 
REMARK       I    between atoms: C1_2  and  N2_13 
REMARK    2  A    between atoms: C3_4  and  C4_5 
REMARK    3  A    between atoms: C4_5  and  C5_6 
REMARK    4  A    between atoms: C5_6  and  N1_7 
REMARK    5  A    between atoms: N2_13  and  C10_14 
REMARK    6  A    between atoms: N3_18  and  C14_19 
ROOT
HETATM    1  O1  UNL     1      28.164   4.484  48.448  1.00  0.00    -0.258 OA
HETATM    2  C1  UNL     1      27.217   4.743  49.263  1.00  0.00     0.302 C 
HETATM    3  N2  UNL     1      26.770   6.083  49.451  1.00  0.00    -0.302 N 
HETATM    4  H13 UNL     1      25.991   6.179  50.139  1.00  0.00     0.171 HD
ENDROOT
BRANCH   2   5
HETATM    5  C2  UNL     1      26.646   3.625  49.961  1.00  0.00    -0.005 C 
HETATM    6  C3  UNL     1      26.165   2.691  50.563  1.00  0.00    -0.095 C 
BRANCH   6   7
HETATM    7  C4  UNL     1      25.569   1.563  51.322  1.00  0.00     0.124 C 
BRANCH   7   8
HETATM    8  C5  UNL     1      26.687   0.907  52.080  1.00  0.00     0.284 C 
BRANCH   8   9
HETATM    9  N1  UNL     1      27.187   1.638  53.186  1.00  0.00     0.093 N 
HETATM   10  C6  UNL     1      26.479   1.426  54.424  1.00  0.00     0.298 C 
HETATM   11  C7  UNL     1      26.196  -0.038  54.605  1.00  0.00     0.198 C 
HETATM   12  O2  UNL     1      27.364  -0.742  54.397  1.00  0.00    -0.388 OA
HETATM   13  C8  UNL     1      28.513   0.006  54.445  1.00  0.00     0.198 C 
HETATM   14  C9  UNL     1      28.545   1.113  53.423  1.00  0.00     0.298 C 
ENDBRANCH   8   9
ENDBRANCH   7   8
ENDBRANCH   6   7
ENDBRANCH   2   5
BRANCH   3  15
HETATM   15  C10 UNL     1      27.315   7.197  48.776  1.00  0.00     0.106 A 
HETATM   16  C11 UNL     1      26.897   7.665  47.610  1.00  0.00     0.029 A 
HETATM   17  C12 UNL     1      27.695   8.851  47.190  1.00  0.00     0.109 A 
HETATM   18  C13 UNL     1      28.650   8.999  48.318  1.00  0.00     0.106 A 
HETATM   19  N3  UNL     1      29.470   9.985  48.192  1.00  0.00    -0.246 NA
HETATM   20  N4  UNL     1      28.397   7.978  49.267  1.00  0.00    -0.331 N 
HETATM   21  H19 UNL     1      28.974   7.927  50.125  1.00  0.00     0.168 HD
BRANCH  19  22
HETATM   22  C14 UNL     1      30.444  10.246  49.204  1.00  0.00     0.372 C 
HETATM   23  F1  UNL     1      31.389   9.225  49.341  1.00  0.00    -0.232 F 
ENDBRANCH  19  22
ENDBRANCH   3  15
TORSDOF 6
ENDMDL
MODEL 4
REMARK VINA RESULT:      -6.5      2.221      2.784
REMARK  6 active torsions:
REMARK  status: ('A' for Active; 'I' for Inactive)
REMARK    1  A    between atoms: C1_2  and  C2_3 
REMARK       I    between atoms: C1_2  and  N2_13 
REMARK    2  A    between atoms: C3_4  and  C4_5 
REMARK    3  A    between atoms: C4_5  and  C5_6 
REMARK    4  A    between atoms: C5_6  and  N1_7 
REMARK    5  A    between atoms: N2_13  and  C10_14 
REMARK    6  A    between atoms: N3_18  and  C14_19 
ROOT
HETATM    1  O1  UNL     1      25.253   3.194  49.330  1.00  0.00    -0.258 OA
HETATM    2  C1  UNL     1      26.254   3.783  49.857  1.00  0.00     0.302 C 
HETATM    3  N2  UNL     1      26.774   3.346  51.110  1.00  0.00    -0.302 N 
HETATM    4  H13 UNL     1      27.593   3.897  51.447  1.00  0.00     0.171 HD
ENDROOT
BRANCH   2   5
HETATM    5  C2  UNL     1      26.810   4.887  49.124  1.00  0.00    -0.005 C 
HETATM    6  C3  UNL     1      27.263   5.822  48.504  1.00  0.00    -0.095 C 
BRANCH   6   7
HETATM    7  C4  UNL     1      27.794   6.980  47.741  1.00  0.00     0.124 C 
BRANCH   7   8
HETATM    8  C5  UNL     1      29.101   7.358  48.376  1.00  0.00     0.284 C 
BRANCH   8   9
HETATM    9  N1  UNL     1      30.262   6.906  47.703  1.00  0.00     0.093 N 
HETATM   10  C6  UNL     1      31.250   7.924  47.445  1.00  0.00     0.298 C 
HETATM   11  C7  UNL     1      31.422   8.787  48.662  1.00  0.00     0.198 C 
HETATM   12  O2  UNL     1      31.602   7.970  49.760  1.00  0.00    -0.388 OA
HETATM   13  C8  UNL     1      31.941   6.672  49.472  1.00  0.00     0.198 C 
HETATM   14  C9  UNL     1      30.913   5.962  48.631  1.00  0.00     0.298 C 
ENDBRANCH   8   9
ENDBRANCH   7   8
ENDBRANCH   6   7
ENDBRANCH   2   5
BRANCH   3  15
HETATM   15  C10 UNL     1      26.245   2.264  51.848  1.00  0.00     0.106 A 
HETATM   16  C11 UNL     1      25.213   2.333  52.673  1.00  0.00     0.029 A 
HETATM   17  C12 UNL     1      24.924   1.006  53.286  1.00  0.00     0.109 A 
HETATM   18  C13 UNL     1      25.966   0.146  52.668  1.00  0.00     0.106 A 
HETATM   19  N3  UNL     1      25.926  -1.087  53.044  1.00  0.00    -0.246 NA
HETATM   20  N4  UNL     1      26.756   0.938  51.800  1.00  0.00    -0.331 N 
HETATM   21  H19 UNL     1      27.538   0.499  51.282  1.00  0.00     0.168 HD
BRANCH  19  22
HETATM   22  C14 UNL     1      26.869  -2.027  52.529  1.00  0.00     0.372 C 
HETATM   23  F1  UNL     1      28.182  -1.782  52.945  1.00  0.00    -0.232 F 
ENDBRANCH  19  22
ENDBRANCH   3  15
TORSDOF 6
ENDMDL
MODEL 5
REMARK VINA RESULT:      -6.3      2.914      3.533
REMARK  6 active torsions:
REMARK  status: ('A' for Active; 'I' for Inactive)
REMARK    1  A    between atoms: C1_2  and  C2_3 
REMARK       I    between atoms: C1_2  and  N2_13 
REMARK    2  A    between atoms: C3_4  and  C4_5 
REMARK    3  A    between atoms: C4_5  and  C5_6 
REMARK    4  A    between atoms: C5_6  and  N1_7 
REMARK    5  A    between atoms: N2_13  and  C10_14 
REMARK    6  A    between atoms: N3_18  and  C14_19 
ROOT
HETATM    1  O1  UNL     1      26.886   2.651  50.139  1.00  0.00    -0.258 OA
HETATM    2  C1  UNL     1      26.021   3.488  50.563  1.00  0.00     0.302 C 
HETATM    3  N2  UNL     1      25.321   3.252  51.781  1.00  0.00    -0.302 N 
HETATM    4  H13 UNL     1      24.639   4.001  52.033  1.00  0.00     0.171 HD
ENDROOT
BRANCH   2   5
HETATM    5  C2  UNL     1      25.804   4.654  49.752  1.00  0.00    -0.005 C 
HETATM    6  C3  UNL     1      25.605   5.637  49.074  1.00  0.00    -0.095 C 
BRANCH   6   7
HETATM    7  C4  UNL     1      25.340   6.847  48.256  1.00  0.00     0.124 C 
BRANCH   7   8
HETATM    8  C5  UNL     1      26.668   7.336  47.755  1.00  0.00     0.284 C 
BRANCH   8   9
HETATM    9  N1  UNL     1      27.732   7.281  48.688  1.00  0.00     0.093 N 
HETATM   10  C6  UNL     1      29.008   6.905  48.131  1.00  0.00     0.298 C 
HETATM   11  C7  UNL     1      29.233   7.629  46.835  1.00  0.00     0.198 C 
HETATM   12  O2  UNL     1      28.980   8.971  47.031  1.00  0.00    -0.388 OA
HETATM   13  C8  UNL     1      28.956   9.376  48.342  1.00  0.00     0.198 C 
HETATM   14  C9  UNL     1      27.911   8.666  49.163  1.00  0.00     0.298 C 
ENDBRANCH   8   9
ENDBRANCH   7   8
ENDBRANCH   6   7
ENDBRANCH   2   5
BRANCH   3  15
HETATM   15  C10 UNL     1      25.518   2.115  52.595  1.00  0.00     0.106 A 
HETATM   16  C11 UNL     1      24.587   1.226  52.906  1.00  0.00     0.029 A 
HETATM   17  C12 UNL     1      25.136   0.155  53.783  1.00  0.00     0.109 A 
HETATM   18  C13 UNL     1      26.556   0.569  53.927  1.00  0.00     0.106 A 
HETATM   19  N3  UNL     1      27.266  -0.219  54.658  1.00  0.00    -0.246 NA
HETATM   20  N4  UNL     1      26.758   1.766  53.196  1.00  0.00    -0.331 N 
HETATM   21  H19 UNL     1      27.697   2.203  53.186  1.00  0.00     0.168 HD
BRANCH  19  22
HETATM   22  C14 UNL     1      28.649   0.058  54.883  1.00  0.00     0.372 C 
HETATM   23  F1  UNL     1      29.507  -0.828  54.225  1.00  0.00    -0.232 F 
ENDBRANCH  19  22
ENDBRANCH   3  15
TORSDOF 6
ENDMDL
MODEL 6
REMARK VINA RESULT:      -6.2      2.703      3.490
REMARK  6 active torsions:
REMARK  status: ('A' for Active; 'I' for Inactive)
REMARK    1  A    between atoms: C1_2  and  C2_3 
REMARK       I    between atoms: C1_2  and  N2_13 
REMARK    2  A    between atoms: C3_4  and  C4_5 
REMARK    3  A    between atoms: C4_5  and  C5_6 
REMARK    4  A    between atoms: C5_6  and  N1_7 
REMARK    5  A    between atoms: N2_13  and  C10_14 
REMARK    6  A    between atoms: N3_18  and  C14_19 
ROOT
HETATM    1  O1  UNL     1      23.965   2.588  52.254  1.00  0.00    -0.258 OA
HETATM    2  C1  UNL     1      25.101   2.159  51.862  1.00  0.00     0.302 C 
HETATM    3  N2  UNL     1      25.650   0.963  52.408  1.00  0.00    -0.302 N 
HETATM    4  H13 UNL     1      26.582   0.704  52.015  1.00  0.00     0.171 HD
ENDROOT
BRANCH   2   5
HETATM    5  C2  UNL     1      25.772   2.939  50.860  1.00  0.00    -0.005 C 
HETATM    6  C3  UNL     1      26.332   3.611  50.023  1.00  0.00    -0.095 C 
BRANCH   6   7
HETATM    7  C4  UNL     1      27.012   4.456  49.009  1.00  0.00     0.124 C 
BRANCH   7   8
HETATM    8  C5  UNL     1      26.459   5.844  49.155  1.00  0.00     0.284 C 
BRANCH   8   9
HETATM    9  N1  UNL     1      26.747   6.733  48.091  1.00  0.00     0.093 N 
HETATM   10  C6  UNL     1      25.903   7.900  48.029  1.00  0.00     0.298 C 
HETATM   11  C7  UNL     1      25.721   8.472  49.406  1.00  0.00     0.198 C 
HETATM   12  O2  UNL     1      26.961   8.598  49.998  1.00  0.00    -0.388 OA
HETATM   13  C8  UNL     1      28.028   8.542  49.136  1.00  0.00     0.198 C 
HETATM   14  C9  UNL     1      28.101   7.250  48.365  1.00  0.00     0.298 C 
ENDBRANCH   8   9
ENDBRANCH   7   8
ENDBRANCH   6   7
ENDBRANCH   2   5
BRANCH   3  15
HETATM   15  C10 UNL     1      25.009   0.179  53.392  1.00  0.00     0.106 A 
HETATM   16  C11 UNL     1      25.608  -0.389  54.427  1.00  0.00     0.029 A 
HETATM   17  C12 UNL     1      24.634  -1.144  55.265  1.00  0.00     0.109 A 
HETATM   18  C13 UNL     1      23.358  -0.911  54.542  1.00  0.00     0.106 A 
HETATM   19  N3  UNL     1      22.332  -1.473  55.084  1.00  0.00    -0.246 NA
HETATM   20  N4  UNL     1      23.616  -0.106  53.406  1.00  0.00    -0.331 N 
HETATM   21  H19 UNL     1      22.834   0.156  52.779  1.00  0.00     0.168 HD
BRANCH  19  22
HETATM   22  C14 UNL     1      21.039  -1.334  54.495  1.00  0.00     0.372 C 
HETATM   23  F1  UNL     1      20.565  -0.018  54.497  1.00  0.00    -0.232 F 
ENDBRANCH  19  22
ENDBRANCH   3  15
TORSDOF 6
ENDMDL
MODEL 7
REMARK VINA RESULT:      -6.1      2.478      3.121
REMARK  6 active torsions:
REMARK  status: ('A' for Active; 'I' for Inactive)
REMARK    1  A    between atoms: C1_2  and  C2_3 
REMARK       I    between atoms: C1_2  and  N2_13 
REMARK    2  A    between atoms: C3_4  and  C4_5 
REMARK    3  A    between atoms: C4_5  and  C5_6 
REMARK    4  A    between atoms: C5_6  and  N1_7 
REMARK    5  A    between atoms: N2_13  and  C10_14 
REMARK    6  A    between atoms: N3_18  and  C14_19 
ROOT
HETATM    1  O1  UNL     1      24.862   2.802  50.145  1.00  0.00    -0.258 OA
HETATM    2  C1  UNL     1      26.118   2.914  50.334  1.00  0.00     0.302 C 
HETATM    3  N2  UNL     1      26.792   2.054  51.249  1.00  0.00    -0.302 N 
HETATM    4  H13 UNL     1      27.818   2.232  51.325  1.00  0.00     0.171 HD
ENDROOT
BRANCH   2   5
HETATM    5  C2  UNL     1      26.792   3.936  49.584  1.00  0.00    -0.005 C 
HETATM    6  C3  UNL     1      27.351   4.810  48.959  1.00  0.00    -0.095 C 
BRANCH   6   7
HETATM    7  C4  UNL     1      28.024   5.899  48.206  1.00  0.00     0.124 C 
BRANCH   7   8
HETATM    8  C5  UNL     1      27.240   7.154  48.460  1.00  0.00     0.284 C 
BRANCH   8   9
HETATM    9  N1  UNL     1      27.919   8.163  49.186  1.00  0.00     0.093 N 
HETATM   10  C6  UNL     1      28.665   9.095  48.377  1.00  0.00     0.298 C 
HETATM   11  C7  UNL     1      27.849   9.502  47.184  1.00  0.00     0.198 C 
HETATM   12  O2  UNL     1      26.593   9.877  47.616  1.00  0.00    -0.388 OA
HETATM   13  C8  UNL     1      26.493  10.143  48.959  1.00  0.00     0.198 C 
HETATM   14  C9  UNL     1      26.861   8.967  49.826  1.00  0.00     0.298 C 
ENDBRANCH   8   9
ENDBRANCH   7   8
ENDBRANCH   6   7
ENDBRANCH   2   5
BRANCH   3  15
HETATM   15  C10 UNL     1      26.152   1.042  51.998  1.00  0.00     0.106 A 
HETATM   16  C11 UNL     1      26.743  -0.035  52.491  1.00  0.00     0.029 A 
HETATM   17  C12 UNL     1      25.771  -0.892  53.226  1.00  0.00     0.109 A 
HETATM   18  C13 UNL     1      24.508  -0.124  53.082  1.00  0.00     0.106 A 
HETATM   19  N3  UNL     1      23.489  -0.670  53.652  1.00  0.00    -0.246 NA
HETATM   20  N4  UNL     1      24.769   1.046  52.329  1.00  0.00    -0.331 N 
HETATM   21  H19 UNL     1      23.995   1.704  52.127  1.00  0.00     0.168 HD
BRANCH  19  22
HETATM   22  C14 UNL     1      22.208  -0.041  53.593  1.00  0.00     0.372 C 
HETATM   23  F1  UNL     1      21.494  -0.341  52.429  1.00  0.00    -0.232 F 
ENDBRANCH  19  22
ENDBRANCH   3  15
TORSDOF 6
ENDMDL
MODEL 8
REMARK VINA RESULT:      -6.1      4.025      9.391
REMARK  6 active torsions:
REMARK  status: ('A' for Active; 'I' for Inactive)
REMARK    1  A    between atoms: C1_2  and  C2_3 
REMARK       I    between atoms: C1_2  and  N2_13 
REMARK    2  A    between atoms: C3_4  and  C4_5 
REMARK    3  A    between atoms: C4_5  and  C5_6 
REMARK    4  A    between atoms: C5_6  and  N1_7 
REMARK    5  A    between atoms: N2_13  and  C10_14 
REMARK    6  A    between atoms: N3_18  and  C14_19 
ROOT
HETATM    1  O1  UNL     1      29.834   4.762  47.805  1.00  0.00    -0.258 OA
HETATM    2  C1  UNL     1      29.158   5.633  48.447  1.00  0.00     0.302 C 
HETATM    3  N2  UNL     1      29.777   6.825  48.922  1.00  0.00    -0.302 N 
HETATM    4  H13 UNL     1      29.130   7.466  49.433  1.00  0.00     0.171 HD
ENDROOT
BRANCH   2   5
HETATM    5  C2  UNL     1      27.767   5.339  48.656  1.00  0.00    -0.005 C 
HETATM    6  C3  UNL     1      26.593   5.106  48.840  1.00  0.00    -0.095 C 
BRANCH   6   7
HETATM    7  C4  UNL     1      25.151   4.844  49.075  1.00  0.00     0.124 C 
BRANCH   7   8
HETATM    8  C5  UNL     1      25.057   3.528  49.790  1.00  0.00     0.284 C 
BRANCH   8   9
HETATM    9  N1  UNL     1      25.434   3.544  51.155  1.00  0.00     0.093 N 
HETATM   10  C6  UNL     1      24.334   3.546  52.089  1.00  0.00     0.298 C 
HETATM   11  C7  UNL     1      23.290   2.560  51.649  1.00  0.00     0.198 C 
HETATM   12  O2  UNL     1      23.908   1.357  51.376  1.00  0.00    -0.388 OA
HETATM   13  C8  UNL     1      25.173   1.221  51.889  1.00  0.00     0.198 C 
HETATM   14  C9  UNL     1      26.134   2.267  51.387  1.00  0.00     0.298 C 
ENDBRANCH   8   9
ENDBRANCH   7   8
ENDBRANCH   6   7
ENDBRANCH   2   5
BRANCH   3  15
HETATM   15  C10 UNL     1      31.141   7.135  48.730  1.00  0.00     0.106 A 
HETATM   16  C11 UNL     1      31.611   8.313  48.351  1.00  0.00     0.029 A 
HETATM   17  C12 UNL     1      33.097   8.291  48.246  1.00  0.00     0.109 A 
HETATM   18  C13 UNL     1      33.415   6.893  48.636  1.00  0.00     0.106 A 
HETATM   19  N3  UNL     1      34.673   6.614  48.628  1.00  0.00    -0.246 NA
HETATM   20  N4  UNL     1      32.205   6.213  48.922  1.00  0.00    -0.331 N 
HETATM   21  H19 UNL     1      32.237   5.219  49.211  1.00  0.00     0.168 HD
BRANCH  19  22
HETATM   22  C14 UNL     1      35.122   5.305  48.981  1.00  0.00     0.372 C 
HETATM   23  F1  UNL     1      34.881   4.348  47.991  1.00  0.00    -0.232 F 
ENDBRANCH  19  22
ENDBRANCH   3  15
TORSDOF 6
ENDMDL
MODEL 9
REMARK VINA RESULT:      -6.1      5.254      7.092
REMARK  6 active torsions:
REMARK  status: ('A' for Active; 'I' for Inactive)
REMARK    1  A    between atoms: C1_2  and  C2_3 
REMARK       I    between atoms: C1_2  and  N2_13 
REMARK    2  A    between atoms: C3_4  and  C4_5 
REMARK    3  A    between atoms: C4_5  and  C5_6 
REMARK    4  A    between atoms: C5_6  and  N1_7 
REMARK    5  A    between atoms: N2_13  and  C10_14 
REMARK    6  A    between atoms: N3_18  and  C14_19 
ROOT
HETATM    1  O1  UNL     1      21.644   2.510  52.254  1.00  0.00    -0.258 OA
HETATM    2  C1  UNL     1      22.429   1.517  52.095  1.00  0.00     0.302 C 
HETATM    3  N2  UNL     1      21.930   0.184  52.140  1.00  0.00    -0.302 N 
HETATM    4  H13 UNL     1      22.659  -0.549  51.997  1.00  0.00     0.171 HD
ENDROOT
BRANCH   2   5
HETATM    5  C2  UNL     1      23.815   1.824  51.875  1.00  0.00    -0.005 C 
HETATM    6  C3  UNL     1      24.981   2.098  51.695  1.00  0.00    -0.095 C 
BRANCH   6   7
HETATM    7  C4  UNL     1      26.407   2.456  51.487  1.00  0.00     0.124 C 
BRANCH   7   8
HETATM    8  C5  UNL     1      27.224   1.462  52.261  1.00  0.00     0.284 C 
BRANCH   8   9
HETATM    9  N1  UNL     1      27.398   1.751  53.636  1.00  0.00     0.093 N 
HETATM   10  C6  UNL     1      26.549   0.999  54.527  1.00  0.00     0.298 C 
HETATM   11  C7  UNL     1      26.509  -0.440  54.101  1.00  0.00     0.198 C 
HETATM   12  O2  UNL     1      27.803  -0.879  53.912  1.00  0.00    -0.388 OA
HETATM   13  C8  UNL     1      28.775  -0.093  54.478  1.00  0.00     0.198 C 
HETATM   14  C9  UNL     1      28.772   1.322  53.959  1.00  0.00     0.298 C 
ENDBRANCH   8   9
ENDBRANCH   7   8
ENDBRANCH   6   7
ENDBRANCH   2   5
BRANCH   3  15
HETATM   15  C10 UNL     1      20.573  -0.143  52.355  1.00  0.00     0.106 A 
HETATM   16  C11 UNL     1      20.091  -0.739  53.434  1.00  0.00     0.029 A 
HETATM   17  C12 UNL     1      18.618  -0.932  53.330  1.00  0.00     0.109 A 
HETATM   18  C13 UNL     1      18.320  -0.338  52.002  1.00  0.00     0.106 A 
HETATM   19  N3  UNL     1      17.075  -0.379  51.670  1.00  0.00    -0.246 NA
HETATM   20  N4  UNL     1      19.528   0.132  51.431  1.00  0.00    -0.331 N 
HETATM   21  H19 UNL     1      19.509   0.578  50.496  1.00  0.00     0.168 HD
BRANCH  19  22
HETATM   22  C14 UNL     1      16.645   0.156  50.418  1.00  0.00     0.372 C 
HETATM   23  F1  UNL     1      16.961  -0.659  49.327  1.00  0.00    -0.232 F 
ENDBRANCH  19  22
ENDBRANCH   3  15
TORSDOF 6
ENDMDL
