MODEL 1
REMARK VINA RESULT:      -8.3      0.000      0.000
REMARK  7 active torsions:
REMARK  status: ('A' for Active; 'I' for Inactive)
REMARK    1  A    between atoms: N1_1  and  C1_2 
REMARK    2  A    between atoms: C1_2  and  N2_3 
REMARK    3  A    between atoms: N2_3  and  C2_4 
REMARK    4  A    between atoms: C2_4  and  N3_5 
REMARK    5  A    between atoms: N3_5  and  C3_6 
REMARK    6  A    between atoms: C14_19  and  O2_20 
REMARK    7  A    between atoms: O2_20  and  C15_21 
ROOT
HETATM    1  C2  UNL     1      24.962   0.983  52.343  1.00  0.00     0.163 C 
HETATM    2  C9  UNL     1      25.370   1.943  51.569  1.00  0.00     0.077 C 
HETATM    3  C10 UNL     1      26.711   1.997  51.017  1.00  0.00     0.236 C 
HETATM    4  O1  UNL     1      26.797   2.798  49.851  1.00  0.00    -0.345 OA
HETATM    5  C11 UNL     1      26.465   4.113  49.649  1.00  0.00     0.077 A 
HETATM    6  C12 UNL     1      27.407   4.723  48.812  1.00  0.00     0.040 A 
HETATM    7  C13 UNL     1      27.168   6.077  48.545  1.00  0.00     0.040 A 
HETATM    8  C14 UNL     1      26.090   6.761  49.064  1.00  0.00     0.079 A 
HETATM    9  C16 UNL     1      25.173   6.141  49.885  1.00  0.00     0.048 A 
HETATM   10  C17 UNL     1      25.394   4.809  50.155  1.00  0.00    -0.004 A 
HETATM   11  C18 UNL     1      24.306   4.329  51.035  1.00  0.00     0.161 C 
HETATM   12  N4  UNL     1      24.360   2.936  51.355  1.00  0.00    -0.384 N 
HETATM   13  H14 UNL     1      23.374   2.532  51.469  1.00  0.00     0.160 HD
ENDROOT
BRANCH   1  14
HETATM   14  N2  UNL     1      26.285   0.420  52.192  1.00  0.00    -0.168 NA
BRANCH  14  15
HETATM   15  C1  UNL     1      26.636  -0.674  52.744  1.00  0.00     0.095 C 
BRANCH  15  16
HETATM   16  N1  UNL     1      26.940  -1.879  53.036  1.00  0.00    -0.241 NA
HETATM   17  H1  UNL     1      27.226  -2.152  54.001  1.00  0.00     0.199 HD
ENDBRANCH  15  16
ENDBRANCH  14  15
ENDBRANCH   1  14
BRANCH   1  18
HETATM   18  N3  UNL     1      24.345   0.035  53.184  1.00  0.00    -0.339 N 
HETATM   19  H2  UNL     1      25.123  -0.438  53.736  1.00  0.00     0.167 HD
BRANCH  18  20
HETATM   20  C3  UNL     1      22.935  -0.194  53.233  1.00  0.00     0.035 A 
HETATM   21  C4  UNL     1      22.615  -0.986  54.328  1.00  0.00     0.029 A 
HETATM   22  C5  UNL     1      21.331  -1.373  54.621  1.00  0.00     0.004 A 
HETATM   23  C6  UNL     1      20.306  -0.958  53.796  1.00  0.00     0.019 A 
HETATM   24  C7  UNL     1      20.613  -0.156  52.687  1.00  0.00     0.013 A 
HETATM   25 BR1  UNL     1      19.261   0.460  51.492  1.00  0.00    -0.051 Br
HETATM   26  C8  UNL     1      21.925   0.215  52.419  1.00  0.00     0.048 A 
ENDBRANCH  18  20
ENDBRANCH   1  18
BRANCH   8  27
HETATM   27  O2  UNL     1      26.087   8.111  48.642  1.00  0.00    -0.255 OA
BRANCH  27  28
HETATM   28  C15 UNL     1      26.378   9.146  49.570  1.00  0.00     0.530 C 
HETATM   29  F1  UNL     1      27.477   8.828  50.342  1.00  0.00    -0.144 F 
HETATM   30  F2  UNL     1      26.557  10.359  48.969  1.00  0.00    -0.144 F 
HETATM   31  F3  UNL     1      25.296   9.244  50.419  1.00  0.00    -0.144 F 
ENDBRANCH  27  28
ENDBRANCH   8  27
TORSDOF 7
ENDMDL
MODEL 2
REMARK VINA RESULT:      -7.8      5.518      9.369
REMARK  7 active torsions:
REMARK  status: ('A' for Active; 'I' for Inactive)
REMARK    1  A    between atoms: N1_1  and  C1_2 
REMARK    2  A    between atoms: C1_2  and  N2_3 
REMARK    3  A    between atoms: N2_3  and  C2_4 
REMARK    4  A    between atoms: C2_4  and  N3_5 
REMARK    5  A    between atoms: N3_5  and  C3_6 
REMARK    6  A    between atoms: C14_19  and  O2_20 
REMARK    7  A    between atoms: O2_20  and  C15_21 
ROOT
HETATM    1  C2  UNL     1      24.163   6.344  51.045  1.00  0.00     0.163 C 
HETATM    2  C9  UNL     1      23.628   5.170  51.193  1.00  0.00     0.077 C 
HETATM    3  C10 UNL     1      22.213   4.916  50.992  1.00  0.00     0.236 C 
HETATM    4  O1  UNL     1      21.930   3.557  50.710  1.00  0.00    -0.345 OA
HETATM    5  C11 UNL     1      22.218   2.421  51.424  1.00  0.00     0.077 A 
HETATM    6  C12 UNL     1      21.146   1.523  51.351  1.00  0.00     0.040 A 
HETATM    7  C13 UNL     1      21.332   0.327  52.054  1.00  0.00     0.040 A 
HETATM    8  C14 UNL     1      22.479   0.050  52.767  1.00  0.00     0.079 A 
HETATM    9  C16 UNL     1      23.522   0.948  52.825  1.00  0.00     0.048 A 
HETATM   10  C17 UNL     1      23.356   2.128  52.135  1.00  0.00    -0.004 A 
HETATM   11  C18 UNL     1      24.577   2.943  52.311  1.00  0.00     0.161 C 
HETATM   12  N4  UNL     1      24.584   4.182  51.596  1.00  0.00    -0.384 N 
HETATM   13  H14 UNL     1      25.576   4.439  51.284  1.00  0.00     0.160 HD
ENDROOT
BRANCH   1  14
HETATM   14  N2  UNL     1      22.836   6.809  50.709  1.00  0.00    -0.168 NA
BRANCH  14  15
HETATM   15  C1  UNL     1      22.628   7.812  49.953  1.00  0.00     0.095 C 
BRANCH  15  16
HETATM   16  N1  UNL     1      22.264   8.913  49.417  1.00  0.00    -0.241 NA
HETATM   17  H1  UNL     1      21.952   8.960  48.423  1.00  0.00     0.199 HD
ENDBRANCH  15  16
ENDBRANCH  14  15
ENDBRANCH   1  14
BRANCH   1  18
HETATM   18  N3  UNL     1      24.917   7.530  50.929  1.00  0.00    -0.339 N 
HETATM   19  H2  UNL     1      24.451   8.251  51.558  1.00  0.00     0.167 HD
BRANCH  18  20
HETATM   20  C3  UNL     1      26.075   7.664  50.103  1.00  0.00     0.035 A 
HETATM   21  C4  UNL     1      26.211   6.552  49.283  1.00  0.00     0.029 A 
HETATM   22  C5  UNL     1      27.241   6.404  48.387  1.00  0.00     0.004 A 
HETATM   23  C6  UNL     1      28.187   7.403  48.291  1.00  0.00     0.019 A 
HETATM   24  C7  UNL     1      28.063   8.534  49.113  1.00  0.00     0.013 A 
HETATM   25 BR1  UNL     1      29.326   9.960  49.049  1.00  0.00    -0.051 Br
HETATM   26  C8  UNL     1      27.008   8.649  50.009  1.00  0.00     0.048 A 
ENDBRANCH  18  20
ENDBRANCH   1  18
BRANCH   8  27
HETATM   27  O2  UNL     1      22.405  -1.220  53.385  1.00  0.00    -0.255 OA
BRANCH  27  28
HETATM   28  C15 UNL     1      21.875  -1.341  54.697  1.00  0.00     0.530 C 
HETATM   29  F1  UNL     1      22.727  -2.055  55.515  1.00  0.00    -0.144 F 
HETATM   30  F2  UNL     1      21.579  -0.133  55.260  1.00  0.00    -0.144 F 
HETATM   31  F3  UNL     1      20.706  -2.065  54.596  1.00  0.00    -0.144 F 
ENDBRANCH  27  28
ENDBRANCH   8  27
TORSDOF 7
ENDMDL
MODEL 3
REMARK VINA RESULT:      -7.8      6.680      9.751
REMARK  7 active torsions:
REMARK  status: ('A' for Active; 'I' for Inactive)
REMARK    1  A    between atoms: N1_1  and  C1_2 
REMARK    2  A    between atoms: C1_2  and  N2_3 
REMARK    3  A    between atoms: N2_3  and  C2_4 
REMARK    4  A    between atoms: C2_4  and  N3_5 
REMARK    5  A    between atoms: N3_5  and  C3_6 
REMARK    6  A    between atoms: C14_19  and  O2_20 
REMARK    7  A    between atoms: O2_20  and  C15_21 
ROOT
HETATM    1  C2  UNL     1      23.760   1.886  52.890  1.00  0.00     0.163 C 
HETATM    2  C9  UNL     1      22.600   1.313  52.782  1.00  0.00     0.077 C 
HETATM    3  C10 UNL     1      21.447   1.968  52.192  1.00  0.00     0.236 C 
HETATM    4  O1  UNL     1      20.473   1.054  51.720  1.00  0.00    -0.345 OA
HETATM    5  C11 UNL     1      19.798   0.056  52.377  1.00  0.00     0.077 A 
HETATM    6  C12 UNL     1      18.468   0.009  51.940  1.00  0.00     0.040 A 
HETATM    7  C13 UNL     1      17.682  -0.974  52.554  1.00  0.00     0.040 A 
HETATM    8  C14 UNL     1      18.174  -1.831  53.516  1.00  0.00     0.079 A 
HETATM    9  C16 UNL     1      19.487  -1.768  53.929  1.00  0.00     0.048 A 
HETATM   10  C17 UNL     1      20.273  -0.808  53.333  1.00  0.00    -0.004 A 
HETATM   11  C18 UNL     1      21.635  -0.908  53.899  1.00  0.00     0.161 C 
HETATM   12  N4  UNL     1      22.593  -0.011  53.329  1.00  0.00    -0.384 N 
HETATM   13  H14 UNL     1      23.570  -0.452  53.315  1.00  0.00     0.160 HD
ENDROOT
BRANCH   1  14
HETATM   14  N2  UNL     1      23.152   3.036  52.261  1.00  0.00    -0.168 NA
BRANCH  14  15
HETATM   15  C1  UNL     1      23.609   4.218  52.394  1.00  0.00     0.095 C 
BRANCH  15  16
HETATM   16  N1  UNL     1      23.813   5.452  52.651  1.00  0.00    -0.241 NA
HETATM   17  H1  UNL     1      23.523   6.203  51.989  1.00  0.00     0.199 HD
ENDBRANCH  15  16
ENDBRANCH  14  15
ENDBRANCH   1  14
BRANCH   1  18
HETATM   18  N3  UNL     1      25.082   2.337  53.087  1.00  0.00    -0.339 N 
HETATM   19  H2  UNL     1      25.035   3.398  53.159  1.00  0.00     0.167 HD
BRANCH  18  20
HETATM   20  C3  UNL     1      26.219   1.474  53.166  1.00  0.00     0.035 A 
HETATM   21  C4  UNL     1      27.347   2.200  53.523  1.00  0.00     0.029 A 
HETATM   22  C5  UNL     1      28.588   1.630  53.667  1.00  0.00     0.004 A 
HETATM   23  C6  UNL     1      28.727   0.275  53.451  1.00  0.00     0.019 A 
HETATM   24  C7  UNL     1      27.595  -0.472  53.091  1.00  0.00     0.013 A 
HETATM   25 BR1  UNL     1      27.696  -2.348  52.769  1.00  0.00    -0.051 Br
HETATM   26  C8  UNL     1      26.355   0.138  52.952  1.00  0.00     0.048 A 
ENDBRANCH  18  20
ENDBRANCH   1  18
BRANCH   8  27
HETATM   27  O2  UNL     1      17.173  -2.720  53.972  1.00  0.00    -0.255 OA
BRANCH  27  28
HETATM   28  C15 UNL     1      17.035  -4.001  53.374  1.00  0.00     0.530 C 
HETATM   29  F1  UNL     1      16.057  -3.994  52.401  1.00  0.00    -0.144 F 
HETATM   30  F2  UNL     1      18.209  -4.473  52.862  1.00  0.00    -0.144 F 
HETATM   31  F3  UNL     1      16.621  -4.867  54.364  1.00  0.00    -0.144 F 
ENDBRANCH  27  28
ENDBRANCH   8  27
TORSDOF 7
ENDMDL
MODEL 4
REMARK VINA RESULT:      -7.7      4.880      8.433
REMARK  7 active torsions:
REMARK  status: ('A' for Active; 'I' for Inactive)
REMARK    1  A    between atoms: N1_1  and  C1_2 
REMARK    2  A    between atoms: C1_2  and  N2_3 
REMARK    3  A    between atoms: N2_3  and  C2_4 
REMARK    4  A    between atoms: C2_4  and  N3_5 
REMARK    5  A    between atoms: N3_5  and  C3_6 
REMARK    6  A    between atoms: C14_19  and  O2_20 
REMARK    7  A    between atoms: O2_20  and  C15_21 
ROOT
HETATM    1  C2  UNL     1      25.846   5.156  49.739  1.00  0.00     0.163 C 
HETATM    2  C9  UNL     1      25.707   4.071  50.439  1.00  0.00     0.077 C 
HETATM    3  C10 UNL     1      26.513   2.884  50.224  1.00  0.00     0.236 C 
HETATM    4  O1  UNL     1      26.564   2.038  51.360  1.00  0.00    -0.345 OA
HETATM    5  C11 UNL     1      25.554   1.444  52.073  1.00  0.00     0.077 A 
HETATM    6  C12 UNL     1      25.930   0.150  52.453  1.00  0.00     0.040 A 
HETATM    7  C13 UNL     1      24.964  -0.553  53.183  1.00  0.00     0.040 A 
HETATM    8  C14 UNL     1      23.735  -0.017  53.506  1.00  0.00     0.079 A 
HETATM    9  C16 UNL     1      23.386   1.260  53.124  1.00  0.00     0.048 A 
HETATM   10  C17 UNL     1      24.326   1.965  52.407  1.00  0.00    -0.004 A 
HETATM   11  C18 UNL     1      23.771   3.301  52.104  1.00  0.00     0.161 C 
HETATM   12  N4  UNL     1      24.662   4.182  51.412  1.00  0.00    -0.384 N 
HETATM   13  H14 UNL     1      24.494   5.200  51.702  1.00  0.00     0.160 HD
ENDROOT
BRANCH   1  14
HETATM   14  N2  UNL     1      26.893   4.457  49.028  1.00  0.00    -0.168 NA
BRANCH  14  15
HETATM   15  C1  UNL     1      27.999   5.006  48.716  1.00  0.00     0.095 C 
BRANCH  15  16
HETATM   16  N1  UNL     1      29.138   5.582  48.686  1.00  0.00    -0.241 NA
HETATM   17  H1  UNL     1      29.834   5.459  49.452  1.00  0.00     0.199 HD
ENDBRANCH  15  16
ENDBRANCH  14  15
ENDBRANCH   1  14
BRANCH   1  18
HETATM   18  N3  UNL     1      25.854   6.410  49.094  1.00  0.00    -0.339 N 
HETATM   19  H2  UNL     1      26.675   6.956  49.496  1.00  0.00     0.167 HD
BRANCH  18  20
HETATM   20  C3  UNL     1      24.908   6.804  48.097  1.00  0.00     0.035 A 
HETATM   21  C4  UNL     1      25.478   7.731  47.235  1.00  0.00     0.029 A 
HETATM   22  C5  UNL     1      24.796   8.291  46.183  1.00  0.00     0.004 A 
HETATM   23  C6  UNL     1      23.486   7.919  45.966  1.00  0.00     0.019 A 
HETATM   24  C7  UNL     1      22.897   6.982  46.828  1.00  0.00     0.013 A 
HETATM   25 BR1  UNL     1      21.091   6.413  46.604  1.00  0.00    -0.051 Br
HETATM   26  C8  UNL     1      23.616   6.437  47.884  1.00  0.00     0.048 A 
ENDBRANCH  18  20
ENDBRANCH   1  18
BRANCH   8  27
HETATM   27  O2  UNL     1      22.951  -0.937  54.242  1.00  0.00    -0.255 OA
BRANCH  27  28
HETATM   28  C15 UNL     1      21.537  -0.816  54.250  1.00  0.00     0.530 C 
HETATM   29  F1  UNL     1      21.129   0.211  55.077  1.00  0.00    -0.144 F 
HETATM   30  F2  UNL     1      21.014  -0.653  53.000  1.00  0.00    -0.144 F 
HETATM   31  F3  UNL     1      21.034  -1.987  54.776  1.00  0.00    -0.144 F 
ENDBRANCH  27  28
ENDBRANCH   8  27
TORSDOF 7
ENDMDL
MODEL 5
REMARK VINA RESULT:      -7.7      5.133      8.536
REMARK  7 active torsions:
REMARK  status: ('A' for Active; 'I' for Inactive)
REMARK    1  A    between atoms: N1_1  and  C1_2 
REMARK    2  A    between atoms: C1_2  and  N2_3 
REMARK    3  A    between atoms: N2_3  and  C2_4 
REMARK    4  A    between atoms: C2_4  and  N3_5 
REMARK    5  A    between atoms: N3_5  and  C3_6 
REMARK    6  A    between atoms: C14_19  and  O2_20 
REMARK    7  A    between atoms: O2_20  and  C15_21 
ROOT
HETATM    1  C2  UNL     1      23.716   4.109  49.923  1.00  0.00     0.163 C 
HETATM    2  C9  UNL     1      24.209   3.142  50.636  1.00  0.00     0.077 C 
HETATM    3  C10 UNL     1      23.400   2.319  51.517  1.00  0.00     0.236 C 
HETATM    4  O1  UNL     1      23.992   1.062  51.796  1.00  0.00    -0.345 OA
HETATM    5  C11 UNL     1      25.216   0.755  52.334  1.00  0.00     0.077 A 
HETATM    6  C12 UNL     1      25.099  -0.336  53.203  1.00  0.00     0.040 A 
HETATM    7  C13 UNL     1      26.294  -0.731  53.817  1.00  0.00     0.040 A 
HETATM    8  C14 UNL     1      27.496  -0.097  53.587  1.00  0.00     0.079 A 
HETATM    9  C16 UNL     1      27.589   0.975  52.727  1.00  0.00     0.048 A 
HETATM   10  C17 UNL     1      26.423   1.374  52.114  1.00  0.00    -0.004 A 
HETATM   11  C18 UNL     1      26.732   2.519  51.231  1.00  0.00     0.161 C 
HETATM   12  N4  UNL     1      25.625   3.010  50.469  1.00  0.00    -0.384 N 
HETATM   13  H14 UNL     1      25.950   3.383  49.519  1.00  0.00     0.160 HD
ENDROOT
BRANCH   1  14
HETATM   14  N2  UNL     1      22.436   3.763  50.500  1.00  0.00    -0.168 NA
BRANCH  14  15
HETATM   15  C1  UNL     1      21.378   4.441  50.289  1.00  0.00     0.095 C 
BRANCH  15  16
HETATM   16  N1  UNL     1      20.386   5.245  50.327  1.00  0.00    -0.241 NA
HETATM   17  H1  UNL     1      19.579   5.086  50.966  1.00  0.00     0.199 HD
ENDBRANCH  15  16
ENDBRANCH  14  15
ENDBRANCH   1  14
BRANCH   1  18
HETATM   18  N3  UNL     1      23.365   5.183  49.079  1.00  0.00    -0.339 N 
HETATM   19  H2  UNL     1      22.304   5.168  48.989  1.00  0.00     0.167 HD
BRANCH  18  20
HETATM   20  C3  UNL     1      24.310   6.082  48.493  1.00  0.00     0.035 A 
HETATM   21  C4  UNL     1      23.660   6.982  47.659  1.00  0.00     0.029 A 
HETATM   22  C5  UNL     1      24.320   7.959  46.956  1.00  0.00     0.004 A 
HETATM   23  C6  UNL     1      25.690   8.058  47.080  1.00  0.00     0.019 A 
HETATM   24  C7  UNL     1      26.360   7.156  47.919  1.00  0.00     0.013 A 
HETATM   25 BR1  UNL     1      28.252   7.216  48.147  1.00  0.00    -0.051 Br
HETATM   26  C8  UNL     1      25.661   6.178  48.615  1.00  0.00     0.048 A 
ENDBRANCH  18  20
ENDBRANCH   1  18
BRANCH   8  27
HETATM   27  O2  UNL     1      28.541  -0.691  54.334  1.00  0.00    -0.255 OA
BRANCH  27  28
HETATM   28  C15 UNL     1      29.748  -1.067  53.689  1.00  0.00     0.530 C 
HETATM   29  F1  UNL     1      30.424   0.037  53.211  1.00  0.00    -0.144 F 
HETATM   30  F2  UNL     1      30.565  -1.810  54.492  1.00  0.00    -0.144 F 
HETATM   31  F3  UNL     1      29.402  -1.838  52.600  1.00  0.00    -0.144 F 
ENDBRANCH  27  28
ENDBRANCH   8  27
TORSDOF 7
ENDMDL
MODEL 6
REMARK VINA RESULT:      -7.6      5.449      9.339
REMARK  7 active torsions:
REMARK  status: ('A' for Active; 'I' for Inactive)
REMARK    1  A    between atoms: N1_1  and  C1_2 
REMARK    2  A    between atoms: C1_2  and  N2_3 
REMARK    3  A    between atoms: N2_3  and  C2_4 
REMARK    4  A    between atoms: C2_4  and  N3_5 
REMARK    5  A    between atoms: N3_5  and  C3_6 
REMARK    6  A    between atoms: C14_19  and  O2_20 
REMARK    7  A    between atoms: O2_20  and  C15_21 
ROOT
HETATM    1  C2  UNL     1      26.399   6.377  49.069  1.00  0.00     0.163 C 
HETATM    2  C9  UNL     1      25.777   5.481  49.775  1.00  0.00     0.077 C 
HETATM    3  C10 UNL     1      24.704   5.807  50.696  1.00  0.00     0.236 C 
HETATM    4  O1  UNL     1      23.855   4.705  50.967  1.00  0.00    -0.345 OA
HETATM    5  C11 UNL     1      24.146   3.458  51.460  1.00  0.00     0.077 A 
HETATM    6  C12 UNL     1      23.143   3.046  52.347  1.00  0.00     0.040 A 
HETATM    7  C13 UNL     1      23.345   1.784  52.918  1.00  0.00     0.040 A 
HETATM    8  C14 UNL     1      24.445   1.003  52.634  1.00  0.00     0.079 A 
HETATM    9  C16 UNL     1      25.420   1.427  51.758  1.00  0.00     0.048 A 
HETATM   10  C17 UNL     1      25.234   2.666  51.186  1.00  0.00    -0.004 A 
HETATM   11  C18 UNL     1      26.371   2.931  50.278  1.00  0.00     0.161 C 
HETATM   12  N4  UNL     1      26.290   4.163  49.554  1.00  0.00    -0.384 N 
HETATM   13  H14 UNL     1      26.742   4.068  48.587  1.00  0.00     0.160 HD
ENDROOT
BRANCH   1  14
HETATM   14  N2  UNL     1      25.531   7.347  49.699  1.00  0.00    -0.168 NA
BRANCH  14  15
HETATM   15  C1  UNL     1      25.913   8.526  49.992  1.00  0.00     0.095 C 
BRANCH  15  16
HETATM   16  N1  UNL     1      26.471   9.573  50.466  1.00  0.00    -0.241 NA
HETATM   17  H1  UNL     1      27.503   9.713  50.415  1.00  0.00     0.199 HD
ENDBRANCH  15  16
ENDBRANCH  14  15
ENDBRANCH   1  14
BRANCH   1  18
HETATM   18  N3  UNL     1      27.176   7.198  48.227  1.00  0.00    -0.339 N 
HETATM   19  H2  UNL     1      26.501   7.858  47.734  1.00  0.00     0.167 HD
BRANCH  18  20
HETATM   20  C3  UNL     1      28.598   7.105  48.108  1.00  0.00     0.035 A 
HETATM   21  C4  UNL     1      28.989   5.773  48.069  1.00  0.00     0.029 A 
HETATM   22  C5  UNL     1      30.301   5.382  47.965  1.00  0.00     0.004 A 
HETATM   23  C6  UNL     1      31.280   6.351  47.895  1.00  0.00     0.019 A 
HETATM   24  C7  UNL     1      30.900   7.700  47.932  1.00  0.00     0.013 A 
HETATM   25 BR1  UNL     1      32.187   9.105  47.844  1.00  0.00    -0.051 Br
HETATM   26  C8  UNL     1      29.563   8.060  48.040  1.00  0.00     0.048 A 
ENDBRANCH  18  20
ENDBRANCH   1  18
BRANCH   8  27
HETATM   27  O2  UNL     1      24.405  -0.218  53.347  1.00  0.00    -0.255 OA
BRANCH  27  28
HETATM   28  C15 UNL     1      25.462  -0.559  54.231  1.00  0.00     0.530 C 
HETATM   29  F1  UNL     1      26.424  -1.314  53.591  1.00  0.00    -0.144 F 
HETATM   30  F2  UNL     1      26.031   0.534  54.819  1.00  0.00    -0.144 F 
HETATM   31  F3  UNL     1      24.920  -1.347  55.225  1.00  0.00    -0.144 F 
ENDBRANCH  27  28
ENDBRANCH   8  27
TORSDOF 7
ENDMDL
MODEL 7
REMARK VINA RESULT:      -7.6      5.366      9.345
REMARK  7 active torsions:
REMARK  status: ('A' for Active; 'I' for Inactive)
REMARK    1  A    between atoms: N1_1  and  C1_2 
REMARK    2  A    between atoms: C1_2  and  N2_3 
REMARK    3  A    between atoms: N2_3  and  C2_4 
REMARK    4  A    between atoms: C2_4  and  N3_5 
REMARK    5  A    between atoms: N3_5  and  C3_6 
REMARK    6  A    between atoms: C14_19  and  O2_20 
REMARK    7  A    between atoms: O2_20  and  C15_21 
ROOT
HETATM    1  C2  UNL     1      26.995   6.786  49.064  1.00  0.00     0.163 C 
HETATM    2  C9  UNL     1      26.184   5.964  49.660  1.00  0.00     0.077 C 
HETATM    3  C10 UNL     1      25.098   6.407  50.514  1.00  0.00     0.236 C 
HETATM    4  O1  UNL     1      24.070   5.441  50.647  1.00  0.00    -0.345 OA
HETATM    5  C11 UNL     1      24.122   4.140  51.079  1.00  0.00     0.077 A 
HETATM    6  C12 UNL     1      22.995   3.847  51.857  1.00  0.00     0.040 A 
HETATM    7  C13 UNL     1      22.950   2.541  52.358  1.00  0.00     0.040 A 
HETATM    8  C14 UNL     1      23.937   1.611  52.110  1.00  0.00     0.079 A 
HETATM    9  C16 UNL     1      25.038   1.920  51.341  1.00  0.00     0.048 A 
HETATM   10  C17 UNL     1      25.095   3.201  50.839  1.00  0.00    -0.004 A 
HETATM   11  C18 UNL     1      26.333   3.330  50.041  1.00  0.00     0.161 C 
HETATM   12  N4  UNL     1      26.506   4.594  49.394  1.00  0.00    -0.384 N 
HETATM   13  H14 UNL     1      27.020   4.480  48.461  1.00  0.00     0.160 HD
ENDROOT
BRANCH   1  14
HETATM   14  N2  UNL     1      26.235   7.847  49.687  1.00  0.00    -0.168 NA
BRANCH  14  15
HETATM   15  C1  UNL     1      26.781   8.788  50.350  1.00  0.00     0.095 C 
BRANCH  15  16
HETATM   16  N1  UNL     1      27.567   9.580  50.971  1.00  0.00    -0.241 NA
HETATM   17  H1  UNL     1      27.468   9.759  51.993  1.00  0.00     0.199 HD
ENDBRANCH  15  16
ENDBRANCH  14  15
ENDBRANCH   1  14
BRANCH   1  18
HETATM   18  N3  UNL     1      27.959   7.516  48.340  1.00  0.00    -0.339 N 
HETATM   19  H2  UNL     1      27.457   8.358  47.924  1.00  0.00     0.167 HD
BRANCH  18  20
HETATM   20  C3  UNL     1      29.333   7.137  48.229  1.00  0.00     0.035 A 
HETATM   21  C4  UNL     1      30.153   8.189  48.616  1.00  0.00     0.029 A 
HETATM   22  C5  UNL     1      31.524   8.111  48.604  1.00  0.00     0.004 A 
HETATM   23  C6  UNL     1      32.120   6.937  48.192  1.00  0.00     0.019 A 
HETATM   24  C7  UNL     1      31.305   5.866  47.799  1.00  0.00     0.013 A 
HETATM   25 BR1  UNL     1      32.043   4.209  47.211  1.00  0.00    -0.051 Br
HETATM   26  C8  UNL     1      29.920   5.980  47.821  1.00  0.00     0.048 A 
ENDBRANCH  18  20
ENDBRANCH   1  18
BRANCH   8  27
HETATM   27  O2  UNL     1      23.649   0.376  52.737  1.00  0.00    -0.255 OA
BRANCH  27  28
HETATM   28  C15 UNL     1      24.620  -0.243  53.567  1.00  0.00     0.530 C 
HETATM   29  F1  UNL     1      25.443  -1.075  52.836  1.00  0.00    -0.144 F 
HETATM   30  F2  UNL     1      25.364   0.659  54.272  1.00  0.00    -0.144 F 
HETATM   31  F3  UNL     1      23.937  -1.033  54.469  1.00  0.00    -0.144 F 
ENDBRANCH  27  28
ENDBRANCH   8  27
TORSDOF 7
ENDMDL
MODEL 8
REMARK VINA RESULT:      -7.3      1.531      2.146
REMARK  7 active torsions:
REMARK  status: ('A' for Active; 'I' for Inactive)
REMARK    1  A    between atoms: N1_1  and  C1_2 
REMARK    2  A    between atoms: C1_2  and  N2_3 
REMARK    3  A    between atoms: N2_3  and  C2_4 
REMARK    4  A    between atoms: C2_4  and  N3_5 
REMARK    5  A    between atoms: N3_5  and  C3_6 
REMARK    6  A    between atoms: C14_19  and  O2_20 
REMARK    7  A    between atoms: O2_20  and  C15_21 
ROOT
HETATM    1  C2  UNL     1      24.426   2.090  51.534  1.00  0.00     0.163 C 
HETATM    2  C9  UNL     1      25.150   2.905  50.829  1.00  0.00     0.077 C 
HETATM    3  C10 UNL     1      26.566   2.695  50.588  1.00  0.00     0.236 C 
HETATM    4  O1  UNL     1      27.037   3.373  49.436  1.00  0.00    -0.345 OA
HETATM    5  C11 UNL     1      26.992   4.704  49.106  1.00  0.00     0.077 A 
HETATM    6  C12 UNL     1      28.183   5.082  48.475  1.00  0.00     0.040 A 
HETATM    7  C13 UNL     1      28.248   6.430  48.101  1.00  0.00     0.040 A 
HETATM    8  C14 UNL     1      27.222   7.320  48.335  1.00  0.00     0.079 A 
HETATM    9  C16 UNL     1      26.058   6.926  48.957  1.00  0.00     0.048 A 
HETATM   10  C17 UNL     1      25.978   5.603  49.329  1.00  0.00    -0.004 A 
HETATM   11  C18 UNL     1      24.662   5.379  49.964  1.00  0.00     0.161 C 
HETATM   12  N4  UNL     1      24.400   4.027  50.351  1.00  0.00    -0.384 N 
HETATM   13  H14 UNL     1      23.357   3.798  50.260  1.00  0.00     0.160 HD
ENDROOT
BRANCH   1  14
HETATM   14  N2  UNL     1      25.630   1.309  51.707  1.00  0.00    -0.168 NA
BRANCH  14  15
HETATM   15  C1  UNL     1      25.705   0.328  52.515  1.00  0.00     0.095 C 
BRANCH  15  16
HETATM   16  N1  UNL     1      25.507  -0.698  53.250  1.00  0.00    -0.241 NA
HETATM   17  H1  UNL     1      25.446  -1.657  52.845  1.00  0.00     0.199 HD
ENDBRANCH  15  16
ENDBRANCH  14  15
ENDBRANCH   1  14
BRANCH   1  18
HETATM   18  N3  UNL     1      23.487   1.327  52.258  1.00  0.00    -0.339 N 
HETATM   19  H2  UNL     1      23.946   1.073  53.184  1.00  0.00     0.167 HD
BRANCH  18  20
HETATM   20  C3  UNL     1      22.183   0.995  51.775  1.00  0.00     0.035 A 
HETATM   21  C4  UNL     1      22.074   1.316  50.428  1.00  0.00     0.029 A 
HETATM   22  C5  UNL     1      20.927   1.112  49.702  1.00  0.00     0.004 A 
HETATM   23  C6  UNL     1      19.830   0.563  50.331  1.00  0.00     0.019 A 
HETATM   24  C7  UNL     1      19.924   0.233  51.691  1.00  0.00     0.013 A 
HETATM   25 BR1  UNL     1      18.456  -0.527  52.641  1.00  0.00    -0.051 Br
HETATM   26  C8  UNL     1      21.100   0.454  52.396  1.00  0.00     0.048 A 
ENDBRANCH  18  20
ENDBRANCH   1  18
BRANCH   8  27
HETATM   27  O2  UNL     1      27.547   8.614  47.863  1.00  0.00    -0.255 OA
BRANCH  27  28
HETATM   28  C15 UNL     1      28.035   9.596  48.765  1.00  0.00     0.530 C 
HETATM   29  F1  UNL     1      29.254  10.092  48.349  1.00  0.00    -0.144 F 
HETATM   30  F2  UNL     1      27.151  10.618  48.962  1.00  0.00    -0.144 F 
HETATM   31  F3  UNL     1      28.241   8.968  49.975  1.00  0.00    -0.144 F 
ENDBRANCH  27  28
ENDBRANCH   8  27
TORSDOF 7
ENDMDL
MODEL 9
REMARK VINA RESULT:      -7.1      7.747      9.825
REMARK  7 active torsions:
REMARK  status: ('A' for Active; 'I' for Inactive)
REMARK    1  A    between atoms: N1_1  and  C1_2 
REMARK    2  A    between atoms: C1_2  and  N2_3 
REMARK    3  A    between atoms: N2_3  and  C2_4 
REMARK    4  A    between atoms: C2_4  and  N3_5 
REMARK    5  A    between atoms: N3_5  and  C3_6 
REMARK    6  A    between atoms: C14_19  and  O2_20 
REMARK    7  A    between atoms: O2_20  and  C15_21 
ROOT
HETATM    1  C2  UNL     1      28.657   9.293  49.068  1.00  0.00     0.163 C 
HETATM    2  C9  UNL     1      29.793   8.682  48.915  1.00  0.00     0.077 C 
HETATM    3  C10 UNL     1      31.020   9.373  48.563  1.00  0.00     0.236 C 
HETATM    4  O1  UNL     1      32.184   8.653  48.930  1.00  0.00    -0.345 OA
HETATM    5  C11 UNL     1      32.588   7.386  48.595  1.00  0.00     0.077 A 
HETATM    6  C12 UNL     1      33.971   7.364  48.376  1.00  0.00     0.040 A 
HETATM    7  C13 UNL     1      34.490   6.114  48.019  1.00  0.00     0.040 A 
HETATM    8  C14 UNL     1      33.706   4.988  47.891  1.00  0.00     0.079 A 
HETATM    9  C16 UNL     1      32.346   5.031  48.113  1.00  0.00     0.048 A 
HETATM   10  C17 UNL     1      31.820   6.253  48.467  1.00  0.00    -0.004 A 
HETATM   11  C18 UNL     1      30.365   6.090  48.668  1.00  0.00     0.161 C 
HETATM   12  N4  UNL     1      29.680   7.268  49.106  1.00  0.00    -0.384 N 
HETATM   13  H14 UNL     1      28.858   7.016  49.746  1.00  0.00     0.160 HD
ENDROOT
BRANCH   1  14
HETATM   14  N2  UNL     1      29.370  10.511  48.753  1.00  0.00    -0.168 NA
BRANCH  14  15
HETATM   15  C1  UNL     1      28.905  11.668  49.009  1.00  0.00     0.095 C 
BRANCH  15  16
HETATM   16  N1  UNL     1      28.262  12.685  49.440  1.00  0.00    -0.241 NA
HETATM   17  H1  UNL     1      28.001  13.473  48.810  1.00  0.00     0.199 HD
ENDBRANCH  15  16
ENDBRANCH  14  15
ENDBRANCH   1  14
BRANCH   1  18
HETATM   18  N3  UNL     1      27.350   9.777  49.280  1.00  0.00    -0.339 N 
HETATM   19  H2  UNL     1      27.448  10.766  49.664  1.00  0.00     0.167 HD
BRANCH  18  20
HETATM   20  C3  UNL     1      26.164   9.027  49.007  1.00  0.00     0.035 A 
HETATM   21  C4  UNL     1      26.166   8.589  47.689  1.00  0.00     0.029 A 
HETATM   22  C5  UNL     1      25.145   7.849  47.146  1.00  0.00     0.004 A 
HETATM   23  C6  UNL     1      24.067   7.520  47.940  1.00  0.00     0.019 A 
HETATM   24  C7  UNL     1      24.051   7.954  49.274  1.00  0.00     0.013 A 
HETATM   25 BR1  UNL     1      22.599   7.548  50.441  1.00  0.00    -0.051 Br
HETATM   26  C8  UNL     1      25.100   8.703  49.790  1.00  0.00     0.048 A 
ENDBRANCH  18  20
ENDBRANCH   1  18
BRANCH   8  27
HETATM   27  O2  UNL     1      34.478   3.863  47.518  1.00  0.00    -0.255 OA
BRANCH  27  28
HETATM   28  C15 UNL     1      34.159   3.142  46.337  1.00  0.00     0.530 C 
HETATM   29  F1  UNL     1      33.410   2.020  46.625  1.00  0.00    -0.144 F 
HETATM   30  F2  UNL     1      33.522   3.911  45.406  1.00  0.00    -0.144 F 
HETATM   31  F3  UNL     1      35.351   2.710  45.793  1.00  0.00    -0.144 F 
ENDBRANCH  27  28
ENDBRANCH   8  27
TORSDOF 7
ENDMDL
