MODEL 1
REMARK VINA RESULT:      -8.3      0.000      0.000
REMARK  6 active torsions:
REMARK  status: ('A' for Active; 'I' for Inactive)
REMARK    1  A    between atoms: C5_6  and  N1_7 
REMARK    2  A    between atoms: N1_7  and  C6_8 
REMARK    3  A    between atoms: C6_8  and  C7_9 
REMARK    4  A    between atoms: C8_10  and  O1_11 
REMARK    5  A    between atoms: O1_11  and  C9_12 
REMARK    6  A    between atoms: C13_17  and  C14_18 
ROOT
HETATM    1  C9  UNL     1      26.926  -0.095  52.825  1.00  0.00     0.187 C 
HETATM    2  C10 UNL     1      27.985  -1.163  52.947  1.00  0.00     0.005 C 
HETATM    3  C11 UNL     1      29.030  -0.853  53.709  1.00  0.00     0.001 C 
HETATM    4  C12 UNL     1      28.991   0.487  54.317  1.00  0.00     0.298 C 
HETATM    5  N2  UNL     1      27.733   0.719  54.995  1.00  0.00     0.097 N 
HETATM    6  C13 UNL     1      26.572   0.437  54.206  1.00  0.00     0.277 C 
HETATM    7  H14 UNL     1      27.743   1.689  55.398  1.00  0.00     0.317 HD
ENDROOT
BRANCH   1   8
HETATM    8  O1  UNL     1      27.438   0.999  52.085  1.00  0.00    -0.352 OA
BRANCH   8   9
HETATM    9  C8  UNL     1      26.752   2.196  51.929  1.00  0.00     0.133 C 
HETATM   10  C7  UNL     1      26.336   2.603  50.727  1.00  0.00     0.017 C 
BRANCH  10  11
HETATM   11  C6  UNL     1      25.612   3.748  50.155  1.00  0.00     0.149 C 
BRANCH  11  12
HETATM   12  N1  UNL     1      24.260   3.774  50.705  1.00  0.00    -0.386 N 
HETATM   13  H4  UNL     1      23.855   4.290  51.524  1.00  0.00     0.160 HD
BRANCH  12  14
HETATM   14  C5  UNL     1      23.322   2.945  49.996  1.00  0.00     0.029 A 
HETATM   15  C4  UNL     1      23.310   2.917  48.613  1.00  0.00     0.029 A 
HETATM   16  C3  UNL     1      22.419   2.127  47.885  1.00  0.00     0.004 A 
HETATM   17  C2  UNL     1      21.511   1.342  48.561  1.00  0.00     0.024 A 
HETATM   18  C1  UNL     1      21.504   1.352  49.926  1.00  0.00     0.036 A 
HETATM   19 CL1  UNL     1      20.359   0.361  50.839  1.00  0.00    -0.084 Cl
HETATM   20  C19 UNL     1      22.388   2.135  50.624  1.00  0.00     0.052 A 
ENDBRANCH  12  14
ENDBRANCH  11  12
ENDBRANCH  10  11
ENDBRANCH   8   9
ENDBRANCH   1   8
BRANCH   6  21
HETATM   21  C14 UNL     1      25.567  -0.413  54.891  1.00  0.00     0.021 C 
HETATM   22  C15 UNL     1      24.282  -0.642  54.659  1.00  0.00    -0.022 A 
HETATM   23  C16 UNL     1      23.595  -1.560  55.562  1.00  0.00     0.126 A 
HETATM   24  C18 UNL     1      23.691   0.068  53.495  1.00  0.00     0.190 A 
HETATM   25  N3  UNL     1      22.345  -1.773  55.322  1.00  0.00    -0.254 NA
HETATM   26  C17 UNL     1      21.713  -1.131  54.232  1.00  0.00     0.226 A 
HETATM   27  N4  UNL     1      22.285  -0.329  53.428  1.00  0.00    -0.278 NA
ENDBRANCH   6  21
TORSDOF 6
ENDMDL
MODEL 2
REMARK VINA RESULT:      -8.2      2.954      3.969
REMARK  6 active torsions:
REMARK  status: ('A' for Active; 'I' for Inactive)
REMARK    1  A    between atoms: C5_6  and  N1_7 
REMARK    2  A    between atoms: N1_7  and  C6_8 
REMARK    3  A    between atoms: C6_8  and  C7_9 
REMARK    4  A    between atoms: C8_10  and  O1_11 
REMARK    5  A    between atoms: O1_11  and  C9_12 
REMARK    6  A    between atoms: C13_17  and  C14_18 
ROOT
HETATM    1  C9  UNL     1      26.585  -0.161  52.686  1.00  0.00     0.187 C 
HETATM    2  C10 UNL     1      27.688  -1.153  52.965  1.00  0.00     0.005 C 
HETATM    3  C11 UNL     1      28.598  -0.768  53.855  1.00  0.00     0.001 C 
HETATM    4  C12 UNL     1      28.389   0.571  54.430  1.00  0.00     0.298 C 
HETATM    5  N2  UNL     1      27.039   0.721  54.930  1.00  0.00     0.097 N 
HETATM    6  C13 UNL     1      26.015   0.355  53.999  1.00  0.00     0.277 C 
HETATM    7  H14 UNL     1      26.930   1.693  55.315  1.00  0.00     0.317 HD
ENDROOT
BRANCH   1   8
HETATM    8  O1  UNL     1      27.118   0.959  52.003  1.00  0.00    -0.352 OA
BRANCH   8   9
HETATM    9  C8  UNL     1      26.389   1.705  51.086  1.00  0.00     0.133 C 
HETATM   10  C7  UNL     1      25.798   2.849  51.437  1.00  0.00     0.017 C 
BRANCH  10  11
HETATM   11  C6  UNL     1      24.975   3.890  50.803  1.00  0.00     0.149 C 
BRANCH  11  12
HETATM   12  N1  UNL     1      25.273   3.922  49.375  1.00  0.00    -0.386 N 
HETATM   13  H4  UNL     1      24.932   3.326  48.582  1.00  0.00     0.160 HD
BRANCH  12  14
HETATM   14  C5  UNL     1      26.197   4.956  48.992  1.00  0.00     0.029 A 
HETATM   15  C4  UNL     1      25.787   6.275  48.910  1.00  0.00     0.029 A 
HETATM   16  C3  UNL     1      26.649   7.309  48.543  1.00  0.00     0.004 A 
HETATM   17  C2  UNL     1      27.962   7.015  48.248  1.00  0.00     0.024 A 
HETATM   18  C1  UNL     1      28.391   5.721  48.323  1.00  0.00     0.036 A 
HETATM   19 CL1  UNL     1      30.067   5.295  47.956  1.00  0.00    -0.084 Cl
HETATM   20  C19 UNL     1      27.528   4.719  48.686  1.00  0.00     0.052 A 
ENDBRANCH  12  14
ENDBRANCH  11  12
ENDBRANCH  10  11
ENDBRANCH   8   9
ENDBRANCH   1   8
BRANCH   6  21
HETATM   21  C14 UNL     1      24.986  -0.557  54.558  1.00  0.00     0.021 C 
HETATM   22  C15 UNL     1      23.674  -0.638  54.385  1.00  0.00    -0.022 A 
HETATM   23  C16 UNL     1      22.970  -1.687  55.115  1.00  0.00     0.126 A 
HETATM   24  C18 UNL     1      23.074   0.356  53.458  1.00  0.00     0.190 A 
HETATM   25  N3  UNL     1      21.694  -1.754  54.935  1.00  0.00    -0.254 NA
HETATM   26  C17 UNL     1      21.052  -0.840  54.068  1.00  0.00     0.226 A 
HETATM   27  N4  UNL     1      21.638   0.082  53.418  1.00  0.00    -0.278 NA
ENDBRANCH   6  21
TORSDOF 6
ENDMDL
MODEL 3
REMARK VINA RESULT:      -7.9      2.664      3.094
REMARK  6 active torsions:
REMARK  status: ('A' for Active; 'I' for Inactive)
REMARK    1  A    between atoms: C5_6  and  N1_7 
REMARK    2  A    between atoms: N1_7  and  C6_8 
REMARK    3  A    between atoms: C6_8  and  C7_9 
REMARK    4  A    between atoms: C8_10  and  O1_11 
REMARK    5  A    between atoms: O1_11  and  C9_12 
REMARK    6  A    between atoms: C13_17  and  C14_18 
ROOT
HETATM    1  C9  UNL     1      26.336   0.007  52.477  1.00  0.00     0.187 C 
HETATM    2  C10 UNL     1      27.443  -0.976  52.770  1.00  0.00     0.005 C 
HETATM    3  C11 UNL     1      28.335  -0.585  53.675  1.00  0.00     0.001 C 
HETATM    4  C12 UNL     1      28.104   0.749  54.252  1.00  0.00     0.298 C 
HETATM    5  N2  UNL     1      26.745   0.885  54.732  1.00  0.00     0.097 N 
HETATM    6  C13 UNL     1      25.740   0.513  53.782  1.00  0.00     0.277 C 
HETATM    7  H14 UNL     1      26.621   1.854  55.118  1.00  0.00     0.317 HD
ENDROOT
BRANCH   1   8
HETATM    8  O1  UNL     1      26.868   1.135  51.807  1.00  0.00    -0.352 OA
BRANCH   8   9
HETATM    9  C8  UNL     1      26.093   2.217  51.409  1.00  0.00     0.133 C 
HETATM   10  C7  UNL     1      26.373   2.897  50.294  1.00  0.00     0.017 C 
BRANCH  10  11
HETATM   11  C6  UNL     1      25.832   4.045  49.553  1.00  0.00     0.149 C 
BRANCH  11  12
HETATM   12  N1  UNL     1      25.734   5.187  50.457  1.00  0.00    -0.386 N 
HETATM   13  H4  UNL     1      26.463   5.696  51.011  1.00  0.00     0.160 HD
BRANCH  12  14
HETATM   14  C5  UNL     1      24.398   5.699  50.612  1.00  0.00     0.029 A 
HETATM   15  C4  UNL     1      23.462   5.013  51.365  1.00  0.00     0.029 A 
HETATM   16  C3  UNL     1      22.156   5.474  51.541  1.00  0.00     0.004 A 
HETATM   17  C2  UNL     1      21.775   6.657  50.947  1.00  0.00     0.024 A 
HETATM   18  C1  UNL     1      22.682   7.352  50.200  1.00  0.00     0.036 A 
HETATM   19 CL1  UNL     1      22.241   8.875  49.418  1.00  0.00    -0.084 Cl
HETATM   20  C19 UNL     1      23.960   6.883  50.037  1.00  0.00     0.052 A 
ENDBRANCH  12  14
ENDBRANCH  11  12
ENDBRANCH  10  11
ENDBRANCH   8   9
ENDBRANCH   1   8
BRANCH   6  21
HETATM   21  C14 UNL     1      24.711  -0.411  54.321  1.00  0.00     0.021 C 
HETATM   22  C15 UNL     1      23.393  -0.458  54.188  1.00  0.00    -0.022 A 
HETATM   23  C16 UNL     1      22.691  -1.534  54.879  1.00  0.00     0.126 A 
HETATM   24  C18 UNL     1      22.784   0.600  53.341  1.00  0.00     0.190 A 
HETATM   25  N3  UNL     1      21.408  -1.567  54.738  1.00  0.00    -0.254 NA
HETATM   26  C17 UNL     1      20.758  -0.591  53.948  1.00  0.00     0.226 A 
HETATM   27  N4  UNL     1      21.341   0.357  53.333  1.00  0.00    -0.278 NA
ENDBRANCH   6  21
TORSDOF 6
ENDMDL
MODEL 4
REMARK VINA RESULT:      -7.7      3.614      6.667
REMARK  6 active torsions:
REMARK  status: ('A' for Active; 'I' for Inactive)
REMARK    1  A    between atoms: C5_6  and  N1_7 
REMARK    2  A    between atoms: N1_7  and  C6_8 
REMARK    3  A    between atoms: C6_8  and  C7_9 
REMARK    4  A    between atoms: C8_10  and  O1_11 
REMARK    5  A    between atoms: O1_11  and  C9_12 
REMARK    6  A    between atoms: C13_17  and  C14_18 
ROOT
HETATM    1  C9  UNL     1      23.865   1.461  52.547  1.00  0.00     0.187 C 
HETATM    2  C10 UNL     1      23.658   1.946  51.133  1.00  0.00     0.005 C 
HETATM    3  C11 UNL     1      23.226   3.198  51.011  1.00  0.00     0.001 C 
HETATM    4  C12 UNL     1      23.016   3.918  52.277  1.00  0.00     0.298 C 
HETATM    5  N2  UNL     1      24.180   3.823  53.134  1.00  0.00     0.097 N 
HETATM    6  C13 UNL     1      24.666   2.490  53.331  1.00  0.00     0.277 C 
HETATM    7  H14 UNL     1      23.980   4.334  54.030  1.00  0.00     0.317 HD
ENDROOT
BRANCH   1   8
HETATM    8  O1  UNL     1      22.612   1.339  53.195  1.00  0.00    -0.352 OA
BRANCH   8   9
HETATM    9  C8  UNL     1      21.692   0.345  52.887  1.00  0.00     0.133 C 
HETATM   10  C7  UNL     1      20.395   0.624  52.739  1.00  0.00     0.017 C 
BRANCH  10  11
HETATM   11  C6  UNL     1      19.153  -0.100  52.428  1.00  0.00     0.149 C 
BRANCH  11  12
HETATM   12  N1  UNL     1      18.772  -0.904  53.585  1.00  0.00    -0.386 N 
HETATM   13  H4  UNL     1      19.127  -0.910  54.572  1.00  0.00     0.160 HD
BRANCH  12  14
HETATM   14  C5  UNL     1      17.726  -1.855  53.319  1.00  0.00     0.029 A 
HETATM   15  C4  UNL     1      17.814  -3.152  53.791  1.00  0.00     0.029 A 
HETATM   16  C3  UNL     1      16.823  -4.106  53.558  1.00  0.00     0.004 A 
HETATM   17  C2  UNL     1      15.709  -3.752  52.829  1.00  0.00     0.024 A 
HETATM   18  C1  UNL     1      15.598  -2.477  52.353  1.00  0.00     0.036 A 
HETATM   19 CL1  UNL     1      14.187  -1.975  51.415  1.00  0.00    -0.084 Cl
HETATM   20  C19 UNL     1      16.583  -1.554  52.593  1.00  0.00     0.052 A 
ENDBRANCH  12  14
ENDBRANCH  11  12
ENDBRANCH  10  11
ENDBRANCH   8   9
ENDBRANCH   1   8
BRANCH   6  21
HETATM   21  C14 UNL     1      26.127   2.341  53.118  1.00  0.00     0.021 C 
HETATM   22  C15 UNL     1      27.027   1.517  53.636  1.00  0.00    -0.022 A 
HETATM   23  C16 UNL     1      28.406   1.665  53.180  1.00  0.00     0.126 A 
HETATM   24  C18 UNL     1      26.519   0.533  54.626  1.00  0.00     0.190 A 
HETATM   25  N3  UNL     1      29.269   0.854  53.692  1.00  0.00    -0.254 NA
HETATM   26  C17 UNL     1      28.860  -0.109  54.643  1.00  0.00     0.226 A 
HETATM   27  N4  UNL     1      27.668  -0.262  55.058  1.00  0.00    -0.278 NA
ENDBRANCH   6  21
TORSDOF 6
ENDMDL
MODEL 5
REMARK VINA RESULT:      -7.7      3.395      4.348
REMARK  6 active torsions:
REMARK  status: ('A' for Active; 'I' for Inactive)
REMARK    1  A    between atoms: C5_6  and  N1_7 
REMARK    2  A    between atoms: N1_7  and  C6_8 
REMARK    3  A    between atoms: C6_8  and  C7_9 
REMARK    4  A    between atoms: C8_10  and  O1_11 
REMARK    5  A    between atoms: O1_11  and  C9_12 
REMARK    6  A    between atoms: C13_17  and  C14_18 
ROOT
HETATM    1  C9  UNL     1      26.648  -0.261  52.759  1.00  0.00     0.187 C 
HETATM    2  C10 UNL     1      27.788  -1.170  53.149  1.00  0.00     0.005 C 
HETATM    3  C11 UNL     1      28.673  -0.653  53.997  1.00  0.00     0.001 C 
HETATM    4  C12 UNL     1      28.402   0.729  54.424  1.00  0.00     0.298 C 
HETATM    5  N2  UNL     1      27.042   0.875  54.899  1.00  0.00     0.097 N 
HETATM    6  C13 UNL     1      26.044   0.368  54.006  1.00  0.00     0.277 C 
HETATM    7  H14 UNL     1      26.889   1.876  55.176  1.00  0.00     0.317 HD
ENDROOT
BRANCH   1   8
HETATM    8  O1  UNL     1      27.140   0.802  51.963  1.00  0.00    -0.352 OA
BRANCH   8   9
HETATM    9  C8  UNL     1      26.313   1.663  51.253  1.00  0.00     0.133 C 
HETATM   10  C7  UNL     1      26.736   2.871  50.873  1.00  0.00     0.017 C 
BRANCH  10  11
HETATM   11  C6  UNL     1      26.204   4.031  50.142  1.00  0.00     0.149 C 
BRANCH  11  12
HETATM   12  N1  UNL     1      27.182   4.448  49.143  1.00  0.00    -0.386 N 
HETATM   13  H4  UNL     1      28.027   3.963  48.755  1.00  0.00     0.160 HD
BRANCH  12  14
HETATM   14  C5  UNL     1      26.941   5.758  48.598  1.00  0.00     0.029 A 
HETATM   15  C4  UNL     1      25.659   6.276  48.544  1.00  0.00     0.029 A 
HETATM   16  C3  UNL     1      25.381   7.540  48.024  1.00  0.00     0.004 A 
HETATM   17  C2  UNL     1      26.416   8.312  47.545  1.00  0.00     0.024 A 
HETATM   18  C1  UNL     1      27.690   7.824  47.589  1.00  0.00     0.036 A 
HETATM   19 CL1  UNL     1      29.052   8.777  46.987  1.00  0.00    -0.084 Cl
HETATM   20  C19 UNL     1      27.944   6.578  48.103  1.00  0.00     0.052 A 
ENDBRANCH  12  14
ENDBRANCH  11  12
ENDBRANCH  10  11
ENDBRANCH   8   9
ENDBRANCH   1   8
BRANCH   6  21
HETATM   21  C14 UNL     1      25.048  -0.522  54.654  1.00  0.00     0.021 C 
HETATM   22  C15 UNL     1      23.745  -0.688  54.474  1.00  0.00    -0.022 A 
HETATM   23  C16 UNL     1      23.077  -1.677  55.313  1.00  0.00     0.126 A 
HETATM   24  C18 UNL     1      23.117   0.161  53.429  1.00  0.00     0.190 A 
HETATM   25  N3  UNL     1      21.810  -1.828  55.125  1.00  0.00    -0.254 NA
HETATM   26  C17 UNL     1      21.142  -1.054  54.147  1.00  0.00     0.226 A 
HETATM   27  N4  UNL     1      21.696  -0.186  53.401  1.00  0.00    -0.278 NA
ENDBRANCH   6  21
TORSDOF 6
ENDMDL
MODEL 6
REMARK VINA RESULT:      -7.7      2.108      5.216
REMARK  6 active torsions:
REMARK  status: ('A' for Active; 'I' for Inactive)
REMARK    1  A    between atoms: C5_6  and  N1_7 
REMARK    2  A    between atoms: N1_7  and  C6_8 
REMARK    3  A    between atoms: C6_8  and  C7_9 
REMARK    4  A    between atoms: C8_10  and  O1_11 
REMARK    5  A    between atoms: O1_11  and  C9_12 
REMARK    6  A    between atoms: C13_17  and  C14_18 
ROOT
HETATM    1  C9  UNL     1      25.811   0.894  53.712  1.00  0.00     0.187 C 
HETATM    2  C10 UNL     1      27.193   0.897  54.318  1.00  0.00     0.005 C 
HETATM    3  C11 UNL     1      27.970  -0.131  53.987  1.00  0.00     0.001 C 
HETATM    4  C12 UNL     1      27.358  -1.116  53.080  1.00  0.00     0.298 C 
HETATM    5  N2  UNL     1      26.782  -0.471  51.918  1.00  0.00     0.097 N 
HETATM    6  C13 UNL     1      25.907   0.622  52.218  1.00  0.00     0.277 C 
HETATM    7  H14 UNL     1      26.344  -1.206  51.309  1.00  0.00     0.317 HD
ENDROOT
BRANCH   1   8
HETATM    8  O1  UNL     1      25.051  -0.162  54.272  1.00  0.00    -0.352 OA
BRANCH   8   9
HETATM    9  C8  UNL     1      23.806  -0.540  53.785  1.00  0.00     0.133 C 
HETATM   10  C7  UNL     1      22.900  -1.119  54.577  1.00  0.00     0.017 C 
BRANCH  10  11
HETATM   11  C6  UNL     1      21.532  -1.646  54.463  1.00  0.00     0.149 C 
BRANCH  11  12
HETATM   12  N1  UNL     1      20.591  -0.532  54.514  1.00  0.00    -0.386 N 
HETATM   13  H4  UNL     1      20.365   0.151  55.277  1.00  0.00     0.160 HD
BRANCH  12  14
HETATM   14  C5  UNL     1      19.844  -0.340  53.299  1.00  0.00     0.029 A 
HETATM   15  C4  UNL     1      18.544  -0.802  53.189  1.00  0.00     0.029 A 
HETATM   16  C3  UNL     1      17.784  -0.638  52.031  1.00  0.00     0.004 A 
HETATM   17  C2  UNL     1      18.340   0.009  50.949  1.00  0.00     0.024 A 
HETATM   18  C1  UNL     1      19.620   0.475  51.034  1.00  0.00     0.036 A 
HETATM   19 CL1  UNL     1      20.376   1.312  49.673  1.00  0.00    -0.084 Cl
HETATM   20  C19 UNL     1      20.352   0.304  52.181  1.00  0.00     0.052 A 
ENDBRANCH  12  14
ENDBRANCH  11  12
ENDBRANCH  10  11
ENDBRANCH   8   9
ENDBRANCH   1   8
BRANCH   6  21
HETATM   21  C14 UNL     1      26.190   1.855  51.443  1.00  0.00     0.021 C 
HETATM   22  C15 UNL     1      25.404   2.716  50.812  1.00  0.00    -0.022 A 
HETATM   23  C16 UNL     1      26.050   3.840  50.141  1.00  0.00     0.126 A 
HETATM   24  C18 UNL     1      23.947   2.432  50.867  1.00  0.00     0.190 A 
HETATM   25  N3  UNL     1      25.271   4.670  49.533  1.00  0.00    -0.254 NA
HETATM   26  C17 UNL     1      23.871   4.463  49.541  1.00  0.00     0.226 A 
HETATM   27  N4  UNL     1      23.280   3.496  50.117  1.00  0.00    -0.278 NA
ENDBRANCH   6  21
TORSDOF 6
ENDMDL
MODEL 7
REMARK VINA RESULT:      -7.5      6.120      9.312
REMARK  6 active torsions:
REMARK  status: ('A' for Active; 'I' for Inactive)
REMARK    1  A    between atoms: C5_6  and  N1_7 
REMARK    2  A    between atoms: N1_7  and  C6_8 
REMARK    3  A    between atoms: C6_8  and  C7_9 
REMARK    4  A    between atoms: C8_10  and  O1_11 
REMARK    5  A    between atoms: O1_11  and  C9_12 
REMARK    6  A    between atoms: C13_17  and  C14_18 
ROOT
HETATM    1  C9  UNL     1      30.066   6.750  47.539  1.00  0.00     0.187 C 
HETATM    2  C10 UNL     1      30.165   8.046  46.773  1.00  0.00     0.005 C 
HETATM    3  C11 UNL     1      29.882   9.147  47.463  1.00  0.00     0.001 C 
HETATM    4  C12 UNL     1      29.515   8.929  48.872  1.00  0.00     0.298 C 
HETATM    5  N2  UNL     1      30.490   8.098  49.546  1.00  0.00     0.097 N 
HETATM    6  C13 UNL     1      30.805   6.879  48.863  1.00  0.00     0.277 C 
HETATM    7  H14 UNL     1      30.181   7.955  50.540  1.00  0.00     0.317 HD
ENDROOT
BRANCH   1   8
HETATM    8  O1  UNL     1      28.711   6.486  47.852  1.00  0.00    -0.352 OA
BRANCH   8   9
HETATM    9  C8  UNL     1      28.291   5.324  48.486  1.00  0.00     0.133 C 
HETATM   10  C7  UNL     1      27.004   5.121  48.779  1.00  0.00     0.017 C 
BRANCH  10  11
HETATM   11  C6  UNL     1      26.182   4.080  49.414  1.00  0.00     0.149 C 
BRANCH  11  12
HETATM   12  N1  UNL     1      26.858   3.615  50.620  1.00  0.00    -0.386 N 
HETATM   13  H4  UNL     1      27.759   3.911  51.068  1.00  0.00     0.160 HD
BRANCH  12  14
HETATM   14  C5  UNL     1      26.161   2.566  51.315  1.00  0.00     0.029 A 
HETATM   15  C4  UNL     1      24.839   2.726  51.693  1.00  0.00     0.029 A 
HETATM   16  C3  UNL     1      24.126   1.735  52.368  1.00  0.00     0.004 A 
HETATM   17  C2  UNL     1      24.752   0.547  52.674  1.00  0.00     0.024 A 
HETATM   18  C1  UNL     1      26.055   0.365  52.311  1.00  0.00     0.036 A 
HETATM   19 CL1  UNL     1      26.902  -1.142  52.681  1.00  0.00    -0.084 Cl
HETATM   20  C19 UNL     1      26.740   1.351  51.649  1.00  0.00     0.052 A 
ENDBRANCH  12  14
ENDBRANCH  11  12
ENDBRANCH  10  11
ENDBRANCH   8   9
ENDBRANCH   1   8
BRANCH   6  21
HETATM   21  C14 UNL     1      32.260   6.626  48.717  1.00  0.00     0.021 C 
HETATM   22  C15 UNL     1      32.949   5.555  48.347  1.00  0.00    -0.022 A 
HETATM   23  C16 UNL     1      34.404   5.675  48.321  1.00  0.00     0.126 A 
HETATM   24  C18 UNL     1      32.150   4.352  47.999  1.00  0.00     0.190 A 
HETATM   25  N3  UNL     1      35.060   4.625  47.957  1.00  0.00    -0.254 NA
HETATM   26  C17 UNL     1      34.367   3.442  47.611  1.00  0.00     0.226 A 
HETATM   27  N4  UNL     1      33.103   3.307  47.624  1.00  0.00    -0.278 NA
ENDBRANCH   6  21
TORSDOF 6
ENDMDL
MODEL 8
REMARK VINA RESULT:      -7.4      5.712      9.789
REMARK  6 active torsions:
REMARK  status: ('A' for Active; 'I' for Inactive)
REMARK    1  A    between atoms: C5_6  and  N1_7 
REMARK    2  A    between atoms: N1_7  and  C6_8 
REMARK    3  A    between atoms: C6_8  and  C7_9 
REMARK    4  A    between atoms: C8_10  and  O1_11 
REMARK    5  A    between atoms: O1_11  and  C9_12 
REMARK    6  A    between atoms: C13_17  and  C14_18 
ROOT
HETATM    1  C9  UNL     1      28.153   6.870  47.447  1.00  0.00     0.187 C 
HETATM    2  C10 UNL     1      27.486   8.095  46.872  1.00  0.00     0.005 C 
HETATM    3  C11 UNL     1      27.126   9.023  47.754  1.00  0.00     0.001 C 
HETATM    4  C12 UNL     1      27.434   8.709  49.159  1.00  0.00     0.298 C 
HETATM    5  N2  UNL     1      28.818   8.314  49.316  1.00  0.00     0.097 N 
HETATM    6  C13 UNL     1      29.250   7.289  48.414  1.00  0.00     0.277 C 
HETATM    7  H14 UNL     1      28.989   8.084  50.327  1.00  0.00     0.317 HD
ENDROOT
BRANCH   1   8
HETATM    8  O1  UNL     1      27.211   6.125  48.196  1.00  0.00    -0.352 OA
BRANCH   8   9
HETATM    9  C8  UNL     1      27.531   4.950  48.864  1.00  0.00     0.133 C 
HETATM   10  C7  UNL     1      26.583   4.171  49.389  1.00  0.00     0.017 C 
BRANCH  10  11
HETATM   11  C6  UNL     1      26.500   2.907  50.136  1.00  0.00     0.149 C 
BRANCH  11  12
HETATM   12  N1  UNL     1      26.779   3.172  51.544  1.00  0.00    -0.386 N 
HETATM   13  H4  UNL     1      26.698   4.049  52.114  1.00  0.00     0.160 HD
BRANCH  12  14
HETATM   14  C5  UNL     1      27.248   2.025  52.275  1.00  0.00     0.029 A 
HETATM   15  C4  UNL     1      28.162   2.168  53.304  1.00  0.00     0.029 A 
HETATM   16  C3  UNL     1      28.642   1.083  54.038  1.00  0.00     0.004 A 
HETATM   17  C2  UNL     1      28.196  -0.184  53.735  1.00  0.00     0.024 A 
HETATM   18  C1  UNL     1      27.293  -0.350  52.725  1.00  0.00     0.036 A 
HETATM   19 CL1  UNL     1      26.689  -1.957  52.299  1.00  0.00    -0.084 Cl
HETATM   20  C19 UNL     1      26.832   0.728  52.014  1.00  0.00     0.052 A 
ENDBRANCH  12  14
ENDBRANCH  11  12
ENDBRANCH  10  11
ENDBRANCH   8   9
ENDBRANCH   1   8
BRANCH   6  21
HETATM   21  C14 UNL     1      30.524   7.595  47.716  1.00  0.00     0.021 C 
HETATM   22  C15 UNL     1      31.731   7.050  47.777  1.00  0.00    -0.022 A 
HETATM   23  C16 UNL     1      32.766   7.627  46.925  1.00  0.00     0.126 A 
HETATM   24  C18 UNL     1      31.885   5.906  48.712  1.00  0.00     0.190 A 
HETATM   25  N3  UNL     1      33.935   7.084  46.995  1.00  0.00    -0.254 NA
HETATM   26  C17 UNL     1      34.158   5.991  47.864  1.00  0.00     0.226 A 
HETATM   27  N4  UNL     1      33.277   5.467  48.617  1.00  0.00    -0.278 NA
ENDBRANCH   6  21
TORSDOF 6
ENDMDL
MODEL 9
REMARK VINA RESULT:      -7.2      4.805      7.238
REMARK  6 active torsions:
REMARK  status: ('A' for Active; 'I' for Inactive)
REMARK    1  A    between atoms: C5_6  and  N1_7 
REMARK    2  A    between atoms: N1_7  and  C6_8 
REMARK    3  A    between atoms: C6_8  and  C7_9 
REMARK    4  A    between atoms: C8_10  and  O1_11 
REMARK    5  A    between atoms: O1_11  and  C9_12 
REMARK    6  A    between atoms: C13_17  and  C14_18 
ROOT
HETATM    1  C9  UNL     1      24.469   3.481  51.751  1.00  0.00     0.187 C 
HETATM    2  C10 UNL     1      23.217   3.869  52.498  1.00  0.00     0.005 C 
HETATM    3  C11 UNL     1      22.100   3.264  52.105  1.00  0.00     0.001 C 
HETATM    4  C12 UNL     1      22.259   2.306  50.999  1.00  0.00     0.298 C 
HETATM    5  N2  UNL     1      23.324   1.364  51.270  1.00  0.00     0.097 N 
HETATM    6  C13 UNL     1      24.563   1.964  51.662  1.00  0.00     0.277 C 
HETATM    7  H14 UNL     1      23.413   0.712  50.451  1.00  0.00     0.317 HD
ENDROOT
BRANCH   1   8
HETATM    8  O1  UNL     1      24.397   3.964  50.422  1.00  0.00    -0.352 OA
BRANCH   8   9
HETATM    9  C8  UNL     1      25.421   3.798  49.498  1.00  0.00     0.133 C 
HETATM   10  C7  UNL     1      26.410   4.689  49.393  1.00  0.00     0.017 C 
BRANCH  10  11
HETATM   11  C6  UNL     1      27.625   4.878  48.587  1.00  0.00     0.149 C 
BRANCH  11  12
HETATM   12  N1  UNL     1      28.235   6.154  48.945  1.00  0.00    -0.386 N 
HETATM   13  H4  UNL     1      27.928   6.909  49.606  1.00  0.00     0.160 HD
BRANCH  12  14
HETATM   14  C5  UNL     1      29.477   6.420  48.270  1.00  0.00     0.029 A 
HETATM   15  C4  UNL     1      30.333   5.387  47.932  1.00  0.00     0.029 A 
HETATM   16  C3  UNL     1      31.546   5.600  47.277  1.00  0.00     0.004 A 
HETATM   17  C2  UNL     1      31.916   6.886  46.949  1.00  0.00     0.024 A 
HETATM   18  C1  UNL     1      31.088   7.922  47.270  1.00  0.00     0.036 A 
HETATM   19 CL1  UNL     1      31.517   9.589  46.869  1.00  0.00    -0.084 Cl
HETATM   20  C19 UNL     1      29.899   7.693  47.915  1.00  0.00     0.052 A 
ENDBRANCH  12  14
ENDBRANCH  11  12
ENDBRANCH  10  11
ENDBRANCH   8   9
ENDBRANCH   1   8
BRANCH   6  21
HETATM   21  C14 UNL     1      25.165   1.370  52.882  1.00  0.00     0.021 C 
HETATM   22  C15 UNL     1      26.413   1.308  53.325  1.00  0.00    -0.022 A 
HETATM   23  C16 UNL     1      26.636   0.628  54.596  1.00  0.00     0.126 A 
HETATM   24  C18 UNL     1      27.444   1.947  52.466  1.00  0.00     0.190 A 
HETATM   25  N3  UNL     1      27.856   0.577  55.014  1.00  0.00    -0.254 NA
HETATM   26  C17 UNL     1      28.892   1.163  54.249  1.00  0.00     0.226 A 
HETATM   27  N4  UNL     1      28.729   1.762  53.140  1.00  0.00    -0.278 NA
ENDBRANCH   6  21
TORSDOF 6
ENDMDL
