MODEL 1
REMARK VINA RESULT:      -7.8      0.000      0.000
REMARK  8 active torsions:
REMARK  status: ('A' for Active; 'I' for Inactive)
REMARK    1  A    between atoms: C1_2  and  C2_3 
REMARK       I    between atoms: C1_2  and  N2_15 
REMARK    2  A    between atoms: C2_3  and  C3_4 
REMARK    3  A    between atoms: C3_4  and  C4_5 
REMARK    4  A    between atoms: C5_6  and  S1_7 
REMARK    5  A    between atoms: S1_7  and  S2_8 
REMARK    6  A    between atoms: N2_15  and  C11_16 
REMARK    7  A    between atoms: C11_16  and  C12_17 
REMARK    8  A    between atoms: C12_17  and  C13_18 
ROOT
HETATM    1  C2  UNL     1      23.620   2.865  52.854  1.00  0.00     0.107 C 
ENDROOT
BRANCH   1   2
HETATM    2  C1  UNL     1      23.904   4.048  51.966  1.00  0.00     0.217 C 
HETATM    3  O1  UNL     1      22.872   4.727  52.235  1.00  0.00    -0.274 OA
HETATM    4  N2  UNL     1      25.044   4.186  51.139  1.00  0.00    -0.361 N 
HETATM    5  H11 UNL     1      25.662   3.351  51.233  1.00  0.00     0.162 HD
BRANCH   4   6
HETATM    6  C11 UNL     1      24.982   5.438  50.435  1.00  0.00     0.127 C 
BRANCH   6   7
HETATM    7  C12 UNL     1      25.217   5.244  48.973  1.00  0.00     0.058 C 
BRANCH   7   8
HETATM    8  C13 UNL     1      26.519   5.788  48.569  1.00  0.00    -0.057 A 
HETATM    9  C14 UNL     1      26.787   7.062  48.137  1.00  0.00     0.007 A 
HETATM   10  C15 UNL     1      28.057   7.467  47.782  1.00  0.00     0.001 A 
HETATM   11  C16 UNL     1      29.111   6.582  47.856  1.00  0.00     0.000 A 
HETATM   12  C17 UNL     1      28.868   5.282  48.292  1.00  0.00     0.001 A 
HETATM   13  C18 UNL     1      27.584   4.915  48.638  1.00  0.00     0.007 A 
ENDBRANCH   7   8
ENDBRANCH   6   7
ENDBRANCH   4   6
ENDBRANCH   1   2
BRANCH   1  14
HETATM   14  C3  UNL     1      24.137   1.629  52.155  1.00  0.00     0.047 C 
BRANCH  14  15
HETATM   15  C4  UNL     1      24.633   0.613  53.070  1.00  0.00    -0.032 C 
HETATM   16  C5  UNL     1      25.732   0.231  53.694  1.00  0.00     0.084 C 
HETATM   17  N1  UNL     1      25.566  -0.755  54.742  1.00  0.00    -0.352 N 
HETATM   18  C6  UNL     1      24.136  -0.948  54.730  1.00  0.00     0.022 A 
HETATM   19  H6  UNL     1      26.227  -1.235  55.379  1.00  0.00     0.166 HD
HETATM   20  C7  UNL     1      23.017  -1.296  55.348  1.00  0.00     0.026 A 
HETATM   21  C10 UNL     1      23.872  -0.585  53.336  1.00  0.00     0.090 A 
HETATM   22  C8  UNL     1      21.990  -1.107  54.328  1.00  0.00    -0.001 A 
HETATM   23  C9  UNL     1      22.450  -0.687  53.164  1.00  0.00    -0.011 A 
BRANCH  16  24
HETATM   24  S1  UNL     1      27.333   1.073  53.508  1.00  0.00    -0.042 SA
BRANCH  24  25
HETATM   25  S2  UNL     1      28.858   0.011  54.479  1.00  0.00    -0.104 SA
HETATM   26  H5  UNL     1      28.988   0.313  55.839  1.00  0.00     0.114 HD
ENDBRANCH  24  25
ENDBRANCH  16  24
ENDBRANCH  14  15
ENDBRANCH   1  14
TORSDOF 8
ENDMDL
MODEL 2
REMARK VINA RESULT:      -7.7      4.345      5.843
REMARK  8 active torsions:
REMARK  status: ('A' for Active; 'I' for Inactive)
REMARK    1  A    between atoms: C1_2  and  C2_3 
REMARK       I    between atoms: C1_2  and  N2_15 
REMARK    2  A    between atoms: C2_3  and  C3_4 
REMARK    3  A    between atoms: C3_4  and  C4_5 
REMARK    4  A    between atoms: C5_6  and  S1_7 
REMARK    5  A    between atoms: S1_7  and  S2_8 
REMARK    6  A    between atoms: N2_15  and  C11_16 
REMARK    7  A    between atoms: C11_16  and  C12_17 
REMARK    8  A    between atoms: C12_17  and  C13_18 
ROOT
HETATM    1  C2  UNL     1      21.429   2.241  50.732  1.00  0.00     0.107 C 
ENDROOT
BRANCH   1   2
HETATM    2  C1  UNL     1      22.781   2.807  51.078  1.00  0.00     0.217 C 
HETATM    3  O1  UNL     1      22.431   3.516  52.065  1.00  0.00    -0.274 OA
HETATM    4  N2  UNL     1      23.982   2.520  50.386  1.00  0.00    -0.361 N 
HETATM    5  H11 UNL     1      23.798   1.857  49.602  1.00  0.00     0.162 HD
BRANCH   4   6
HETATM    6  C11 UNL     1      25.072   3.236  50.992  1.00  0.00     0.127 C 
BRANCH   6   7
HETATM    7  C12 UNL     1      26.343   2.457  50.900  1.00  0.00     0.058 C 
BRANCH   7   8
HETATM    8  C13 UNL     1      26.435   1.465  51.979  1.00  0.00    -0.057 A 
HETATM    9  C14 UNL     1      26.636   0.115  51.847  1.00  0.00     0.007 A 
HETATM   10  C15 UNL     1      26.706  -0.728  52.938  1.00  0.00     0.001 A 
HETATM   11  C16 UNL     1      26.575  -0.222  54.213  1.00  0.00     0.000 A 
HETATM   12  C17 UNL     1      26.371   1.146  54.375  1.00  0.00     0.001 A 
HETATM   13  C18 UNL     1      26.306   1.956  53.261  1.00  0.00     0.007 A 
ENDBRANCH   7   8
ENDBRANCH   6   7
ENDBRANCH   4   6
ENDBRANCH   1   2
BRANCH   1  14
HETATM   14  C3  UNL     1      21.503   0.739  50.894  1.00  0.00     0.047 C 
BRANCH  14  15
HETATM   15  C4  UNL     1      20.792   0.249  52.064  1.00  0.00    -0.032 C 
HETATM   16  C5  UNL     1      19.576  -0.047  52.487  1.00  0.00     0.084 C 
HETATM   17  N1  UNL     1      19.491  -0.782  53.732  1.00  0.00    -0.352 N 
HETATM   18  C6  UNL     1      20.886  -0.953  54.060  1.00  0.00     0.022 A 
HETATM   19  H6  UNL     1      18.698  -1.135  54.298  1.00  0.00     0.166 HD
HETATM   20  C7  UNL     1      21.849  -1.624  54.676  1.00  0.00     0.026 A 
HETATM   21  C10 UNL     1      21.427   0.214  53.361  1.00  0.00     0.090 A 
HETATM   22  C8  UNL     1      23.058  -0.888  54.322  1.00  0.00    -0.001 A 
HETATM   23  C9  UNL     1      22.848   0.168  53.556  1.00  0.00    -0.011 A 
BRANCH  16  24
HETATM   24  S1  UNL     1      18.084   0.155  51.467  1.00  0.00    -0.042 SA
BRANCH  24  25
HETATM   25  S2  UNL     1      16.395  -0.604  52.449  1.00  0.00    -0.104 SA
HETATM   26  H5  UNL     1      15.178  -0.172  51.909  1.00  0.00     0.114 HD
ENDBRANCH  24  25
ENDBRANCH  16  24
ENDBRANCH  14  15
ENDBRANCH   1  14
TORSDOF 8
ENDMDL
MODEL 3
REMARK VINA RESULT:      -7.7      4.616      8.480
REMARK  8 active torsions:
REMARK  status: ('A' for Active; 'I' for Inactive)
REMARK    1  A    between atoms: C1_2  and  C2_3 
REMARK       I    between atoms: C1_2  and  N2_15 
REMARK    2  A    between atoms: C2_3  and  C3_4 
REMARK    3  A    between atoms: C3_4  and  C4_5 
REMARK    4  A    between atoms: C5_6  and  S1_7 
REMARK    5  A    between atoms: S1_7  and  S2_8 
REMARK    6  A    between atoms: N2_15  and  C11_16 
REMARK    7  A    between atoms: C11_16  and  C12_17 
REMARK    8  A    between atoms: C12_17  and  C13_18 
ROOT
HETATM    1  C2  UNL     1      24.570  -0.915  54.733  1.00  0.00     0.107 C 
ENDROOT
BRANCH   1   2
HETATM    2  C1  UNL     1      23.064  -0.908  54.729  1.00  0.00     0.217 C 
HETATM    3  O1  UNL     1      22.878  -1.707  55.691  1.00  0.00    -0.274 OA
HETATM    4  N2  UNL     1      22.259  -0.163  53.835  1.00  0.00    -0.361 N 
HETATM    5  H11 UNL     1      22.858   0.383  53.178  1.00  0.00     0.162 HD
BRANCH   4   6
HETATM    6  C11 UNL     1      20.870  -0.398  54.124  1.00  0.00     0.127 C 
BRANCH   6   7
HETATM    7  C12 UNL     1      20.000   0.098  53.016  1.00  0.00     0.058 C 
BRANCH   7   8
HETATM    8  C13 UNL     1      18.777  -0.706  52.904  1.00  0.00    -0.057 A 
HETATM    9  C14 UNL     1      17.658  -0.414  52.166  1.00  0.00     0.007 A 
HETATM   10  C15 UNL     1      16.559  -1.249  52.134  1.00  0.00     0.001 A 
HETATM   11  C16 UNL     1      16.560  -2.422  52.857  1.00  0.00     0.000 A 
HETATM   12  C17 UNL     1      17.683  -2.743  53.615  1.00  0.00     0.001 A 
HETATM   13  C18 UNL     1      18.762  -1.883  53.622  1.00  0.00     0.007 A 
ENDBRANCH   7   8
ENDBRANCH   6   7
ENDBRANCH   4   6
ENDBRANCH   1   2
BRANCH   1  14
HETATM   14  C3  UNL     1      25.036  -0.671  53.315  1.00  0.00     0.047 C 
BRANCH  14  15
HETATM   15  C4  UNL     1      25.938   0.464  53.192  1.00  0.00    -0.032 C 
HETATM   16  C5  UNL     1      25.936   1.779  53.072  1.00  0.00     0.084 C 
HETATM   17  N1  UNL     1      27.209   2.443  53.263  1.00  0.00    -0.352 N 
HETATM   18  C6  UNL     1      28.072   1.326  53.564  1.00  0.00     0.022 A 
HETATM   19  H6  UNL     1      27.509   3.433  53.224  1.00  0.00     0.166 HD
HETATM   20  C7  UNL     1      29.167   0.838  54.129  1.00  0.00     0.026 A 
HETATM   21  C10 UNL     1      27.332   0.274  52.865  1.00  0.00     0.090 A 
HETATM   22  C8  UNL     1      29.105  -0.587  53.821  1.00  0.00    -0.001 A 
HETATM   23  C9  UNL     1      28.053  -0.944  53.105  1.00  0.00    -0.011 A 
BRANCH  16  24
HETATM   24  S1  UNL     1      24.417   2.774  52.983  1.00  0.00    -0.042 SA
BRANCH  24  25
HETATM   25  S2  UNL     1      23.340   2.347  51.236  1.00  0.00    -0.104 SA
HETATM   26  H5  UNL     1      22.045   1.868  51.466  1.00  0.00     0.114 HD
ENDBRANCH  24  25
ENDBRANCH  16  24
ENDBRANCH  14  15
ENDBRANCH   1  14
TORSDOF 8
ENDMDL
MODEL 4
REMARK VINA RESULT:      -7.6      2.556      4.163
REMARK  8 active torsions:
REMARK  status: ('A' for Active; 'I' for Inactive)
REMARK    1  A    between atoms: C1_2  and  C2_3 
REMARK       I    between atoms: C1_2  and  N2_15 
REMARK    2  A    between atoms: C2_3  and  C3_4 
REMARK    3  A    between atoms: C3_4  and  C4_5 
REMARK    4  A    between atoms: C5_6  and  S1_7 
REMARK    5  A    between atoms: S1_7  and  S2_8 
REMARK    6  A    between atoms: N2_15  and  C11_16 
REMARK    7  A    between atoms: C11_16  and  C12_17 
REMARK    8  A    between atoms: C12_17  and  C13_18 
ROOT
HETATM    1  C2  UNL     1      26.836   2.324  51.683  1.00  0.00     0.107 C 
ENDROOT
BRANCH   1   2
HETATM    2  C1  UNL     1      26.045   3.251  50.798  1.00  0.00     0.217 C 
HETATM    3  O1  UNL     1      26.555   2.919  49.689  1.00  0.00    -0.274 OA
HETATM    4  N2  UNL     1      25.060   4.161  51.251  1.00  0.00    -0.361 N 
HETATM    5  H11 UNL     1      24.959   4.097  52.287  1.00  0.00     0.162 HD
BRANCH   4   6
HETATM    6  C11 UNL     1      24.516   4.880  50.131  1.00  0.00     0.127 C 
BRANCH   6   7
HETATM    7  C12 UNL     1      23.023   4.825  50.133  1.00  0.00     0.058 C 
BRANCH   7   8
HETATM    8  C13 UNL     1      22.540   3.554  49.580  1.00  0.00    -0.057 A 
HETATM    9  C14 UNL     1      22.820   3.028  48.345  1.00  0.00     0.007 A 
HETATM   10  C15 UNL     1      22.308   1.816  47.927  1.00  0.00     0.001 A 
HETATM   11  C16 UNL     1      21.486   1.089  48.760  1.00  0.00     0.000 A 
HETATM   12  C17 UNL     1      21.185   1.599  50.020  1.00  0.00     0.001 A 
HETATM   13  C18 UNL     1      21.716   2.814  50.401  1.00  0.00     0.007 A 
ENDBRANCH   7   8
ENDBRANCH   6   7
ENDBRANCH   4   6
ENDBRANCH   1   2
BRANCH   1  14
HETATM   14  C3  UNL     1      26.158   2.285  53.033  1.00  0.00     0.047 C 
BRANCH  14  15
HETATM   15  C4  UNL     1      25.985   0.938  53.555  1.00  0.00    -0.032 C 
HETATM   16  C5  UNL     1      26.628  -0.003  54.221  1.00  0.00     0.084 C 
HETATM   17  N1  UNL     1      25.825  -1.106  54.710  1.00  0.00    -0.352 N 
HETATM   18  C6  UNL     1      24.507  -0.717  54.270  1.00  0.00     0.022 A 
HETATM   19  H6  UNL     1      26.047  -1.967  55.240  1.00  0.00     0.166 HD
HETATM   20  C7  UNL     1      23.189  -0.768  54.402  1.00  0.00     0.026 A 
HETATM   21  C10 UNL     1      24.886   0.108  53.121  1.00  0.00     0.090 A 
HETATM   22  C8  UNL     1      22.705   0.092  53.326  1.00  0.00    -0.001 A 
HETATM   23  C9  UNL     1      23.659   0.620  52.580  1.00  0.00    -0.011 A 
BRANCH  16  24
HETATM   24  S1  UNL     1      28.347   0.167  54.788  1.00  0.00    -0.042 SA
BRANCH  24  25
HETATM   25  S2  UNL     1      29.652  -0.938  53.576  1.00  0.00    -0.104 SA
HETATM   26  H5  UNL     1      29.386  -0.832  52.206  1.00  0.00     0.114 HD
ENDBRANCH  24  25
ENDBRANCH  16  24
ENDBRANCH  14  15
ENDBRANCH   1  14
TORSDOF 8
ENDMDL
MODEL 5
REMARK VINA RESULT:      -7.4      4.760      6.390
REMARK  8 active torsions:
REMARK  status: ('A' for Active; 'I' for Inactive)
REMARK    1  A    between atoms: C1_2  and  C2_3 
REMARK       I    between atoms: C1_2  and  N2_15 
REMARK    2  A    between atoms: C2_3  and  C3_4 
REMARK    3  A    between atoms: C3_4  and  C4_5 
REMARK    4  A    between atoms: C5_6  and  S1_7 
REMARK    5  A    between atoms: S1_7  and  S2_8 
REMARK    6  A    between atoms: N2_15  and  C11_16 
REMARK    7  A    between atoms: C11_16  and  C12_17 
REMARK    8  A    between atoms: C12_17  and  C13_18 
ROOT
HETATM    1  C2  UNL     1      23.430   2.553  51.835  1.00  0.00     0.107 C 
ENDROOT
BRANCH   1   2
HETATM    2  C1  UNL     1      24.827   2.242  52.303  1.00  0.00     0.217 C 
HETATM    3  O1  UNL     1      25.206   1.568  51.303  1.00  0.00    -0.274 OA
HETATM    4  N2  UNL     1      25.383   2.664  53.535  1.00  0.00    -0.361 N 
HETATM    5  H11 UNL     1      24.686   3.224  54.072  1.00  0.00     0.162 HD
BRANCH   4   6
HETATM    6  C11 UNL     1      26.734   2.184  53.645  1.00  0.00     0.127 C 
BRANCH   6   7
HETATM    7  C12 UNL     1      26.821   1.045  54.608  1.00  0.00     0.058 C 
BRANCH   7   8
HETATM    8  C13 UNL     1      27.484  -0.114  53.997  1.00  0.00    -0.057 A 
HETATM    9  C14 UNL     1      28.812  -0.444  54.074  1.00  0.00     0.007 A 
HETATM   10  C15 UNL     1      29.329  -1.565  53.457  1.00  0.00     0.001 A 
HETATM   11  C16 UNL     1      28.503  -2.398  52.733  1.00  0.00     0.000 A 
HETATM   12  C17 UNL     1      27.150  -2.087  52.639  1.00  0.00     0.001 A 
HETATM   13  C18 UNL     1      26.671  -0.957  53.270  1.00  0.00     0.007 A 
ENDBRANCH   7   8
ENDBRANCH   6   7
ENDBRANCH   4   6
ENDBRANCH   1   2
BRANCH   1  14
HETATM   14  C3  UNL     1      22.787   1.254  51.408  1.00  0.00     0.047 C 
BRANCH  14  15
HETATM   15  C4  UNL     1      21.616   0.902  52.197  1.00  0.00    -0.032 C 
HETATM   16  C5  UNL     1      20.305   1.051  52.225  1.00  0.00     0.084 C 
HETATM   17  N1  UNL     1      19.584   0.216  53.164  1.00  0.00    -0.352 N 
HETATM   18  C6  UNL     1      20.657  -0.551  53.748  1.00  0.00     0.022 A 
HETATM   19  H6  UNL     1      18.582   0.120  53.408  1.00  0.00     0.166 HD
HETATM   20  C7  UNL     1      21.089  -1.644  54.363  1.00  0.00     0.026 A 
HETATM   21  C10 UNL     1      21.752   0.401  53.545  1.00  0.00     0.090 A 
HETATM   22  C8  UNL     1      22.520  -1.404  54.520  1.00  0.00    -0.001 A 
HETATM   23  C9  UNL     1      22.933  -0.242  54.047  1.00  0.00    -0.011 A 
BRANCH  16  24
HETATM   24  S1  UNL     1      19.378   1.998  50.981  1.00  0.00    -0.042 SA
BRANCH  24  25
HETATM   25  S2  UNL     1      17.927   0.803  50.054  1.00  0.00    -0.104 SA
HETATM   26  H5  UNL     1      18.306  -0.535  49.892  1.00  0.00     0.114 HD
ENDBRANCH  24  25
ENDBRANCH  16  24
ENDBRANCH  14  15
ENDBRANCH   1  14
TORSDOF 8
ENDMDL
MODEL 6
REMARK VINA RESULT:      -7.3      2.204      3.303
REMARK  8 active torsions:
REMARK  status: ('A' for Active; 'I' for Inactive)
REMARK    1  A    between atoms: C1_2  and  C2_3 
REMARK       I    between atoms: C1_2  and  N2_15 
REMARK    2  A    between atoms: C2_3  and  C3_4 
REMARK    3  A    between atoms: C3_4  and  C4_5 
REMARK    4  A    between atoms: C5_6  and  S1_7 
REMARK    5  A    between atoms: S1_7  and  S2_8 
REMARK    6  A    between atoms: N2_15  and  C11_16 
REMARK    7  A    between atoms: C11_16  and  C12_17 
REMARK    8  A    between atoms: C12_17  and  C13_18 
ROOT
HETATM    1  C2  UNL     1      24.151   2.360  51.517  1.00  0.00     0.107 C 
ENDROOT
BRANCH   1   2
HETATM    2  C1  UNL     1      24.697   3.339  50.510  1.00  0.00     0.217 C 
HETATM    3  O1  UNL     1      24.044   2.944  49.502  1.00  0.00    -0.274 OA
HETATM    4  N2  UNL     1      25.658   4.340  50.791  1.00  0.00    -0.361 N 
HETATM    5  H11 UNL     1      25.934   4.304  51.796  1.00  0.00     0.162 HD
BRANCH   4   6
HETATM    6  C11 UNL     1      25.943   5.085  49.594  1.00  0.00     0.127 C 
BRANCH   6   7
HETATM    7  C12 UNL     1      27.183   4.583  48.932  1.00  0.00     0.058 C 
BRANCH   7   8
HETATM    8  C13 UNL     1      27.942   5.684  48.326  1.00  0.00    -0.057 A 
HETATM    9  C14 UNL     1      27.451   6.892  47.899  1.00  0.00     0.007 A 
HETATM   10  C15 UNL     1      28.262   7.859  47.341  1.00  0.00     0.001 A 
HETATM   11  C16 UNL     1      29.613   7.631  47.197  1.00  0.00     0.000 A 
HETATM   12  C17 UNL     1      30.138   6.413  47.621  1.00  0.00     0.001 A 
HETATM   13  C18 UNL     1      29.296   5.471  48.174  1.00  0.00     0.007 A 
ENDBRANCH   7   8
ENDBRANCH   6   7
ENDBRANCH   4   6
ENDBRANCH   1   2
BRANCH   1  14
HETATM   14  C3  UNL     1      24.976   2.487  52.777  1.00  0.00     0.047 C 
BRANCH  14  15
HETATM   15  C4  UNL     1      25.460   1.211  53.282  1.00  0.00    -0.032 C 
HETATM   16  C5  UNL     1      25.055  -0.018  53.544  1.00  0.00     0.084 C 
HETATM   17  N1  UNL     1      26.093  -0.995  53.803  1.00  0.00    -0.352 N 
HETATM   18  C6  UNL     1      27.284  -0.197  53.637  1.00  0.00     0.022 A 
HETATM   19  H6  UNL     1      26.079  -2.003  54.038  1.00  0.00     0.166 HD
HETATM   20  C7  UNL     1      28.576  -0.104  53.357  1.00  0.00     0.026 A 
HETATM   21  C10 UNL     1      26.726   1.115  53.971  1.00  0.00     0.090 A 
HETATM   22  C8  UNL     1      28.848   1.326  53.471  1.00  0.00    -0.001 A 
HETATM   23  C9  UNL     1      27.799   2.054  53.810  1.00  0.00    -0.011 A 
BRANCH  16  24
HETATM   24  S1  UNL     1      23.341  -0.580  53.307  1.00  0.00    -0.042 SA
BRANCH  24  25
HETATM   25  S2  UNL     1      22.519  -1.265  55.110  1.00  0.00    -0.104 SA
HETATM   26  H5  UNL     1      23.154  -2.398  55.633  1.00  0.00     0.114 HD
ENDBRANCH  24  25
ENDBRANCH  16  24
ENDBRANCH  14  15
ENDBRANCH   1  14
TORSDOF 8
ENDMDL
MODEL 7
REMARK VINA RESULT:      -7.2      1.451      2.394
REMARK  8 active torsions:
REMARK  status: ('A' for Active; 'I' for Inactive)
REMARK    1  A    between atoms: C1_2  and  C2_3 
REMARK       I    between atoms: C1_2  and  N2_15 
REMARK    2  A    between atoms: C2_3  and  C3_4 
REMARK    3  A    between atoms: C3_4  and  C4_5 
REMARK    4  A    between atoms: C5_6  and  S1_7 
REMARK    5  A    between atoms: S1_7  and  S2_8 
REMARK    6  A    between atoms: N2_15  and  C11_16 
REMARK    7  A    between atoms: C11_16  and  C12_17 
REMARK    8  A    between atoms: C12_17  and  C13_18 
ROOT
HETATM    1  C2  UNL     1      24.708   2.813  52.243  1.00  0.00     0.107 C 
ENDROOT
BRANCH   1   2
HETATM    2  C1  UNL     1      25.242   3.203  50.890  1.00  0.00     0.217 C 
HETATM    3  O1  UNL     1      24.260   2.819  50.192  1.00  0.00    -0.274 OA
HETATM    4  N2  UNL     1      26.499   3.810  50.658  1.00  0.00    -0.361 N 
HETATM    5  H11 UNL     1      27.004   3.951  51.560  1.00  0.00     0.162 HD
BRANCH   4   6
HETATM    6  C11 UNL     1      26.673   4.038  49.249  1.00  0.00     0.127 C 
BRANCH   6   7
HETATM    7  C12 UNL     1      26.964   5.477  48.971  1.00  0.00     0.058 C 
BRANCH   7   8
HETATM    8  C13 UNL     1      25.799   6.319  49.268  1.00  0.00    -0.057 A 
HETATM    9  C14 UNL     1      25.718   7.322  50.201  1.00  0.00     0.007 A 
HETATM   10  C15 UNL     1      24.565   8.054  50.395  1.00  0.00     0.001 A 
HETATM   11  C16 UNL     1      23.443   7.790  49.640  1.00  0.00     0.000 A 
HETATM   12  C17 UNL     1      23.497   6.778  48.686  1.00  0.00     0.001 A 
HETATM   13  C18 UNL     1      24.668   6.068  48.520  1.00  0.00     0.007 A 
ENDBRANCH   7   8
ENDBRANCH   6   7
ENDBRANCH   4   6
ENDBRANCH   1   2
BRANCH   1  14
HETATM   14  C3  UNL     1      24.074   1.447  52.113  1.00  0.00     0.047 C 
BRANCH  14  15
HETATM   15  C4  UNL     1      24.643   0.457  53.015  1.00  0.00    -0.032 C 
HETATM   16  C5  UNL     1      25.797   0.061  53.520  1.00  0.00     0.084 C 
HETATM   17  N1  UNL     1      25.726  -0.864  54.633  1.00  0.00    -0.352 N 
HETATM   18  C6  UNL     1      24.300  -0.998  54.804  1.00  0.00     0.022 A 
HETATM   19  H6  UNL     1      26.443  -1.340  55.210  1.00  0.00     0.166 HD
HETATM   20  C7  UNL     1      23.254  -1.268  55.572  1.00  0.00     0.026 A 
HETATM   21  C10 UNL     1      23.878  -0.693  53.435  1.00  0.00     0.090 A 
HETATM   22  C8  UNL     1      22.116  -1.086  54.676  1.00  0.00    -0.001 A 
HETATM   23  C9  UNL     1      22.444  -0.743  53.443  1.00  0.00    -0.011 A 
BRANCH  16  24
HETATM   24  S1  UNL     1      27.391   0.825  53.097  1.00  0.00    -0.042 SA
BRANCH  24  25
HETATM   25  S2  UNL     1      28.971  -0.136  54.084  1.00  0.00    -0.104 SA
HETATM   26  H5  UNL     1      29.987   0.727  54.511  1.00  0.00     0.114 HD
ENDBRANCH  24  25
ENDBRANCH  16  24
ENDBRANCH  14  15
ENDBRANCH   1  14
TORSDOF 8
ENDMDL
MODEL 8
REMARK VINA RESULT:      -7.0      2.377      3.200
REMARK  8 active torsions:
REMARK  status: ('A' for Active; 'I' for Inactive)
REMARK    1  A    between atoms: C1_2  and  C2_3 
REMARK       I    between atoms: C1_2  and  N2_15 
REMARK    2  A    between atoms: C2_3  and  C3_4 
REMARK    3  A    between atoms: C3_4  and  C4_5 
REMARK    4  A    between atoms: C5_6  and  S1_7 
REMARK    5  A    between atoms: S1_7  and  S2_8 
REMARK    6  A    between atoms: N2_15  and  C11_16 
REMARK    7  A    between atoms: C11_16  and  C12_17 
REMARK    8  A    between atoms: C12_17  and  C13_18 
ROOT
HETATM    1  C2  UNL     1      22.297   1.436  51.778  1.00  0.00     0.107 C 
ENDROOT
BRANCH   1   2
HETATM    2  C1  UNL     1      22.853   2.402  50.765  1.00  0.00     0.217 C 
HETATM    3  O1  UNL     1      22.668   1.702  49.728  1.00  0.00    -0.274 OA
HETATM    4  N2  UNL     1      23.388   3.677  51.068  1.00  0.00    -0.361 N 
HETATM    5  H11 UNL     1      23.340   3.854  52.095  1.00  0.00     0.162 HD
BRANCH   4   6
HETATM    6  C11 UNL     1      23.824   4.318  49.857  1.00  0.00     0.127 C 
BRANCH   6   7
HETATM    7  C12 UNL     1      25.136   3.770  49.402  1.00  0.00     0.058 C 
BRANCH   7   8
HETATM    8  C13 UNL     1      26.030   4.843  48.950  1.00  0.00    -0.057 A 
HETATM    9  C14 UNL     1      25.680   6.126  48.614  1.00  0.00     0.007 A 
HETATM   10  C15 UNL     1      26.610   7.058  48.200  1.00  0.00     0.001 A 
HETATM   11  C16 UNL     1      27.942   6.714  48.113  1.00  0.00     0.000 A 
HETATM   12  C17 UNL     1      28.325   5.419  48.448  1.00  0.00     0.001 A 
HETATM   13  C18 UNL     1      27.366   4.515  48.858  1.00  0.00     0.007 A 
ENDBRANCH   7   8
ENDBRANCH   6   7
ENDBRANCH   4   6
ENDBRANCH   1   2
BRANCH   1  14
HETATM   14  C3  UNL     1      22.974   1.715  53.101  1.00  0.00     0.047 C 
BRANCH  14  15
HETATM   15  C4  UNL     1      23.927   0.686  53.489  1.00  0.00    -0.032 C 
HETATM   16  C5  UNL     1      24.013  -0.436  54.180  1.00  0.00     0.084 C 
HETATM   17  N1  UNL     1      25.222  -1.212  53.995  1.00  0.00    -0.352 N 
HETATM   18  C6  UNL     1      25.930  -0.413  53.024  1.00  0.00     0.022 A 
HETATM   19  H6  UNL     1      25.565  -2.103  54.397  1.00  0.00     0.166 HD
HETATM   20  C7  UNL     1      26.821  -0.311  52.048  1.00  0.00     0.026 A 
HETATM   21  C10 UNL     1      25.348   0.893  53.339  1.00  0.00     0.090 A 
HETATM   22  C8  UNL     1      26.777   1.104  51.692  1.00  0.00    -0.001 A 
HETATM   23  C9  UNL     1      25.929   1.819  52.409  1.00  0.00    -0.011 A 
BRANCH  16  24
HETATM   24  S1  UNL     1      22.613  -1.169  55.079  1.00  0.00    -0.042 SA
BRANCH  24  25
HETATM   25  S2  UNL     1      20.888  -1.201  53.887  1.00  0.00    -0.104 SA
HETATM   26  H5  UNL     1      19.780  -0.575  54.470  1.00  0.00     0.114 HD
ENDBRANCH  24  25
ENDBRANCH  16  24
ENDBRANCH  14  15
ENDBRANCH   1  14
TORSDOF 8
ENDMDL
MODEL 9
REMARK VINA RESULT:      -7.0      2.609      3.576
REMARK  8 active torsions:
REMARK  status: ('A' for Active; 'I' for Inactive)
REMARK    1  A    between atoms: C1_2  and  C2_3 
REMARK       I    between atoms: C1_2  and  N2_15 
REMARK    2  A    between atoms: C2_3  and  C3_4 
REMARK    3  A    between atoms: C3_4  and  C4_5 
REMARK    4  A    between atoms: C5_6  and  S1_7 
REMARK    5  A    between atoms: S1_7  and  S2_8 
REMARK    6  A    between atoms: N2_15  and  C11_16 
REMARK    7  A    between atoms: C11_16  and  C12_17 
REMARK    8  A    between atoms: C12_17  and  C13_18 
ROOT
HETATM    1  C2  UNL     1      23.966   3.810  51.116  1.00  0.00     0.107 C 
ENDROOT
BRANCH   1   2
HETATM    2  C1  UNL     1      24.805   4.478  50.058  1.00  0.00     0.217 C 
HETATM    3  O1  UNL     1      24.147   4.103  49.044  1.00  0.00    -0.274 OA
HETATM    4  N2  UNL     1      25.959   5.257  50.309  1.00  0.00    -0.361 N 
HETATM    5  H11 UNL     1      26.146   5.305  51.334  1.00  0.00     0.162 HD
BRANCH   4   6
HETATM    6  C11 UNL     1      26.501   5.734  49.065  1.00  0.00     0.127 C 
BRANCH   6   7
HETATM    7  C12 UNL     1      27.675   4.913  48.643  1.00  0.00     0.058 C 
BRANCH   7   8
HETATM    8  C13 UNL     1      28.742   5.760  48.095  1.00  0.00    -0.057 A 
HETATM    9  C14 UNL     1      30.094   5.543  48.172  1.00  0.00     0.007 A 
HETATM   10  C15 UNL     1      31.012   6.411  47.617  1.00  0.00     0.001 A 
HETATM   11  C16 UNL     1      30.583   7.542  46.957  1.00  0.00     0.000 A 
HETATM   12  C17 UNL     1      29.216   7.788  46.864  1.00  0.00     0.001 A 
HETATM   13  C18 UNL     1      28.329   6.896  47.432  1.00  0.00     0.007 A 
ENDBRANCH   7   8
ENDBRANCH   6   7
ENDBRANCH   4   6
ENDBRANCH   1   2
BRANCH   1  14
HETATM   14  C3  UNL     1      23.877   2.340  50.774  1.00  0.00     0.047 C 
BRANCH  14  15
HETATM   15  C4  UNL     1      23.904   1.473  51.943  1.00  0.00    -0.032 C 
HETATM   16  C5  UNL     1      23.114   0.961  52.868  1.00  0.00     0.084 C 
HETATM   17  N1  UNL     1      23.676  -0.104  53.673  1.00  0.00    -0.352 N 
HETATM   18  C6  UNL     1      24.991  -0.237  53.096  1.00  0.00     0.022 A 
HETATM   19  H6  UNL     1      23.309  -0.675  54.456  1.00  0.00     0.166 HD
HETATM   20  C7  UNL     1      26.068  -0.967  52.842  1.00  0.00     0.026 A 
HETATM   21  C10 UNL     1      25.151   1.126  52.583  1.00  0.00     0.090 A 
HETATM   22  C8  UNL     1      26.932  -0.054  52.100  1.00  0.00    -0.001 A 
HETATM   23  C9  UNL     1      26.426   1.154  51.924  1.00  0.00    -0.011 A 
BRANCH  16  24
HETATM   24  S1  UNL     1      21.333   1.311  52.971  1.00  0.00    -0.042 SA
BRANCH  24  25
HETATM   25  S2  UNL     1      20.286   0.339  51.436  1.00  0.00    -0.104 SA
HETATM   26  H5  UNL     1      20.120  -1.036  51.640  1.00  0.00     0.114 HD
ENDBRANCH  24  25
ENDBRANCH  16  24
ENDBRANCH  14  15
ENDBRANCH   1  14
TORSDOF 8
ENDMDL
