MODEL 1
REMARK VINA RESULT:      -8.3      0.000      0.000
REMARK  5 active torsions:
REMARK  status: ('A' for Active; 'I' for Inactive)
REMARK    1  A    between atoms: C5_5  and  N1_6 
REMARK    2  A    between atoms: N1_6  and  C6_7 
REMARK    3  A    between atoms: C9_12  and  N4_13 
REMARK    4  A    between atoms: N4_13  and  C10_14 
REMARK    5  A    between atoms: C16_21  and  O1_22 
ROOT
HETATM    1  C6  UNL     1      26.215   2.946  50.542  1.00  0.00     0.093 A 
HETATM    2  C7  UNL     1      26.811   3.671  49.554  1.00  0.00     0.151 A 
HETATM    3  N2  UNL     1      26.366   4.839  49.124  1.00  0.00    -0.252 NA
HETATM    4  C8  UNL     1      25.233   5.381  49.704  1.00  0.00     0.235 A 
HETATM    5  N3  UNL     1      24.490   4.791  50.736  1.00  0.00    -0.222 NA
HETATM    6  C9  UNL     1      25.112   3.562  51.048  1.00  0.00     0.157 A 
ENDROOT
BRANCH   1   7
HETATM    7  N1  UNL     1      26.406   1.648  51.125  1.00  0.00    -0.372 N 
HETATM    8  H8  UNL     1      25.878   0.862  50.717  1.00  0.00     0.161 HD
BRANCH   7   9
HETATM    9  C5  UNL     1      27.021   0.946  52.170  1.00  0.00     0.161 C 
HETATM   10  C4  UNL     1      26.672  -0.523  52.248  1.00  0.00     0.001 C 
HETATM   11  C3  UNL     1      27.417  -1.230  53.098  1.00  0.00    -0.020 C 
HETATM   12  C2  UNL     1      28.473  -0.556  53.882  1.00  0.00     0.029 C 
HETATM   13  C1  UNL     1      29.825  -0.503  53.308  1.00  0.00     0.018 C 
HETATM   14  C17 UNL     1      27.858   0.731  54.336  1.00  0.00     0.016 C 
HETATM   15  C16 UNL     1      27.084   1.553  53.517  1.00  0.00     0.066 C 
BRANCH  15  16
HETATM   16  O1  UNL     1      26.615   2.633  54.173  1.00  0.00    -0.363 OA
HETATM   17  H16 UNL     1      25.698   2.706  54.639  1.00  0.00     0.217 HD
ENDBRANCH  15  16
ENDBRANCH   7   9
ENDBRANCH   1   7
BRANCH   6  18
HETATM   18  N4  UNL     1      24.309   3.052  52.101  1.00  0.00    -0.339 N 
HETATM   19  H11 UNL     1      24.528   3.624  52.987  1.00  0.00     0.167 HD
BRANCH  18  20
HETATM   20  C10 UNL     1      23.366   1.946  52.108  1.00  0.00     0.035 A 
HETATM   21  C11 UNL     1      22.684   1.948  50.893  1.00  0.00     0.029 A 
HETATM   22  C12 UNL     1      21.729   0.914  50.804  1.00  0.00     0.004 A 
HETATM   23  C13 UNL     1      21.513   0.009  51.813  1.00  0.00     0.019 A 
HETATM   24  C14 UNL     1      22.234   0.077  52.977  1.00  0.00     0.013 A 
HETATM   25 BR1  UNL     1      21.985  -1.181  54.393  1.00  0.00    -0.051 Br
HETATM   26  C15 UNL     1      23.167   1.041  53.148  1.00  0.00     0.048 A 
ENDBRANCH  18  20
ENDBRANCH   6  18
TORSDOF 5
ENDMDL
MODEL 2
REMARK VINA RESULT:      -8.2      2.164      4.994
REMARK  5 active torsions:
REMARK  status: ('A' for Active; 'I' for Inactive)
REMARK    1  A    between atoms: C5_5  and  N1_6 
REMARK    2  A    between atoms: N1_6  and  C6_7 
REMARK    3  A    between atoms: C9_12  and  N4_13 
REMARK    4  A    between atoms: N4_13  and  C10_14 
REMARK    5  A    between atoms: C16_21  and  O1_22 
ROOT
HETATM    1  C6  UNL     1      27.410   1.239  52.833  1.00  0.00     0.093 A 
HETATM    2  C7  UNL     1      28.513   1.805  53.396  1.00  0.00     0.151 A 
HETATM    3  N2  UNL     1      29.055   1.397  54.532  1.00  0.00    -0.252 NA
HETATM    4  C8  UNL     1      28.488   0.326  55.199  1.00  0.00     0.235 A 
HETATM    5  N3  UNL     1      27.360  -0.389  54.773  1.00  0.00    -0.222 NA
HETATM    6  C9  UNL     1      26.928   0.195  53.562  1.00  0.00     0.157 A 
ENDROOT
BRANCH   1   7
HETATM    7  N1  UNL     1      26.569   1.523  51.705  1.00  0.00    -0.372 N 
HETATM    8  H8  UNL     1      26.562   0.839  50.933  1.00  0.00     0.161 HD
BRANCH   7   9
HETATM    9  C5  UNL     1      25.720   2.476  51.125  1.00  0.00     0.161 C 
HETATM   10  C4  UNL     1      26.357   3.338  50.059  1.00  0.00     0.001 C 
HETATM   11  C3  UNL     1      25.502   4.088  49.362  1.00  0.00    -0.020 C 
HETATM   12  C2  UNL     1      24.059   4.039  49.678  1.00  0.00     0.029 C 
HETATM   13  C1  UNL     1      23.231   3.065  48.953  1.00  0.00     0.018 C 
HETATM   14  C17 UNL     1      23.988   4.036  51.173  1.00  0.00     0.016 C 
HETATM   15  C16 UNL     1      24.820   3.271  51.989  1.00  0.00     0.066 C 
BRANCH  15  16
HETATM   16  O1  UNL     1      24.582   3.476  53.300  1.00  0.00    -0.363 OA
HETATM   17  H16 UNL     1      24.289   4.367  53.728  1.00  0.00     0.217 HD
ENDBRANCH  15  16
ENDBRANCH   7   9
ENDBRANCH   1   7
BRANCH   6  18
HETATM   18  N4  UNL     1      25.806  -0.596  53.203  1.00  0.00    -0.339 N 
HETATM   19  H11 UNL     1      26.140  -1.338  52.497  1.00  0.00     0.167 HD
BRANCH  18  20
HETATM   20  C10 UNL     1      24.416  -0.491  53.616  1.00  0.00     0.035 A 
HETATM   21  C11 UNL     1      24.256  -1.216  54.794  1.00  0.00     0.029 A 
HETATM   22  C12 UNL     1      22.930  -1.188  55.274  1.00  0.00     0.004 A 
HETATM   23  C13 UNL     1      21.921  -0.509  54.637  1.00  0.00     0.019 A 
HETATM   24  C14 UNL     1      22.167   0.184  53.482  1.00  0.00     0.013 A 
HETATM   25 BR1  UNL     1      20.798   1.166  52.582  1.00  0.00    -0.051 Br
HETATM   26  C15 UNL     1      23.411   0.206  52.949  1.00  0.00     0.048 A 
ENDBRANCH  18  20
ENDBRANCH   6  18
TORSDOF 5
ENDMDL
MODEL 3
REMARK VINA RESULT:      -7.8      2.961      5.107
REMARK  5 active torsions:
REMARK  status: ('A' for Active; 'I' for Inactive)
REMARK    1  A    between atoms: C5_5  and  N1_6 
REMARK    2  A    between atoms: N1_6  and  C6_7 
REMARK    3  A    between atoms: C9_12  and  N4_13 
REMARK    4  A    between atoms: N4_13  and  C10_14 
REMARK    5  A    between atoms: C16_21  and  O1_22 
ROOT
HETATM    1  C6  UNL     1      24.672   2.661  51.772  1.00  0.00     0.093 A 
HETATM    2  C7  UNL     1      23.415   2.434  52.245  1.00  0.00     0.151 A 
HETATM    3  N2  UNL     1      22.311   2.712  51.573  1.00  0.00    -0.252 NA
HETATM    4  C8  UNL     1      22.416   3.257  50.306  1.00  0.00     0.235 A 
HETATM    5  N3  UNL     1      23.618   3.553  49.648  1.00  0.00    -0.222 NA
HETATM    6  C9  UNL     1      24.670   3.197  50.520  1.00  0.00     0.157 A 
ENDROOT
BRANCH   1   7
HETATM    7  N1  UNL     1      26.005   2.561  52.297  1.00  0.00    -0.372 N 
HETATM    8  H8  UNL     1      26.659   3.328  52.081  1.00  0.00     0.161 HD
BRANCH   7   9
HETATM    9  C5  UNL     1      26.897   1.735  52.994  1.00  0.00     0.161 C 
HETATM   10  C4  UNL     1      26.355   1.144  54.276  1.00  0.00     0.001 C 
HETATM   11  C3  UNL     1      27.118   0.197  54.821  1.00  0.00    -0.020 C 
HETATM   12  C2  UNL     1      28.392  -0.182  54.172  1.00  0.00     0.029 C 
HETATM   13  C1  UNL     1      28.363  -1.277  53.193  1.00  0.00     0.018 C 
HETATM   14  C17 UNL     1      29.013   1.114  53.751  1.00  0.00     0.016 C 
HETATM   15  C16 UNL     1      28.305   2.156  53.153  1.00  0.00     0.066 C 
BRANCH  15  16
HETATM   16  O1  UNL     1      29.085   3.227  52.905  1.00  0.00    -0.363 OA
HETATM   17  H16 UNL     1      30.116   3.243  52.930  1.00  0.00     0.217 HD
ENDBRANCH  15  16
ENDBRANCH   7   9
ENDBRANCH   1   7
BRANCH   6  18
HETATM   18  N4  UNL     1      25.832   3.512  49.770  1.00  0.00    -0.339 N 
HETATM   19  H11 UNL     1      26.316   2.586  49.511  1.00  0.00     0.167 HD
BRANCH  18  20
HETATM   20  C10 UNL     1      26.383   4.805  49.397  1.00  0.00     0.035 A 
HETATM   21  C11 UNL     1      27.575   4.589  48.709  1.00  0.00     0.029 A 
HETATM   22  C12 UNL     1      28.198   5.790  48.312  1.00  0.00     0.004 A 
HETATM   23  C13 UNL     1      27.671   7.028  48.580  1.00  0.00     0.019 A 
HETATM   24  C14 UNL     1      26.489   7.151  49.261  1.00  0.00     0.013 A 
HETATM   25 BR1  UNL     1      25.706   8.855  49.626  1.00  0.00    -0.051 Br
HETATM   26  C15 UNL     1      25.825   6.050  49.683  1.00  0.00     0.048 A 
ENDBRANCH  18  20
ENDBRANCH   6  18
TORSDOF 5
ENDMDL
MODEL 4
REMARK VINA RESULT:      -7.8      2.603      5.251
REMARK  5 active torsions:
REMARK  status: ('A' for Active; 'I' for Inactive)
REMARK    1  A    between atoms: C5_5  and  N1_6 
REMARK    2  A    between atoms: N1_6  and  C6_7 
REMARK    3  A    between atoms: C9_12  and  N4_13 
REMARK    4  A    between atoms: N4_13  and  C10_14 
REMARK    5  A    between atoms: C16_21  and  O1_22 
ROOT
HETATM    1  C6  UNL     1      26.828   0.489  53.810  1.00  0.00     0.093 A 
HETATM    2  C7  UNL     1      27.696   0.472  54.861  1.00  0.00     0.151 A 
HETATM    3  N2  UNL     1      28.837   1.138  54.887  1.00  0.00    -0.252 NA
HETATM    4  C8  UNL     1      29.187   1.914  53.797  1.00  0.00     0.235 A 
HETATM    5  N3  UNL     1      28.422   2.065  52.631  1.00  0.00    -0.222 NA
HETATM    6  C9  UNL     1      27.259   1.280  52.790  1.00  0.00     0.157 A 
ENDROOT
BRANCH   1   7
HETATM    7  N1  UNL     1      25.610  -0.190  53.470  1.00  0.00    -0.372 N 
HETATM    8  H8  UNL     1      25.548  -0.611  52.530  1.00  0.00     0.161 HD
BRANCH   7   9
HETATM    9  C5  UNL     1      24.311  -0.488  53.902  1.00  0.00     0.161 C 
HETATM   10  C4  UNL     1      23.283   0.589  53.635  1.00  0.00     0.001 C 
HETATM   11  C3  UNL     1      22.019   0.220  53.846  1.00  0.00    -0.020 C 
HETATM   12  C2  UNL     1      21.725  -1.149  54.321  1.00  0.00     0.029 C 
HETATM   13  C1  UNL     1      21.477  -2.186  53.310  1.00  0.00     0.018 C 
HETATM   14  C17 UNL     1      22.759  -1.428  55.367  1.00  0.00     0.016 C 
HETATM   15  C16 UNL     1      24.108  -1.102  55.231  1.00  0.00     0.066 C 
BRANCH  15  16
HETATM   16  O1  UNL     1      24.824  -1.423  56.328  1.00  0.00    -0.363 OA
HETATM   17  H16 UNL     1      25.177  -2.362  56.566  1.00  0.00     0.217 HD
ENDBRANCH  15  16
ENDBRANCH   7   9
ENDBRANCH   1   7
BRANCH   6  18
HETATM   18  N4  UNL     1      26.548   1.507  51.583  1.00  0.00    -0.339 N 
HETATM   19  H11 UNL     1      26.642   0.623  50.976  1.00  0.00     0.167 HD
BRANCH  18  20
HETATM   20  C10 UNL     1      25.826   2.685  51.130  1.00  0.00     0.035 A 
HETATM   21  C11 UNL     1      26.485   3.199  50.016  1.00  0.00     0.029 A 
HETATM   22  C12 UNL     1      25.866   4.358  49.505  1.00  0.00     0.004 A 
HETATM   23  C13 UNL     1      24.734   4.904  50.056  1.00  0.00     0.019 A 
HETATM   24  C14 UNL     1      24.146   4.331  51.152  1.00  0.00     0.013 A 
HETATM   25 BR1  UNL     1      22.553   5.042  51.930  1.00  0.00    -0.051 Br
HETATM   26  C15 UNL     1      24.677   3.219  51.710  1.00  0.00     0.048 A 
ENDBRANCH  18  20
ENDBRANCH   6  18
TORSDOF 5
ENDMDL
MODEL 5
REMARK VINA RESULT:      -7.7      2.922      4.681
REMARK  5 active torsions:
REMARK  status: ('A' for Active; 'I' for Inactive)
REMARK    1  A    between atoms: C5_5  and  N1_6 
REMARK    2  A    between atoms: N1_6  and  C6_7 
REMARK    3  A    between atoms: C9_12  and  N4_13 
REMARK    4  A    between atoms: N4_13  and  C10_14 
REMARK    5  A    between atoms: C16_21  and  O1_22 
ROOT
HETATM    1  C6  UNL     1      23.991  -0.474  53.837  1.00  0.00     0.093 A 
HETATM    2  C7  UNL     1      23.604  -1.235  54.898  1.00  0.00     0.151 A 
HETATM    3  N2  UNL     1      22.358  -1.313  55.335  1.00  0.00    -0.252 NA
HETATM    4  C8  UNL     1      21.372  -0.594  54.684  1.00  0.00     0.235 A 
HETATM    5  N3  UNL     1      21.574   0.234  53.571  1.00  0.00    -0.222 NA
HETATM    6  C9  UNL     1      22.951   0.192  53.264  1.00  0.00     0.157 A 
ENDROOT
BRANCH   1   7
HETATM    7  N1  UNL     1      25.241  -0.126  53.221  1.00  0.00    -0.372 N 
HETATM    8  H8  UNL     1      25.269  -0.092  52.190  1.00  0.00     0.161 HD
BRANCH   7   9
HETATM    9  C5  UNL     1      26.594   0.147  53.460  1.00  0.00     0.161 C 
HETATM   10  C4  UNL     1      27.001   0.143  54.917  1.00  0.00     0.001 C 
HETATM   11  C3  UNL     1      28.316   0.187  55.130  1.00  0.00    -0.020 C 
HETATM   12  C2  UNL     1      29.243   0.250  53.980  1.00  0.00     0.029 C 
HETATM   13  C1  UNL     1      29.740  -1.019  53.430  1.00  0.00     0.018 C 
HETATM   14  C17 UNL     1      28.617   1.223  53.029  1.00  0.00     0.016 C 
HETATM   15  C16 UNL     1      27.257   1.244  52.723  1.00  0.00     0.066 C 
BRANCH  15  16
HETATM   16  O1  UNL     1      26.940   2.240  51.871  1.00  0.00    -0.363 OA
HETATM   17  H16 UNL     1      26.037   2.737  51.833  1.00  0.00     0.217 HD
ENDBRANCH  15  16
ENDBRANCH   7   9
ENDBRANCH   1   7
BRANCH   6  18
HETATM   18  N4  UNL     1      23.055   1.035  52.128  1.00  0.00    -0.339 N 
HETATM   19  H11 UNL     1      23.444   0.445  51.315  1.00  0.00     0.167 HD
BRANCH  18  20
HETATM   20  C10 UNL     1      22.760   2.452  51.983  1.00  0.00     0.035 A 
HETATM   21  C11 UNL     1      23.687   3.169  52.735  1.00  0.00     0.029 A 
HETATM   22  C12 UNL     1      23.477   4.562  52.671  1.00  0.00     0.004 A 
HETATM   23  C13 UNL     1      22.466   5.131  51.938  1.00  0.00     0.019 A 
HETATM   24  C14 UNL     1      21.598   4.350  51.223  1.00  0.00     0.013 A 
HETATM   25 BR1  UNL     1      20.196   5.104  50.167  1.00  0.00    -0.051 Br
HETATM   26  C15 UNL     1      21.724   3.003  51.232  1.00  0.00     0.048 A 
ENDBRANCH  18  20
ENDBRANCH   6  18
TORSDOF 5
ENDMDL
MODEL 6
REMARK VINA RESULT:      -7.6      2.722      5.873
REMARK  5 active torsions:
REMARK  status: ('A' for Active; 'I' for Inactive)
REMARK    1  A    between atoms: C5_5  and  N1_6 
REMARK    2  A    between atoms: N1_6  and  C6_7 
REMARK    3  A    between atoms: C9_12  and  N4_13 
REMARK    4  A    between atoms: N4_13  and  C10_14 
REMARK    5  A    between atoms: C16_21  and  O1_22 
ROOT
HETATM    1  C6  UNL     1      25.922   1.261  52.986  1.00  0.00     0.093 A 
HETATM    2  C7  UNL     1      26.497   1.030  54.199  1.00  0.00     0.151 A 
HETATM    3  N2  UNL     1      27.714   1.430  54.527  1.00  0.00    -0.252 NA
HETATM    4  C8  UNL     1      28.461   2.136  53.602  1.00  0.00     0.235 A 
HETATM    5  N3  UNL     1      28.038   2.477  52.309  1.00  0.00    -0.222 NA
HETATM    6  C9  UNL     1      26.733   1.962  52.148  1.00  0.00     0.157 A 
ENDROOT
BRANCH   1   7
HETATM    7  N1  UNL     1      24.702   0.873  52.334  1.00  0.00    -0.372 N 
HETATM    8  H8  UNL     1      24.777   0.475  51.385  1.00  0.00     0.161 HD
BRANCH   7   9
HETATM    9  C5  UNL     1      23.305   0.874  52.433  1.00  0.00     0.161 C 
HETATM   10  C4  UNL     1      22.667   2.244  52.484  1.00  0.00     0.001 C 
HETATM   11  C3  UNL     1      21.339   2.248  52.360  1.00  0.00    -0.020 C 
HETATM   12  C2  UNL     1      20.615   0.969  52.205  1.00  0.00     0.029 C 
HETATM   13  C1  UNL     1      20.378   0.476  50.841  1.00  0.00     0.018 C 
HETATM   14  C17 UNL     1      21.262   0.035  53.180  1.00  0.00     0.016 C 
HETATM   15  C16 UNL     1      22.640  -0.060  53.367  1.00  0.00     0.066 C 
BRANCH  15  16
HETATM   16  O1  UNL     1      22.966  -0.946  54.329  1.00  0.00    -0.363 OA
HETATM   17  H16 UNL     1      23.898  -1.365  54.474  1.00  0.00     0.217 HD
ENDBRANCH  15  16
ENDBRANCH   7   9
ENDBRANCH   1   7
BRANCH   6  18
HETATM   18  N4  UNL     1      26.386   2.366  50.832  1.00  0.00    -0.339 N 
HETATM   19  H11 UNL     1      26.436   1.497  50.198  1.00  0.00     0.167 HD
BRANCH  18  20
HETATM   20  C10 UNL     1      26.048   3.683  50.316  1.00  0.00     0.035 A 
HETATM   21  C11 UNL     1      26.970   4.012  49.325  1.00  0.00     0.029 A 
HETATM   22  C12 UNL     1      26.735   5.286  48.767  1.00  0.00     0.004 A 
HETATM   23  C13 UNL     1      25.702   6.096  49.166  1.00  0.00     0.019 A 
HETATM   24  C14 UNL     1      24.837   5.692  50.148  1.00  0.00     0.013 A 
HETATM   25 BR1  UNL     1      23.369   6.777  50.710  1.00  0.00    -0.051 Br
HETATM   26  C15 UNL     1      24.992   4.486  50.741  1.00  0.00     0.048 A 
ENDBRANCH  18  20
ENDBRANCH   6  18
TORSDOF 5
ENDMDL
MODEL 7
REMARK VINA RESULT:      -7.6      3.278      5.988
REMARK  5 active torsions:
REMARK  status: ('A' for Active; 'I' for Inactive)
REMARK    1  A    between atoms: C5_5  and  N1_6 
REMARK    2  A    between atoms: N1_6  and  C6_7 
REMARK    3  A    between atoms: C9_12  and  N4_13 
REMARK    4  A    between atoms: N4_13  and  C10_14 
REMARK    5  A    between atoms: C16_21  and  O1_22 
ROOT
HETATM    1  C6  UNL     1      25.723   1.452  52.939  1.00  0.00     0.093 A 
HETATM    2  C7  UNL     1      26.277   1.315  54.176  1.00  0.00     0.151 A 
HETATM    3  N2  UNL     1      27.515   1.670  54.474  1.00  0.00    -0.252 NA
HETATM    4  C8  UNL     1      28.310   2.225  53.487  1.00  0.00     0.235 A 
HETATM    5  N3  UNL     1      27.915   2.454  52.161  1.00  0.00    -0.222 NA
HETATM    6  C9  UNL     1      26.581   2.007  52.040  1.00  0.00     0.157 A 
ENDROOT
BRANCH   1   7
HETATM    7  N1  UNL     1      24.484   1.075  52.318  1.00  0.00    -0.372 N 
HETATM    8  H8  UNL     1      24.369   1.293  51.316  1.00  0.00     0.161 HD
BRANCH   7   9
HETATM    9  C5  UNL     1      23.209   0.540  52.547  1.00  0.00     0.161 C 
HETATM   10  C4  UNL     1      23.194  -0.850  53.141  1.00  0.00     0.001 C 
HETATM   11  C3  UNL     1      21.997  -1.267  53.557  1.00  0.00    -0.020 C 
HETATM   12  C2  UNL     1      20.820  -0.387  53.399  1.00  0.00     0.029 C 
HETATM   13  C1  UNL     1      20.487   0.518  54.508  1.00  0.00     0.018 C 
HETATM   14  C17 UNL     1      20.959   0.208  52.033  1.00  0.00     0.016 C 
HETATM   15  C16 UNL     1      22.160   0.692  51.516  1.00  0.00     0.066 C 
BRANCH  15  16
HETATM   16  O1  UNL     1      22.029   1.141  50.251  1.00  0.00    -0.363 OA
HETATM   17  H16 UNL     1      22.692   1.756  49.756  1.00  0.00     0.217 HD
ENDBRANCH  15  16
ENDBRANCH   7   9
ENDBRANCH   1   7
BRANCH   6  18
HETATM   18  N4  UNL     1      26.266   2.291  50.686  1.00  0.00    -0.339 N 
HETATM   19  H11 UNL     1      26.210   1.354  50.159  1.00  0.00     0.167 HD
BRANCH  18  20
HETATM   20  C10 UNL     1      26.073   3.568  50.018  1.00  0.00     0.035 A 
HETATM   21  C11 UNL     1      24.721   3.895  50.085  1.00  0.00     0.029 A 
HETATM   22  C12 UNL     1      24.426   5.119  49.450  1.00  0.00     0.004 A 
HETATM   23  C13 UNL     1      25.381   5.893  48.841  1.00  0.00     0.019 A 
HETATM   24  C14 UNL     1      26.693   5.497  48.824  1.00  0.00     0.013 A 
HETATM   25 BR1  UNL     1      28.058   6.561  48.014  1.00  0.00    -0.051 Br
HETATM   26  C15 UNL     1      27.063   4.334  49.407  1.00  0.00     0.048 A 
ENDBRANCH  18  20
ENDBRANCH   6  18
TORSDOF 5
ENDMDL
MODEL 8
REMARK VINA RESULT:      -7.5      3.194      5.161
REMARK  5 active torsions:
REMARK  status: ('A' for Active; 'I' for Inactive)
REMARK    1  A    between atoms: C5_5  and  N1_6 
REMARK    2  A    between atoms: N1_6  and  C6_7 
REMARK    3  A    between atoms: C9_12  and  N4_13 
REMARK    4  A    between atoms: N4_13  and  C10_14 
REMARK    5  A    between atoms: C16_21  and  O1_22 
ROOT
HETATM    1  C6  UNL     1      22.484   1.696  50.207  1.00  0.00     0.093 A 
HETATM    2  C7  UNL     1      21.643   0.982  49.408  1.00  0.00     0.151 A 
HETATM    3  N2  UNL     1      21.288   1.355  48.190  1.00  0.00    -0.252 NA
HETATM    4  C8  UNL     1      21.799   2.531  47.672  1.00  0.00     0.235 A 
HETATM    5  N3  UNL     1      22.684   3.392  48.337  1.00  0.00    -0.222 NA
HETATM    6  C9  UNL     1      22.934   2.833  49.609  1.00  0.00     0.157 A 
ENDROOT
BRANCH   1   7
HETATM    7  N1  UNL     1      22.950   1.595  51.561  1.00  0.00    -0.372 N 
HETATM    8  H8  UNL     1      22.379   2.042  52.295  1.00  0.00     0.161 HD
BRANCH   7   9
HETATM    9  C5  UNL     1      24.003   1.157  52.376  1.00  0.00     0.161 C 
HETATM   10  C4  UNL     1      23.665   0.006  53.297  1.00  0.00     0.001 C 
HETATM   11  C3  UNL     1      24.712  -0.547  53.909  1.00  0.00    -0.020 C 
HETATM   12  C2  UNL     1      26.069  -0.010  53.667  1.00  0.00     0.029 C 
HETATM   13  C1  UNL     1      26.855  -0.600  52.575  1.00  0.00     0.018 C 
HETATM   14  C17 UNL     1      25.906   1.478  53.684  1.00  0.00     0.016 C 
HETATM   15  C16 UNL     1      24.859   2.152  53.057  1.00  0.00     0.066 C 
BRANCH  15  16
HETATM   16  O1  UNL     1      24.919   3.484  53.252  1.00  0.00    -0.363 OA
HETATM   17  H16 UNL     1      25.433   3.962  54.009  1.00  0.00     0.217 HD
ENDBRANCH  15  16
ENDBRANCH   7   9
ENDBRANCH   1   7
BRANCH   6  18
HETATM   18  N4  UNL     1      23.841   3.753  50.195  1.00  0.00    -0.339 N 
HETATM   19  H11 UNL     1      23.553   3.888  51.224  1.00  0.00     0.167 HD
BRANCH  18  20
HETATM   20  C10 UNL     1      24.959   4.471  49.603  1.00  0.00     0.035 A 
HETATM   21  C11 UNL     1      26.075   3.637  49.631  1.00  0.00     0.029 A 
HETATM   22  C12 UNL     1      27.223   4.249  49.088  1.00  0.00     0.004 A 
HETATM   23  C13 UNL     1      27.222   5.527  48.586  1.00  0.00     0.019 A 
HETATM   24  C14 UNL     1      26.076   6.278  48.595  1.00  0.00     0.013 A 
HETATM   25 BR1  UNL     1      26.025   8.048  47.879  1.00  0.00    -0.051 Br
HETATM   26  C15 UNL     1      24.929   5.770  49.102  1.00  0.00     0.048 A 
ENDBRANCH  18  20
ENDBRANCH   6  18
TORSDOF 5
ENDMDL
MODEL 9
REMARK VINA RESULT:      -7.4      2.218      3.202
REMARK  5 active torsions:
REMARK  status: ('A' for Active; 'I' for Inactive)
REMARK    1  A    between atoms: C5_5  and  N1_6 
REMARK    2  A    between atoms: N1_6  and  C6_7 
REMARK    3  A    between atoms: C9_12  and  N4_13 
REMARK    4  A    between atoms: N4_13  and  C10_14 
REMARK    5  A    between atoms: C16_21  and  O1_22 
ROOT
HETATM    1  C6  UNL     1      23.535   2.997  51.862  1.00  0.00     0.093 A 
HETATM    2  C7  UNL     1      23.562   4.345  52.055  1.00  0.00     0.151 A 
HETATM    3  N2  UNL     1      22.484   5.110  52.079  1.00  0.00    -0.252 NA
HETATM    4  C8  UNL     1      21.242   4.525  51.909  1.00  0.00     0.235 A 
HETATM    5  N3  UNL     1      21.012   3.157  51.709  1.00  0.00    -0.222 NA
HETATM    6  C9  UNL     1      22.270   2.517  51.707  1.00  0.00     0.157 A 
ENDROOT
BRANCH   1   7
HETATM    7  N1  UNL     1      24.514   1.961  51.691  1.00  0.00    -0.372 N 
HETATM    8  H8  UNL     1      24.520   1.457  50.791  1.00  0.00     0.161 HD
BRANCH   7   9
HETATM    9  C5  UNL     1      25.523   1.227  52.330  1.00  0.00     0.161 C 
HETATM   10  C4  UNL     1      25.166   0.709  53.705  1.00  0.00     0.001 C 
HETATM   11  C3  UNL     1      26.035  -0.163  54.216  1.00  0.00    -0.020 C 
HETATM   12  C2  UNL     1      27.241  -0.533  53.446  1.00  0.00     0.029 C 
HETATM   13  C1  UNL     1      27.154  -1.696  52.553  1.00  0.00     0.018 C 
HETATM   14  C17 UNL     1      27.742   0.754  52.867  1.00  0.00     0.016 C 
HETATM   15  C16 UNL     1      26.917   1.718  52.289  1.00  0.00     0.066 C 
BRANCH  15  16
HETATM   16  O1  UNL     1      27.606   2.801  51.878  1.00  0.00    -0.363 OA
HETATM   17  H16 UNL     1      27.655   3.155  50.910  1.00  0.00     0.217 HD
ENDBRANCH  15  16
ENDBRANCH   7   9
ENDBRANCH   1   7
BRANCH   6  18
HETATM   18  N4  UNL     1      21.939   1.151  51.517  1.00  0.00    -0.339 N 
HETATM   19  H11 UNL     1      22.370   0.835  50.582  1.00  0.00     0.167 HD
BRANCH  18  20
HETATM   20  C10 UNL     1      21.142   0.257  52.343  1.00  0.00     0.035 A 
HETATM   21  C11 UNL     1      21.989  -0.360  53.260  1.00  0.00     0.029 A 
HETATM   22  C12 UNL     1      21.309  -1.262  54.105  1.00  0.00     0.004 A 
HETATM   23  C13 UNL     1      19.959  -1.490  54.021  1.00  0.00     0.019 A 
HETATM   24  C14 UNL     1      19.198  -0.835  53.089  1.00  0.00     0.013 A 
HETATM   25 BR1  UNL     1      17.310  -1.102  52.960  1.00  0.00    -0.051 Br
HETATM   26  C15 UNL     1      19.769   0.044  52.235  1.00  0.00     0.048 A 
ENDBRANCH  18  20
ENDBRANCH   6  18
TORSDOF 5
ENDMDL
