MODEL 1
REMARK VINA RESULT:      -8.6      0.000      0.000
REMARK  4 active torsions:
REMARK  status: ('A' for Active; 'I' for Inactive)
REMARK    1  A    between atoms: O1_2  and  C2_3 
REMARK    2  A    between atoms: C6_9  and  N3_10 
REMARK    3  A    between atoms: N3_10  and  C8_12 
REMARK    4  A    between atoms: C17_21  and  O2_22 
ROOT
HETATM    1  C2  UNL     1      20.346  -0.513  53.402  1.00  0.00     0.103 A 
HETATM    2  C3  UNL     1      21.009  -1.118  54.446  1.00  0.00     0.072 A 
HETATM    3  C4  UNL     1      22.375  -1.016  54.621  1.00  0.00     0.075 A 
HETATM    4  N1  UNL     1      22.988  -1.628  55.664  1.00  0.00    -0.241 NA
HETATM    5  C5  UNL     1      24.340  -1.477  55.763  1.00  0.00     0.236 A 
HETATM    6  N2  UNL     1      25.049  -0.757  54.874  1.00  0.00    -0.223 NA
HETATM    7  C6  UNL     1      24.480  -0.135  53.826  1.00  0.00     0.144 A 
HETATM    8  C15 UNL     1      23.120  -0.284  53.724  1.00  0.00     0.042 A 
HETATM    9  C16 UNL     1      22.483   0.333  52.668  1.00  0.00     0.057 A 
HETATM   10  C17 UNL     1      21.109   0.221  52.507  1.00  0.00     0.102 A 
ENDROOT
BRANCH   7  11
HETATM   11  N3  UNL     1      25.298   0.608  52.933  1.00  0.00    -0.335 N 
HETATM   12  C7  UNL     1      24.824   1.294  51.743  1.00  0.00     0.158 C 
BRANCH  11  13
HETATM   13  C8  UNL     1      26.693   0.691  53.217  1.00  0.00     0.036 A 
HETATM   14  C9  UNL     1      27.329   1.875  53.535  1.00  0.00     0.029 A 
HETATM   15  C10 UNL     1      28.676   1.972  53.812  1.00  0.00     0.003 A 
HETATM   16  C11 UNL     1      29.458   0.836  53.777  1.00  0.00     0.007 A 
HETATM   17  C12 UNL     1      28.877  -0.378  53.466  1.00  0.00    -0.060 A 
HETATM   18  C13 UNL     1      29.734  -1.594  53.432  1.00  0.00     0.048 C 
HETATM   19  C14 UNL     1      27.526  -0.402  53.200  1.00  0.00     0.036 A 
ENDBRANCH  11  13
ENDBRANCH   7  11
BRANCH  10  20
HETATM   20  O2  UNL     1      20.487   0.857  51.428  1.00  0.00    -0.353 OA
HETATM   21  C18 UNL     1      21.116   0.799  50.160  1.00  0.00     0.210 C 
ENDBRANCH  10  20
BRANCH   1  22
HETATM   22  O1  UNL     1      18.985  -0.574  53.168  1.00  0.00    -0.353 OA
HETATM   23  C1  UNL     1      18.166  -1.683  53.397  1.00  0.00     0.210 C 
ENDBRANCH   1  22
TORSDOF 4
ENDMDL
MODEL 2
REMARK VINA RESULT:      -8.5      1.643      2.594
REMARK  4 active torsions:
REMARK  status: ('A' for Active; 'I' for Inactive)
REMARK    1  A    between atoms: O1_2  and  C2_3 
REMARK    2  A    between atoms: C6_9  and  N3_10 
REMARK    3  A    between atoms: N3_10  and  C8_12 
REMARK    4  A    between atoms: C17_21  and  O2_22 
ROOT
HETATM    1  C2  UNL     1      21.051   0.910  50.842  1.00  0.00     0.103 A 
HETATM    2  C3  UNL     1      20.813   0.117  51.944  1.00  0.00     0.072 A 
HETATM    3  C4  UNL     1      21.784  -0.163  52.883  1.00  0.00     0.075 A 
HETATM    4  N1  UNL     1      21.507  -0.948  53.954  1.00  0.00    -0.241 NA
HETATM    5  C5  UNL     1      22.523  -1.176  54.835  1.00  0.00     0.236 A 
HETATM    6  N2  UNL     1      23.751  -0.653  54.665  1.00  0.00    -0.223 NA
HETATM    7  C6  UNL     1      24.068   0.130  53.617  1.00  0.00     0.144 A 
HETATM    8  C15 UNL     1      23.048   0.361  52.729  1.00  0.00     0.042 A 
HETATM    9  C16 UNL     1      23.316   1.158  51.636  1.00  0.00     0.057 A 
HETATM   10  C17 UNL     1      22.328   1.431  50.700  1.00  0.00     0.102 A 
ENDROOT
BRANCH   7  11
HETATM   11  N3  UNL     1      25.388   0.644  53.511  1.00  0.00    -0.335 N 
HETATM   12  C7  UNL     1      25.746   2.049  53.615  1.00  0.00     0.158 C 
BRANCH  11  13
HETATM   13  C8  UNL     1      26.450  -0.281  53.285  1.00  0.00     0.036 A 
HETATM   14  C9  UNL     1      26.259  -1.525  52.717  1.00  0.00     0.029 A 
HETATM   15  C10 UNL     1      27.275  -2.429  52.492  1.00  0.00     0.003 A 
HETATM   16  C11 UNL     1      28.568  -2.098  52.844  1.00  0.00     0.007 A 
HETATM   17  C12 UNL     1      28.820  -0.866  53.416  1.00  0.00    -0.060 A 
HETATM   18  C13 UNL     1      30.218  -0.523  53.791  1.00  0.00     0.048 C 
HETATM   19  C14 UNL     1      27.758  -0.011  53.612  1.00  0.00     0.036 A 
ENDBRANCH  11  13
ENDBRANCH   7  11
BRANCH  10  20
HETATM   20  O2  UNL     1      22.625   2.242  49.601  1.00  0.00    -0.353 OA
HETATM   21  C18 UNL     1      22.828   3.626  49.822  1.00  0.00     0.210 C 
ENDBRANCH  10  20
BRANCH   1  22
HETATM   22  O1  UNL     1      20.127   1.230  49.865  1.00  0.00    -0.353 OA
HETATM   23  C1  UNL     1      18.742   1.279  50.037  1.00  0.00     0.210 C 
ENDBRANCH   1  22
TORSDOF 4
ENDMDL
MODEL 3
REMARK VINA RESULT:      -8.4      3.394      6.544
REMARK  4 active torsions:
REMARK  status: ('A' for Active; 'I' for Inactive)
REMARK    1  A    between atoms: O1_2  and  C2_3 
REMARK    2  A    between atoms: C6_9  and  N3_10 
REMARK    3  A    between atoms: N3_10  and  C8_12 
REMARK    4  A    between atoms: C17_21  and  O2_22 
ROOT
HETATM    1  C2  UNL     1      26.878  -0.246  53.671  1.00  0.00     0.103 A 
HETATM    2  C3  UNL     1      25.652  -0.790  53.986  1.00  0.00     0.072 A 
HETATM    3  C4  UNL     1      24.460  -0.164  53.684  1.00  0.00     0.075 A 
HETATM    4  N1  UNL     1      23.274  -0.735  54.011  1.00  0.00    -0.241 NA
HETATM    5  C5  UNL     1      22.143  -0.050  53.678  1.00  0.00     0.236 A 
HETATM    6  N2  UNL     1      22.184   1.141  53.052  1.00  0.00    -0.223 NA
HETATM    7  C6  UNL     1      23.338   1.742  52.710  1.00  0.00     0.144 A 
HETATM    8  C15 UNL     1      24.478   1.055  53.043  1.00  0.00     0.042 A 
HETATM    9  C16 UNL     1      25.690   1.624  52.716  1.00  0.00     0.057 A 
HETATM   10  C17 UNL     1      26.880   0.981  53.027  1.00  0.00     0.102 A 
ENDROOT
BRANCH   7  11
HETATM   11  N3  UNL     1      23.295   2.999  52.049  1.00  0.00    -0.335 N 
HETATM   12  C7  UNL     1      23.530   4.284  52.687  1.00  0.00     0.158 C 
BRANCH  11  13
HETATM   13  C8  UNL     1      23.000   3.012  50.655  1.00  0.00     0.036 A 
HETATM   14  C9  UNL     1      22.578   1.895  49.962  1.00  0.00     0.029 A 
HETATM   15  C10 UNL     1      22.289   1.892  48.614  1.00  0.00     0.003 A 
HETATM   16  C11 UNL     1      22.419   3.060  47.890  1.00  0.00     0.007 A 
HETATM   17  C12 UNL     1      22.836   4.210  48.530  1.00  0.00    -0.060 A 
HETATM   18  C13 UNL     1      22.972   5.462  47.736  1.00  0.00     0.048 C 
HETATM   19  C14 UNL     1      23.108   4.142  49.879  1.00  0.00     0.036 A 
ENDBRANCH  11  13
ENDBRANCH   7  11
BRANCH  10  20
HETATM   20  O2  UNL     1      28.097   1.579  52.684  1.00  0.00    -0.353 OA
HETATM   21  C18 UNL     1      28.656   2.525  53.577  1.00  0.00     0.210 C 
ENDBRANCH  10  20
BRANCH   1  22
HETATM   22  O1  UNL     1      28.107  -0.818  53.943  1.00  0.00    -0.353 OA
HETATM   23  C1  UNL     1      28.734  -1.806  53.180  1.00  0.00     0.210 C 
ENDBRANCH   1  22
TORSDOF 4
ENDMDL
MODEL 4
REMARK VINA RESULT:      -8.3      3.176      5.754
REMARK  4 active torsions:
REMARK  status: ('A' for Active; 'I' for Inactive)
REMARK    1  A    between atoms: O1_2  and  C2_3 
REMARK    2  A    between atoms: C6_9  and  N3_10 
REMARK    3  A    between atoms: N3_10  and  C8_12 
REMARK    4  A    between atoms: C17_21  and  O2_22 
ROOT
HETATM    1  C2  UNL     1      26.058  -0.435  53.889  1.00  0.00     0.103 A 
HETATM    2  C3  UNL     1      24.970  -0.869  54.614  1.00  0.00     0.072 A 
HETATM    3  C4  UNL     1      23.669  -0.611  54.233  1.00  0.00     0.075 A 
HETATM    4  N1  UNL     1      22.627  -1.057  54.977  1.00  0.00    -0.241 NA
HETATM    5  C5  UNL     1      21.373  -0.758  54.530  1.00  0.00     0.236 A 
HETATM    6  N2  UNL     1      21.162  -0.052  53.403  1.00  0.00    -0.223 NA
HETATM    7  C6  UNL     1      22.168   0.410  52.637  1.00  0.00     0.144 A 
HETATM    8  C15 UNL     1      23.430   0.110  53.084  1.00  0.00     0.042 A 
HETATM    9  C16 UNL     1      24.499   0.558  52.337  1.00  0.00     0.057 A 
HETATM   10  C17 UNL     1      25.802   0.289  52.734  1.00  0.00     0.102 A 
ENDROOT
BRANCH   7  11
HETATM   11  N3  UNL     1      21.861   1.146  51.462  1.00  0.00    -0.335 N 
HETATM   12  C7  UNL     1      21.149   0.618  50.310  1.00  0.00     0.158 C 
BRANCH  11  13
HETATM   13  C8  UNL     1      22.279   2.507  51.397  1.00  0.00     0.036 A 
HETATM   14  C9  UNL     1      21.899   3.459  52.322  1.00  0.00     0.029 A 
HETATM   15  C10 UNL     1      22.295   4.778  52.273  1.00  0.00     0.003 A 
HETATM   16  C11 UNL     1      23.120   5.200  51.251  1.00  0.00     0.007 A 
HETATM   17  C12 UNL     1      23.533   4.294  50.295  1.00  0.00    -0.060 A 
HETATM   18  C13 UNL     1      24.422   4.764  49.198  1.00  0.00     0.048 C 
HETATM   19  C14 UNL     1      23.100   2.990  50.405  1.00  0.00     0.036 A 
ENDBRANCH  11  13
ENDBRANCH   7  11
BRANCH  10  20
HETATM   20  O2  UNL     1      26.869   0.753  51.959  1.00  0.00    -0.353 OA
HETATM   21  C18 UNL     1      26.801   2.070  51.443  1.00  0.00     0.210 C 
ENDBRANCH  10  20
BRANCH   1  22
HETATM   22  O1  UNL     1      27.383  -0.658  54.212  1.00  0.00    -0.353 OA
HETATM   23  C1  UNL     1      28.210   0.219  54.918  1.00  0.00     0.210 C 
ENDBRANCH   1  22
TORSDOF 4
ENDMDL
MODEL 5
REMARK VINA RESULT:      -8.2      3.007      6.837
REMARK  4 active torsions:
REMARK  status: ('A' for Active; 'I' for Inactive)
REMARK    1  A    between atoms: O1_2  and  C2_3 
REMARK    2  A    between atoms: C6_9  and  N3_10 
REMARK    3  A    between atoms: N3_10  and  C8_12 
REMARK    4  A    between atoms: C17_21  and  O2_22 
ROOT
HETATM    1  C2  UNL     1      26.255  -0.127  52.857  1.00  0.00     0.103 A 
HETATM    2  C3  UNL     1      26.891   0.786  52.044  1.00  0.00     0.072 A 
HETATM    3  C4  UNL     1      26.245   1.879  51.503  1.00  0.00     0.075 A 
HETATM    4  N1  UNL     1      26.910   2.753  50.707  1.00  0.00    -0.241 NA
HETATM    5  C5  UNL     1      26.198   3.807  50.213  1.00  0.00     0.236 A 
HETATM    6  N2  UNL     1      24.894   3.985  50.493  1.00  0.00    -0.223 NA
HETATM    7  C6  UNL     1      24.197   3.142  51.277  1.00  0.00     0.144 A 
HETATM    8  C15 UNL     1      24.911   2.082  51.776  1.00  0.00     0.042 A 
HETATM    9  C16 UNL     1      24.248   1.185  52.587  1.00  0.00     0.057 A 
HETATM   10  C17 UNL     1      24.912   0.091  53.123  1.00  0.00     0.102 A 
ENDROOT
BRANCH   7  11
HETATM   11  N3  UNL     1      22.823   3.402  51.525  1.00  0.00    -0.335 N 
HETATM   12  C7  UNL     1      22.315   4.501  52.329  1.00  0.00     0.158 C 
BRANCH  11  13
HETATM   13  C8  UNL     1      21.861   2.524  50.945  1.00  0.00     0.036 A 
HETATM   14  C9  UNL     1      21.812   2.243  49.595  1.00  0.00     0.029 A 
HETATM   15  C10 UNL     1      20.888   1.397  49.019  1.00  0.00     0.003 A 
HETATM   16  C11 UNL     1      19.946   0.780  49.817  1.00  0.00     0.007 A 
HETATM   17  C12 UNL     1      19.945   1.023  51.176  1.00  0.00    -0.060 A 
HETATM   18  C13 UNL     1      18.922   0.352  52.023  1.00  0.00     0.048 C 
HETATM   19  C14 UNL     1      20.897   1.880  51.684  1.00  0.00     0.036 A 
ENDBRANCH  11  13
ENDBRANCH   7  11
BRANCH  10  20
HETATM   20  O2  UNL     1      24.217  -0.804  53.943  1.00  0.00    -0.353 OA
HETATM   21  C18 UNL     1      22.805  -0.855  53.837  1.00  0.00     0.210 C 
ENDBRANCH  10  20
BRANCH   1  22
HETATM   22  O1  UNL     1      26.839  -1.240  53.431  1.00  0.00    -0.353 OA
HETATM   23  C1  UNL     1      27.326  -2.353  52.741  1.00  0.00     0.210 C 
ENDBRANCH   1  22
TORSDOF 4
ENDMDL
MODEL 6
REMARK VINA RESULT:      -8.1      2.306      4.406
REMARK  4 active torsions:
REMARK  status: ('A' for Active; 'I' for Inactive)
REMARK    1  A    between atoms: O1_2  and  C2_3 
REMARK    2  A    between atoms: C6_9  and  N3_10 
REMARK    3  A    between atoms: N3_10  and  C8_12 
REMARK    4  A    between atoms: C17_21  and  O2_22 
ROOT
HETATM    1  C2  UNL     1      21.937   2.461  50.158  1.00  0.00     0.103 A 
HETATM    2  C3  UNL     1      22.993   2.996  49.453  1.00  0.00     0.072 A 
HETATM    3  C4  UNL     1      24.293   2.956  49.914  1.00  0.00     0.075 A 
HETATM    4  N1  UNL     1      25.303   3.496  49.187  1.00  0.00    -0.241 NA
HETATM    5  C5  UNL     1      26.559   3.414  49.714  1.00  0.00     0.236 A 
HETATM    6  N2  UNL     1      26.802   2.828  50.901  1.00  0.00    -0.223 NA
HETATM    7  C6  UNL     1      25.829   2.281  51.654  1.00  0.00     0.144 A 
HETATM    8  C15 UNL     1      24.565   2.361  51.126  1.00  0.00     0.042 A 
HETATM    9  C16 UNL     1      23.528   1.817  51.854  1.00  0.00     0.057 A 
HETATM   10  C17 UNL     1      22.226   1.865  51.376  1.00  0.00     0.102 A 
ENDROOT
BRANCH   7  11
HETATM   11  N3  UNL     1      26.169   1.680  52.895  1.00  0.00    -0.335 N 
HETATM   12  C7  UNL     1      25.937   2.276  54.200  1.00  0.00     0.158 C 
BRANCH  11  13
HETATM   13  C8  UNL     1      26.784   0.395  52.869  1.00  0.00     0.036 A 
HETATM   14  C9  UNL     1      26.142  -0.741  52.419  1.00  0.00     0.029 A 
HETATM   15  C10 UNL     1      26.723  -1.991  52.388  1.00  0.00     0.003 A 
HETATM   16  C11 UNL     1      28.023  -2.144  52.826  1.00  0.00     0.007 A 
HETATM   17  C12 UNL     1      28.717  -1.043  53.288  1.00  0.00    -0.060 A 
HETATM   18  C13 UNL     1      30.118  -1.224  53.757  1.00  0.00     0.048 C 
HETATM   19  C14 UNL     1      28.075   0.176  53.291  1.00  0.00     0.036 A 
ENDBRANCH  11  13
ENDBRANCH   7  11
BRANCH  10  20
HETATM   20  O2  UNL     1      21.193   1.305  52.134  1.00  0.00    -0.353 OA
HETATM   21  C18 UNL     1      21.256  -0.076  52.439  1.00  0.00     0.210 C 
ENDBRANCH  10  20
BRANCH   1  22
HETATM   22  O1  UNL     1      20.615   2.466  49.757  1.00  0.00    -0.353 OA
HETATM   23  C1  UNL     1      19.770   3.578  49.745  1.00  0.00     0.210 C 
ENDBRANCH   1  22
TORSDOF 4
ENDMDL
MODEL 7
REMARK VINA RESULT:      -8.1      3.161      7.353
REMARK  4 active torsions:
REMARK  status: ('A' for Active; 'I' for Inactive)
REMARK    1  A    between atoms: O1_2  and  C2_3 
REMARK    2  A    between atoms: C6_9  and  N3_10 
REMARK    3  A    between atoms: N3_10  and  C8_12 
REMARK    4  A    between atoms: C17_21  and  O2_22 
ROOT
HETATM    1  C2  UNL     1      25.576   2.017  53.553  1.00  0.00     0.103 A 
HETATM    2  C3  UNL     1      24.917   3.223  53.453  1.00  0.00     0.072 A 
HETATM    3  C4  UNL     1      23.719   3.365  52.782  1.00  0.00     0.075 A 
HETATM    4  N1  UNL     1      23.105   4.571  52.708  1.00  0.00    -0.241 NA
HETATM    5  C5  UNL     1      21.924   4.625  52.027  1.00  0.00     0.236 A 
HETATM    6  N2  UNL     1      21.380   3.538  51.448  1.00  0.00    -0.223 NA
HETATM    7  C6  UNL     1      21.957   2.323  51.498  1.00  0.00     0.144 A 
HETATM    8  C15 UNL     1      23.144   2.266  52.183  1.00  0.00     0.042 A 
HETATM    9  C16 UNL     1      23.780   1.046  52.267  1.00  0.00     0.057 A 
HETATM   10  C17 UNL     1      24.985   0.921  52.945  1.00  0.00     0.102 A 
ENDROOT
BRANCH   7  11
HETATM   11  N3  UNL     1      21.317   1.226  50.862  1.00  0.00    -0.335 N 
HETATM   12  C7  UNL     1      21.564   0.795  49.496  1.00  0.00     0.158 C 
BRANCH  11  13
HETATM   13  C8  UNL     1      20.357   0.485  51.612  1.00  0.00     0.036 A 
HETATM   14  C9  UNL     1      20.651  -0.137  52.809  1.00  0.00     0.029 A 
HETATM   15  C10 UNL     1      19.735  -0.857  53.545  1.00  0.00     0.003 A 
HETATM   16  C11 UNL     1      18.440  -0.978  53.083  1.00  0.00     0.007 A 
HETATM   17  C12 UNL     1      18.087  -0.378  51.891  1.00  0.00    -0.060 A 
HETATM   18  C13 UNL     1      16.687  -0.518  51.405  1.00  0.00     0.048 C 
HETATM   19  C14 UNL     1      19.053   0.327  51.207  1.00  0.00     0.036 A 
ENDBRANCH  11  13
ENDBRANCH   7  11
BRANCH  10  20
HETATM   20  O2  UNL     1      25.610  -0.329  53.016  1.00  0.00    -0.353 OA
HETATM   21  C18 UNL     1      26.555  -0.665  52.017  1.00  0.00     0.210 C 
ENDBRANCH  10  20
BRANCH   1  22
HETATM   22  O1  UNL     1      26.774   1.806  54.207  1.00  0.00    -0.353 OA
HETATM   23  C1  UNL     1      28.032   2.223  53.763  1.00  0.00     0.210 C 
ENDBRANCH   1  22
TORSDOF 4
ENDMDL
MODEL 8
REMARK VINA RESULT:      -8.0      1.912      3.407
REMARK  4 active torsions:
REMARK  status: ('A' for Active; 'I' for Inactive)
REMARK    1  A    between atoms: O1_2  and  C2_3 
REMARK    2  A    between atoms: C6_9  and  N3_10 
REMARK    3  A    between atoms: N3_10  and  C8_12 
REMARK    4  A    between atoms: C17_21  and  O2_22 
ROOT
HETATM    1  C2  UNL     1      19.673  -0.396  52.623  1.00  0.00     0.103 A 
HETATM    2  C3  UNL     1      20.189  -0.980  53.760  1.00  0.00     0.072 A 
HETATM    3  C4  UNL     1      21.529  -0.916  54.087  1.00  0.00     0.075 A 
HETATM    4  N1  UNL     1      21.995  -1.504  55.216  1.00  0.00    -0.241 NA
HETATM    5  C5  UNL     1      23.332  -1.394  55.466  1.00  0.00     0.236 A 
HETATM    6  N2  UNL     1      24.164  -0.735  54.638  1.00  0.00    -0.223 NA
HETATM    7  C6  UNL     1      23.743  -0.139  53.508  1.00  0.00     0.144 A 
HETATM    8  C15 UNL     1      22.398  -0.247  53.255  1.00  0.00     0.042 A 
HETATM    9  C16 UNL     1      21.910   0.347  52.110  1.00  0.00     0.057 A 
HETATM   10  C17 UNL     1      20.560   0.274  51.795  1.00  0.00     0.102 A 
ENDROOT
BRANCH   7  11
HETATM   11  N3  UNL     1      24.685   0.538  52.689  1.00  0.00    -0.335 N 
HETATM   12  C7  UNL     1      25.934  -0.031  52.211  1.00  0.00     0.158 C 
BRANCH  11  13
HETATM   13  C8  UNL     1      24.394   1.879  52.301  1.00  0.00     0.036 A 
HETATM   14  C9  UNL     1      24.170   2.895  53.207  1.00  0.00     0.029 A 
HETATM   15  C10 UNL     1      23.887   4.196  52.848  1.00  0.00     0.003 A 
HETATM   16  C11 UNL     1      23.818   4.529  51.511  1.00  0.00     0.007 A 
HETATM   17  C12 UNL     1      24.032   3.554  50.557  1.00  0.00    -0.060 A 
HETATM   18  C13 UNL     1      23.953   3.928  49.119  1.00  0.00     0.048 C 
HETATM   19  C14 UNL     1      24.311   2.275  50.987  1.00  0.00     0.036 A 
ENDBRANCH  11  13
ENDBRANCH   7  11
BRANCH  10  20
HETATM   20  O2  UNL     1      20.090   0.884  50.629  1.00  0.00    -0.353 OA
HETATM   21  C18 UNL     1      20.983   1.029  49.539  1.00  0.00     0.210 C 
ENDBRANCH  10  20
BRANCH   1  22
HETATM   22  O1  UNL     1      18.346  -0.422  52.236  1.00  0.00    -0.353 OA
HETATM   23  C1  UNL     1      17.359  -1.259  52.761  1.00  0.00     0.210 C 
ENDBRANCH   1  22
TORSDOF 4
ENDMDL
MODEL 9
REMARK VINA RESULT:      -7.8      3.166      6.244
REMARK  4 active torsions:
REMARK  status: ('A' for Active; 'I' for Inactive)
REMARK    1  A    between atoms: O1_2  and  C2_3 
REMARK    2  A    between atoms: C6_9  and  N3_10 
REMARK    3  A    between atoms: N3_10  and  C8_12 
REMARK    4  A    between atoms: C17_21  and  O2_22 
ROOT
HETATM    1  C2  UNL     1      23.295  -0.161  53.620  1.00  0.00     0.103 A 
HETATM    2  C3  UNL     1      24.603  -0.034  53.205  1.00  0.00     0.072 A 
HETATM    3  C4  UNL     1      25.026   0.986  52.378  1.00  0.00     0.075 A 
HETATM    4  N1  UNL     1      26.324   1.073  51.993  1.00  0.00    -0.241 NA
HETATM    5  C5  UNL     1      26.660   2.112  51.175  1.00  0.00     0.236 A 
HETATM    6  N2  UNL     1      25.756   3.018  50.759  1.00  0.00    -0.223 NA
HETATM    7  C6  UNL     1      24.460   2.968  51.116  1.00  0.00     0.144 A 
HETATM    8  C15 UNL     1      24.119   1.925  51.940  1.00  0.00     0.042 A 
HETATM    9  C16 UNL     1      22.803   1.824  52.339  1.00  0.00     0.057 A 
HETATM   10  C17 UNL     1      22.393   0.792  53.171  1.00  0.00     0.102 A 
ENDROOT
BRANCH   7  11
HETATM   11  N3  UNL     1      23.570   3.964  50.635  1.00  0.00    -0.335 N 
HETATM   12  C7  UNL     1      23.139   5.131  51.387  1.00  0.00     0.158 C 
BRANCH  11  13
HETATM   13  C8  UNL     1      23.053   3.818  49.314  1.00  0.00     0.036 A 
HETATM   14  C9  UNL     1      22.724   2.596  48.763  1.00  0.00     0.029 A 
HETATM   15  C10 UNL     1      22.224   2.439  47.488  1.00  0.00     0.003 A 
HETATM   16  C11 UNL     1      22.031   3.551  46.694  1.00  0.00     0.007 A 
HETATM   17  C12 UNL     1      22.342   4.801  47.191  1.00  0.00    -0.060 A 
HETATM   18  C13 UNL     1      22.128   5.991  46.323  1.00  0.00     0.048 C 
HETATM   19  C14 UNL     1      22.837   4.885  48.474  1.00  0.00     0.036 A 
ENDBRANCH  11  13
ENDBRANCH   7  11
BRANCH  10  20
HETATM   20  O2  UNL     1      21.053   0.712  53.562  1.00  0.00    -0.353 OA
HETATM   21  C18 UNL     1      20.110   0.213  52.631  1.00  0.00     0.210 C 
ENDBRANCH  10  20
BRANCH   1  22
HETATM   22  O1  UNL     1      22.804  -1.154  54.445  1.00  0.00    -0.353 OA
HETATM   23  C1  UNL     1      23.316  -1.502  55.698  1.00  0.00     0.210 C 
ENDBRANCH   1  22
TORSDOF 4
ENDMDL
