MODEL 1
REMARK VINA RESULT:      -7.8      0.000      0.000
REMARK  4 active torsions:
REMARK  status: ('A' for Active; 'I' for Inactive)
REMARK    1  A    between atoms: C2_2  and  N1_4 
REMARK    2  A    between atoms: C10_13  and  N4_14 
REMARK    3  A    between atoms: N4_14  and  C11_15 
REMARK    4  A    between atoms: C19_26  and  O2_27 
ROOT
HETATM    1  N1  UNL     1      33.645   5.728  46.686  1.00  0.00    -0.354 N 
HETATM    2  C4  UNL     1      33.574   5.100  48.040  1.00  0.00     0.169 C 
HETATM    3  C5  UNL     1      33.179   6.350  48.829  1.00  0.00     0.025 C 
HETATM    4  C6  UNL     1      34.062   7.378  48.846  1.00  0.00     0.003 C 
HETATM    5  C7  UNL     1      33.552   8.068  47.600  1.00  0.00     0.112 C 
HETATM    6  C8  UNL     1      32.271   8.819  47.878  1.00  0.00     0.078 A 
HETATM    7  N2  UNL     1      32.266  10.048  47.286  1.00  0.00    -0.243 NA
HETATM    8  C9  UNL     1      31.227  10.884  47.418  1.00  0.00     0.235 A 
HETATM    9  N3  UNL     1      30.125  10.568  48.142  1.00  0.00    -0.222 NA
HETATM   10  C10 UNL     1      29.996   9.395  48.777  1.00  0.00     0.158 A 
HETATM   11  C17 UNL     1      31.072   8.605  48.601  1.00  0.00     0.107 A 
HETATM   12  N5  UNL     1      30.882   7.352  49.311  1.00  0.00    -0.318 N 
HETATM   13  C18 UNL     1      31.812   6.234  49.419  1.00  0.00     0.253 C 
HETATM   14  O1  UNL     1      31.612   5.138  49.959  1.00  0.00    -0.268 OA
HETATM   15  C19 UNL     1      33.515   7.147  46.455  1.00  0.00     0.234 C 
HETATM   16  H16 UNL     1      30.020   7.119  49.839  1.00  0.00     0.169 HD
ENDROOT
BRANCH  10  17
HETATM   17  N4  UNL     1      28.913   8.950  49.574  1.00  0.00    -0.339 N 
HETATM   18  H11 UNL     1      29.133   8.982  50.591  1.00  0.00     0.167 HD
BRANCH  17  19
HETATM   19  C11 UNL     1      27.632   8.499  49.135  1.00  0.00     0.035 A 
HETATM   20  C12 UNL     1      27.455   8.170  47.807  1.00  0.00     0.029 A 
HETATM   21  C13 UNL     1      26.240   7.710  47.349  1.00  0.00     0.004 A 
HETATM   22  C14 UNL     1      25.173   7.570  48.220  1.00  0.00     0.019 A 
HETATM   23  C15 UNL     1      25.336   7.900  49.569  1.00  0.00     0.013 A 
HETATM   24 BR1  UNL     1      23.892   7.729  50.824  1.00  0.00    -0.051 Br
HETATM   25  C16 UNL     1      26.581   8.366  50.012  1.00  0.00     0.048 A 
ENDBRANCH  17  19
ENDBRANCH  10  17
BRANCH  15  26
HETATM   26  O2  UNL     1      34.598   7.486  45.607  1.00  0.00    -0.376 OA
HETATM   27  H18 UNL     1      34.228   7.409  44.668  1.00  0.00     0.212 HD
ENDBRANCH  15  26
BRANCH   1  28
HETATM   28  C2  UNL     1      33.839   4.907  45.545  1.00  0.00    -0.004 C 
HETATM   29  C1  UNL     1      32.940   4.970  44.599  1.00  0.00     0.037 C 
HETATM   30  C3  UNL     1      35.008   4.012  45.390  1.00  0.00     0.067 C 
ENDBRANCH   1  28
TORSDOF 4
ENDMDL
MODEL 2
REMARK VINA RESULT:      -7.7      7.267     10.182
REMARK  4 active torsions:
REMARK  status: ('A' for Active; 'I' for Inactive)
REMARK    1  A    between atoms: C2_2  and  N1_4 
REMARK    2  A    between atoms: C10_13  and  N4_14 
REMARK    3  A    between atoms: N4_14  and  C11_15 
REMARK    4  A    between atoms: C19_26  and  O2_27 
ROOT
HETATM    1  N1  UNL     1      22.741   5.620  47.712  1.00  0.00    -0.354 N 
HETATM    2  C4  UNL     1      23.854   6.604  47.873  1.00  0.00     0.169 C 
HETATM    3  C5  UNL     1      24.157   6.335  49.349  1.00  0.00     0.025 C 
HETATM    4  C6  UNL     1      23.175   6.603  50.243  1.00  0.00     0.003 C 
HETATM    5  C7  UNL     1      22.511   5.246  50.187  1.00  0.00     0.112 C 
HETATM    6  C8  UNL     1      23.301   4.221  50.966  1.00  0.00     0.078 A 
HETATM    7  N2  UNL     1      22.489   3.417  51.713  1.00  0.00    -0.243 NA
HETATM    8  C9  UNL     1      22.990   2.446  52.491  1.00  0.00     0.235 A 
HETATM    9  N3  UNL     1      24.320   2.204  52.588  1.00  0.00    -0.222 NA
HETATM   10  C10 UNL     1      25.231   2.916  51.910  1.00  0.00     0.158 A 
HETATM   11  C17 UNL     1      24.661   3.870  51.150  1.00  0.00     0.107 A 
HETATM   12  N5  UNL     1      25.689   4.613  50.442  1.00  0.00    -0.318 N 
HETATM   13  C18 UNL     1      25.516   5.750  49.546  1.00  0.00     0.253 C 
HETATM   14  O1  UNL     1      26.390   6.327  48.886  1.00  0.00    -0.268 OA
HETATM   15  C19 UNL     1      22.169   4.873  48.808  1.00  0.00     0.234 C 
HETATM   16  H16 UNL     1      26.702   4.395  50.510  1.00  0.00     0.169 HD
ENDROOT
BRANCH  10  17
HETATM   17  N4  UNL     1      26.640   2.777  51.934  1.00  0.00    -0.339 N 
HETATM   18  H11 UNL     1      27.119   3.515  51.378  1.00  0.00     0.167 HD
BRANCH  17  19
HETATM   19  C11 UNL     1      27.409   1.784  52.614  1.00  0.00     0.035 A 
HETATM   20  C12 UNL     1      28.373   2.185  53.515  1.00  0.00     0.029 A 
HETATM   21  C13 UNL     1      29.121   1.257  54.206  1.00  0.00     0.004 A 
HETATM   22  C14 UNL     1      28.915  -0.097  54.006  1.00  0.00     0.019 A 
HETATM   23  C15 UNL     1      27.941  -0.519  53.094  1.00  0.00     0.013 A 
HETATM   24 BR1  UNL     1      27.611  -2.382  52.771  1.00  0.00    -0.051 Br
HETATM   25  C16 UNL     1      27.193   0.443  52.403  1.00  0.00     0.048 A 
ENDBRANCH  17  19
ENDBRANCH  10  17
BRANCH  15  26
HETATM   26  O2  UNL     1      20.767   5.020  48.666  1.00  0.00    -0.376 OA
HETATM   27  H18 UNL     1      20.610   5.075  47.667  1.00  0.00     0.212 HD
ENDBRANCH  15  26
BRANCH   1  28
HETATM   28  C2  UNL     1      22.204   5.378  46.421  1.00  0.00    -0.004 C 
HETATM   29  C1  UNL     1      21.921   6.418  45.682  1.00  0.00     0.037 C 
HETATM   30  C3  UNL     1      21.971   4.015  45.892  1.00  0.00     0.067 C 
ENDBRANCH   1  28
TORSDOF 4
ENDMDL
MODEL 3
REMARK VINA RESULT:      -7.6      6.316      9.272
REMARK  4 active torsions:
REMARK  status: ('A' for Active; 'I' for Inactive)
REMARK    1  A    between atoms: C2_2  and  N1_4 
REMARK    2  A    between atoms: C10_13  and  N4_14 
REMARK    3  A    between atoms: N4_14  and  C11_15 
REMARK    4  A    between atoms: C19_26  and  O2_27 
ROOT
HETATM    1  N1  UNL     1      24.978   7.634  47.715  1.00  0.00    -0.354 N 
HETATM    2  C4  UNL     1      26.346   7.100  47.991  1.00  0.00     0.169 C 
HETATM    3  C5  UNL     1      26.044   6.444  49.341  1.00  0.00     0.025 C 
HETATM    4  C6  UNL     1      25.656   7.258  50.353  1.00  0.00     0.003 C 
HETATM    5  C7  UNL     1      24.174   7.210  50.059  1.00  0.00     0.112 C 
HETATM    6  C8  UNL     1      23.568   5.906  50.524  1.00  0.00     0.078 A 
HETATM    7  N2  UNL     1      22.367   6.099  51.143  1.00  0.00    -0.243 NA
HETATM    8  C9  UNL     1      21.666   5.072  51.644  1.00  0.00     0.235 A 
HETATM    9  N3  UNL     1      22.099   3.790  51.571  1.00  0.00    -0.222 NA
HETATM   10  C10 UNL     1      23.260   3.456  50.990  1.00  0.00     0.158 A 
HETATM   11  C17 UNL     1      23.910   4.532  50.509  1.00  0.00     0.107 A 
HETATM   12  N5  UNL     1      25.160   4.116  49.896  1.00  0.00    -0.318 N 
HETATM   13  C18 UNL     1      26.183   4.958  49.288  1.00  0.00     0.253 C 
HETATM   14  O1  UNL     1      27.207   4.591  48.698  1.00  0.00    -0.268 OA
HETATM   15  C19 UNL     1      23.892   7.582  48.665  1.00  0.00     0.234 C 
HETATM   16  H16 UNL     1      25.461   3.126  49.827  1.00  0.00     0.169 HD
ENDROOT
BRANCH  10  17
HETATM   17  N4  UNL     1      23.831   2.167  50.863  1.00  0.00    -0.339 N 
HETATM   18  H11 UNL     1      24.049   1.928  49.872  1.00  0.00     0.167 HD
BRANCH  17  19
HETATM   19  C11 UNL     1      24.120   1.231  51.902  1.00  0.00     0.035 A 
HETATM   20  C12 UNL     1      25.436   0.940  52.194  1.00  0.00     0.029 A 
HETATM   21  C13 UNL     1      25.757   0.059  53.204  1.00  0.00     0.004 A 
HETATM   22  C14 UNL     1      24.757  -0.549  53.944  1.00  0.00     0.019 A 
HETATM   23  C15 UNL     1      23.418  -0.265  53.659  1.00  0.00     0.013 A 
HETATM   24 BR1  UNL     1      21.988  -1.079  54.648  1.00  0.00    -0.051 Br
HETATM   25  C16 UNL     1      23.116   0.634  52.627  1.00  0.00     0.048 A 
ENDBRANCH  17  19
ENDBRANCH  10  17
BRANCH  15  26
HETATM   26  O2  UNL     1      23.348   8.890  48.680  1.00  0.00    -0.376 OA
HETATM   27  H18 UNL     1      23.772   9.340  49.482  1.00  0.00     0.212 HD
ENDBRANCH  15  26
BRANCH   1  28
HETATM   28  C2  UNL     1      24.699   8.220  46.453  1.00  0.00    -0.004 C 
HETATM   29  C1  UNL     1      25.451   9.219  46.074  1.00  0.00     0.037 C 
HETATM   30  C3  UNL     1      23.616   7.738  45.566  1.00  0.00     0.067 C 
ENDBRANCH   1  28
TORSDOF 4
ENDMDL
MODEL 4
REMARK VINA RESULT:      -7.6      8.746     12.189
REMARK  4 active torsions:
REMARK  status: ('A' for Active; 'I' for Inactive)
REMARK    1  A    between atoms: C2_2  and  N1_4 
REMARK    2  A    between atoms: C10_13  and  N4_14 
REMARK    3  A    between atoms: N4_14  and  C11_15 
REMARK    4  A    between atoms: C19_26  and  O2_27 
ROOT
HETATM    1  N1  UNL     1      19.536   2.054  51.057  1.00  0.00    -0.354 N 
HETATM    2  C4  UNL     1      19.793   0.810  51.843  1.00  0.00     0.169 C 
HETATM    3  C5  UNL     1      21.255   0.606  51.439  1.00  0.00     0.025 C 
HETATM    4  C6  UNL     1      21.511   0.381  50.127  1.00  0.00     0.003 C 
HETATM    5  C7  UNL     1      21.657   1.832  49.725  1.00  0.00     0.112 C 
HETATM    6  C8  UNL     1      22.993   2.385  50.161  1.00  0.00     0.078 A 
HETATM    7  N2  UNL     1      23.564   3.153  49.189  1.00  0.00    -0.243 NA
HETATM    8  C9  UNL     1      24.761   3.731  49.366  1.00  0.00     0.235 A 
HETATM    9  N3  UNL     1      25.476   3.590  50.509  1.00  0.00    -0.222 NA
HETATM   10  C10 UNL     1      25.035   2.864  51.546  1.00  0.00     0.158 A 
HETATM   11  C17 UNL     1      23.831   2.316  51.302  1.00  0.00     0.107 A 
HETATM   12  N5  UNL     1      23.403   1.539  52.452  1.00  0.00    -0.318 N 
HETATM   13  C18 UNL     1      22.184   0.752  52.599  1.00  0.00     0.253 C 
HETATM   14  O1  UNL     1      21.789   0.157  53.610  1.00  0.00    -0.268 OA
HETATM   15  C19 UNL     1      20.481   2.619  50.122  1.00  0.00     0.234 C 
HETATM   16  H16 UNL     1      23.953   1.464  53.329  1.00  0.00     0.169 HD
ENDROOT
BRANCH  10  17
HETATM   17  N4  UNL     1      25.686   2.625  52.781  1.00  0.00    -0.339 N 
HETATM   18  H11 UNL     1      25.267   3.176  53.560  1.00  0.00     0.167 HD
BRANCH  17  19
HETATM   19  C11 UNL     1      26.786   1.752  53.036  1.00  0.00     0.035 A 
HETATM   20  C12 UNL     1      27.952   2.277  53.552  1.00  0.00     0.029 A 
HETATM   21  C13 UNL     1      29.029   1.464  53.833  1.00  0.00     0.004 A 
HETATM   22  C14 UNL     1      28.955   0.101  53.599  1.00  0.00     0.019 A 
HETATM   23  C15 UNL     1      27.779  -0.446  53.075  1.00  0.00     0.013 A 
HETATM   24 BR1  UNL     1      27.617  -2.327  52.727  1.00  0.00    -0.051 Br
HETATM   25  C16 UNL     1      26.697   0.401  52.798  1.00  0.00     0.048 A 
ENDBRANCH  17  19
ENDBRANCH  10  17
BRANCH  15  26
HETATM   26  O2  UNL     1      19.732   2.879  48.948  1.00  0.00    -0.376 OA
HETATM   27  H18 UNL     1      20.060   3.780  48.623  1.00  0.00     0.212 HD
ENDBRANCH  15  26
BRANCH   1  28
HETATM   28  C2  UNL     1      18.309   2.747  51.226  1.00  0.00    -0.004 C 
HETATM   29  C1  UNL     1      17.219   2.031  51.299  1.00  0.00     0.037 C 
HETATM   30  C3  UNL     1      18.229   4.221  51.334  1.00  0.00     0.067 C 
ENDBRANCH   1  28
TORSDOF 4
ENDMDL
MODEL 5
REMARK VINA RESULT:      -7.5      1.956      2.405
REMARK  4 active torsions:
REMARK  status: ('A' for Active; 'I' for Inactive)
REMARK    1  A    between atoms: C2_2  and  N1_4 
REMARK    2  A    between atoms: C10_13  and  N4_14 
REMARK    3  A    between atoms: N4_14  and  C11_15 
REMARK    4  A    between atoms: C19_26  and  O2_27 
ROOT
HETATM    1  N1  UNL     1      33.157   4.811  47.167  1.00  0.00    -0.354 N 
HETATM    2  C4  UNL     1      33.542   5.271  48.535  1.00  0.00     0.169 C 
HETATM    3  C5  UNL     1      32.714   6.558  48.563  1.00  0.00     0.025 C 
HETATM    4  C6  UNL     1      33.022   7.515  47.654  1.00  0.00     0.003 C 
HETATM    5  C7  UNL     1      32.110   7.014  46.556  1.00  0.00     0.112 C 
HETATM    6  C8  UNL     1      30.671   7.375  46.837  1.00  0.00     0.078 A 
HETATM    7  N2  UNL     1      30.033   7.822  45.716  1.00  0.00    -0.243 NA
HETATM    8  C9  UNL     1      28.750   8.208  45.749  1.00  0.00     0.235 A 
HETATM    9  N3  UNL     1      28.010   8.183  46.884  1.00  0.00    -0.222 NA
HETATM   10  C10 UNL     1      28.509   7.767  48.057  1.00  0.00     0.158 A 
HETATM   11  C17 UNL     1      29.797   7.394  47.952  1.00  0.00     0.107 A 
HETATM   12  N5  UNL     1      30.289   6.958  49.248  1.00  0.00    -0.318 N 
HETATM   13  C18 UNL     1      31.633   6.509  49.592  1.00  0.00     0.253 C 
HETATM   14  O1  UNL     1      32.023   6.064  50.680  1.00  0.00    -0.268 OA
HETATM   15  C19 UNL     1      32.364   5.599  46.252  1.00  0.00     0.234 C 
HETATM   16  H16 UNL     1      29.699   6.921  50.101  1.00  0.00     0.169 HD
ENDROOT
BRANCH  10  17
HETATM   17  N4  UNL     1      27.852   7.707  49.311  1.00  0.00    -0.339 N 
HETATM   18  H11 UNL     1      28.497   7.911  50.103  1.00  0.00     0.167 HD
BRANCH  17  19
HETATM   19  C11 UNL     1      26.478   7.418  49.566  1.00  0.00     0.035 A 
HETATM   20  C12 UNL     1      25.664   8.415  50.061  1.00  0.00     0.029 A 
HETATM   21  C13 UNL     1      24.327   8.181  50.300  1.00  0.00     0.004 A 
HETATM   22  C14 UNL     1      23.779   6.936  50.044  1.00  0.00     0.019 A 
HETATM   23  C15 UNL     1      24.591   5.915  49.542  1.00  0.00     0.013 A 
HETATM   24 BR1  UNL     1      23.889   4.167  49.169  1.00  0.00    -0.051 Br
HETATM   25  C16 UNL     1      25.948   6.176  49.307  1.00  0.00     0.048 A 
ENDBRANCH  17  19
ENDBRANCH  10  17
BRANCH  15  26
HETATM   26  O2  UNL     1      33.063   5.551  45.020  1.00  0.00    -0.376 OA
HETATM   27  H18 UNL     1      33.808   6.229  45.117  1.00  0.00     0.212 HD
ENDBRANCH  15  26
BRANCH   1  28
HETATM   28  C2  UNL     1      33.569   3.529  46.719  1.00  0.00    -0.004 C 
HETATM   29  C1  UNL     1      34.836   3.365  46.448  1.00  0.00     0.037 C 
HETATM   30  C3  UNL     1      32.631   2.394  46.566  1.00  0.00     0.067 C 
ENDBRANCH   1  28
TORSDOF 4
ENDMDL
MODEL 6
REMARK VINA RESULT:      -7.5     11.123     14.390
REMARK  4 active torsions:
REMARK  status: ('A' for Active; 'I' for Inactive)
REMARK    1  A    between atoms: C2_2  and  N1_4 
REMARK    2  A    between atoms: C10_13  and  N4_14 
REMARK    3  A    between atoms: N4_14  and  C11_15 
REMARK    4  A    between atoms: C19_26  and  O2_27 
ROOT
HETATM    1  N1  UNL     1      21.879   3.407  50.562  1.00  0.00    -0.354 N 
HETATM    2  C4  UNL     1      20.709   3.188  49.660  1.00  0.00     0.169 C 
HETATM    3  C5  UNL     1      20.485   1.705  49.965  1.00  0.00     0.025 C 
HETATM    4  C6  UNL     1      21.482   0.847  49.639  1.00  0.00     0.003 C 
HETATM    5  C7  UNL     1      22.235   0.948  50.947  1.00  0.00     0.112 C 
HETATM    6  C8  UNL     1      21.549   0.153  52.033  1.00  0.00     0.078 A 
HETATM    7  N2  UNL     1      22.444  -0.550  52.787  1.00  0.00    -0.243 NA
HETATM    8  C9  UNL     1      22.043  -1.334  53.798  1.00  0.00     0.235 A 
HETATM    9  N3  UNL     1      20.738  -1.481  54.133  1.00  0.00    -0.222 NA
HETATM   10  C10 UNL     1      19.753  -0.849  53.477  1.00  0.00     0.158 A 
HETATM   11  C17 UNL     1      20.225  -0.080  52.479  1.00  0.00     0.107 A 
HETATM   12  N5  UNL     1      19.120   0.575  51.800  1.00  0.00    -0.318 N 
HETATM   13  C18 UNL     1      19.178   1.462  50.645  1.00  0.00     0.253 C 
HETATM   14  O1  UNL     1      18.241   2.079  50.122  1.00  0.00    -0.268 OA
HETATM   15  C19 UNL     1      22.545   2.346  51.280  1.00  0.00     0.234 C 
HETATM   16  H16 UNL     1      18.129   0.470  52.089  1.00  0.00     0.169 HD
ENDROOT
BRANCH  10  17
HETATM   17  N4  UNL     1      18.359  -0.928  53.714  1.00  0.00    -0.339 N 
HETATM   18  H11 UNL     1      17.996  -0.087  54.209  1.00  0.00     0.167 HD
BRANCH  17  19
HETATM   19  C11 UNL     1      17.469  -1.984  53.354  1.00  0.00     0.035 A 
HETATM   20  C12 UNL     1      17.704  -3.254  53.838  1.00  0.00     0.029 A 
HETATM   21  C13 UNL     1      16.855  -4.295  53.531  1.00  0.00     0.004 A 
HETATM   22  C14 UNL     1      15.748  -4.080  52.727  1.00  0.00     0.019 A 
HETATM   23  C15 UNL     1      15.497  -2.798  52.228  1.00  0.00     0.013 A 
HETATM   24 BR1  UNL     1      13.980  -2.439  51.107  1.00  0.00    -0.051 Br
HETATM   25  C16 UNL     1      16.374  -1.755  52.554  1.00  0.00     0.048 A 
ENDBRANCH  17  19
ENDBRANCH  10  17
BRANCH  15  26
HETATM   26  O2  UNL     1      23.927   2.541  51.035  1.00  0.00    -0.376 OA
HETATM   27  H18 UNL     1      24.396   2.062  51.794  1.00  0.00     0.212 HD
ENDBRANCH  15  26
BRANCH   1  28
HETATM   28  C2  UNL     1      22.379   4.722  50.753  1.00  0.00    -0.004 C 
HETATM   29  C1  UNL     1      22.272   5.239  51.947  1.00  0.00     0.037 C 
HETATM   30  C3  UNL     1      23.014   5.503  49.668  1.00  0.00     0.067 C 
ENDBRANCH   1  28
TORSDOF 4
ENDMDL
MODEL 7
REMARK VINA RESULT:      -7.5      8.172     10.287
REMARK  4 active torsions:
REMARK  status: ('A' for Active; 'I' for Inactive)
REMARK    1  A    between atoms: C2_2  and  N1_4 
REMARK    2  A    between atoms: C10_13  and  N4_14 
REMARK    3  A    between atoms: N4_14  and  C11_15 
REMARK    4  A    between atoms: C19_26  and  O2_27 
ROOT
HETATM    1  N1  UNL     1      27.274   0.035  53.393  1.00  0.00    -0.354 N 
HETATM    2  C4  UNL     1      26.138  -0.246  54.323  1.00  0.00     0.169 C 
HETATM    3  C5  UNL     1      25.202   0.869  53.851  1.00  0.00     0.025 C 
HETATM    4  C6  UNL     1      25.625   2.146  54.016  1.00  0.00     0.003 C 
HETATM    5  C7  UNL     1      26.347   2.264  52.692  1.00  0.00     0.112 C 
HETATM    6  C8  UNL     1      25.371   2.457  51.555  1.00  0.00     0.078 A 
HETATM    7  N2  UNL     1      25.801   3.406  50.675  1.00  0.00    -0.243 NA
HETATM    8  C9  UNL     1      25.076   3.742  49.598  1.00  0.00     0.235 A 
HETATM    9  N3  UNL     1      23.881   3.168  49.317  1.00  0.00    -0.222 NA
HETATM   10  C10 UNL     1      23.339   2.221  50.096  1.00  0.00     0.158 A 
HETATM   11  C17 UNL     1      24.118   1.932  51.155  1.00  0.00     0.107 A 
HETATM   12  N5  UNL     1      23.483   0.907  51.966  1.00  0.00    -0.318 N 
HETATM   13  C18 UNL     1      23.962   0.331  53.216  1.00  0.00     0.253 C 
HETATM   14  O1  UNL     1      23.456  -0.598  53.860  1.00  0.00    -0.268 OA
HETATM   15  C19 UNL     1      27.325   1.181  52.516  1.00  0.00     0.234 C 
HETATM   16  H16 UNL     1      22.580   0.461  51.719  1.00  0.00     0.169 HD
ENDROOT
BRANCH  10  17
HETATM   17  N4  UNL     1      22.099   1.557  49.925  1.00  0.00    -0.339 N 
HETATM   18  H11 UNL     1      22.177   0.734  49.292  1.00  0.00     0.167 HD
BRANCH  17  19
HETATM   19  C11 UNL     1      20.840   1.891  50.509  1.00  0.00     0.035 A 
HETATM   20  C12 UNL     1      20.586   3.203  50.849  1.00  0.00     0.029 A 
HETATM   21  C13 UNL     1      19.375   3.569  51.395  1.00  0.00     0.004 A 
HETATM   22  C14 UNL     1      18.390   2.620  51.611  1.00  0.00     0.019 A 
HETATM   23  C15 UNL     1      18.633   1.285  51.272  1.00  0.00     0.013 A 
HETATM   24 BR1  UNL     1      17.308  -0.076  51.550  1.00  0.00    -0.051 Br
HETATM   25  C16 UNL     1      19.872   0.937  50.718  1.00  0.00     0.048 A 
ENDBRANCH  17  19
ENDBRANCH  10  17
BRANCH  15  26
HETATM   26  O2  UNL     1      28.612   1.740  52.710  1.00  0.00    -0.376 OA
HETATM   27  H18 UNL     1      28.458   2.739  52.757  1.00  0.00     0.212 HD
ENDBRANCH  15  26
BRANCH   1  28
HETATM   28  C2  UNL     1      28.371  -0.864  53.339  1.00  0.00    -0.004 C 
HETATM   29  C1  UNL     1      28.174  -2.020  52.763  1.00  0.00     0.037 C 
HETATM   30  C3  UNL     1      29.705  -0.535  53.890  1.00  0.00     0.067 C 
ENDBRANCH   1  28
TORSDOF 4
ENDMDL
MODEL 8
REMARK VINA RESULT:      -7.4      2.203      2.785
REMARK  4 active torsions:
REMARK  status: ('A' for Active; 'I' for Inactive)
REMARK    1  A    between atoms: C2_2  and  N1_4 
REMARK    2  A    between atoms: C10_13  and  N4_14 
REMARK    3  A    between atoms: N4_14  and  C11_15 
REMARK    4  A    between atoms: C19_26  and  O2_27 
ROOT
HETATM    1  N1  UNL     1      33.920   5.800  44.565  1.00  0.00    -0.354 N 
HETATM    2  C4  UNL     1      33.961   4.388  45.054  1.00  0.00     0.169 C 
HETATM    3  C5  UNL     1      33.484   4.649  46.484  1.00  0.00     0.025 C 
HETATM    4  C6  UNL     1      34.268   5.429  47.268  1.00  0.00     0.003 C 
HETATM    5  C7  UNL     1      33.648   6.751  46.876  1.00  0.00     0.112 C 
HETATM    6  C8  UNL     1      32.315   6.951  47.559  1.00  0.00     0.078 A 
HETATM    7  N2  UNL     1      32.173   8.224  48.028  1.00  0.00    -0.243 NA
HETATM    8  C9  UNL     1      31.066   8.611  48.679  1.00  0.00     0.235 A 
HETATM    9  N3  UNL     1      30.029   7.771  48.914  1.00  0.00    -0.222 NA
HETATM   10  C10 UNL     1      30.034   6.493  48.509  1.00  0.00     0.158 A 
HETATM   11  C17 UNL     1      31.170   6.174  47.862  1.00  0.00     0.107 A 
HETATM   12  N5  UNL     1      31.126   4.781  47.450  1.00  0.00    -0.318 N 
HETATM   13  C18 UNL     1      32.158   4.019  46.758  1.00  0.00     0.253 C 
HETATM   14  O1  UNL     1      32.082   2.856  46.340  1.00  0.00    -0.268 OA
HETATM   15  C19 UNL     1      33.651   6.934  45.418  1.00  0.00     0.234 C 
HETATM   16  H16 UNL     1      30.311   4.162  47.616  1.00  0.00     0.169 HD
ENDROOT
BRANCH  10  17
HETATM   17  N4  UNL     1      29.029   5.514  48.702  1.00  0.00    -0.339 N 
HETATM   18  H11 UNL     1      29.429   4.572  48.899  1.00  0.00     0.167 HD
BRANCH  17  19
HETATM   19  C11 UNL     1      27.613   5.693  48.659  1.00  0.00     0.035 A 
HETATM   20  C12 UNL     1      26.797   4.705  49.170  1.00  0.00     0.029 A 
HETATM   21  C13 UNL     1      25.427   4.850  49.166  1.00  0.00     0.004 A 
HETATM   22  C14 UNL     1      24.847   5.995  48.647  1.00  0.00     0.019 A 
HETATM   23  C15 UNL     1      25.661   7.005  48.125  1.00  0.00     0.013 A 
HETATM   24 BR1  UNL     1      24.915   8.614  47.389  1.00  0.00    -0.051 Br
HETATM   25  C16 UNL     1      27.052   6.835  48.139  1.00  0.00     0.048 A 
ENDBRANCH  17  19
ENDBRANCH  10  17
BRANCH  15  26
HETATM   26  O2  UNL     1      34.663   7.877  45.113  1.00  0.00    -0.376 OA
HETATM   27  H18 UNL     1      34.897   8.304  46.000  1.00  0.00     0.212 HD
ENDBRANCH  15  26
BRANCH   1  28
HETATM   28  C2  UNL     1      34.144   6.070  43.190  1.00  0.00    -0.004 C 
HETATM   29  C1  UNL     1      33.134   6.518  42.493  1.00  0.00     0.037 C 
HETATM   30  C3  UNL     1      35.458   5.876  42.538  1.00  0.00     0.067 C 
ENDBRANCH   1  28
TORSDOF 4
ENDMDL
MODEL 9
REMARK VINA RESULT:      -7.3      4.398      6.773
REMARK  4 active torsions:
REMARK  status: ('A' for Active; 'I' for Inactive)
REMARK    1  A    between atoms: C2_2  and  N1_4 
REMARK    2  A    between atoms: C10_13  and  N4_14 
REMARK    3  A    between atoms: N4_14  and  C11_15 
REMARK    4  A    between atoms: C19_26  and  O2_27 
ROOT
HETATM    1  N1  UNL     1      27.669   8.490  46.289  1.00  0.00    -0.354 N 
HETATM    2  C4  UNL     1      28.889   7.735  46.706  1.00  0.00     0.169 C 
HETATM    3  C5  UNL     1      28.504   7.511  48.171  1.00  0.00     0.025 C 
HETATM    4  C6  UNL     1      28.356   8.610  48.949  1.00  0.00     0.003 C 
HETATM    5  C7  UNL     1      26.890   8.838  48.654  1.00  0.00     0.112 C 
HETATM    6  C8  UNL     1      26.023   7.861  49.413  1.00  0.00     0.078 A 
HETATM    7  N2  UNL     1      24.926   8.469  49.949  1.00  0.00    -0.243 NA
HETATM    8  C9  UNL     1      24.031   7.783  50.674  1.00  0.00     0.235 A 
HETATM    9  N3  UNL     1      24.157   6.456  50.922  1.00  0.00    -0.222 NA
HETATM   10  C10 UNL     1      25.185   5.734  50.456  1.00  0.00     0.158 A 
HETATM   11  C17 UNL     1      26.042   6.482  49.737  1.00  0.00     0.107 A 
HETATM   12  N5  UNL     1      27.137   5.654  49.262  1.00  0.00    -0.318 N 
HETATM   13  C18 UNL     1      28.298   6.065  48.482  1.00  0.00     0.253 C 
HETATM   14  O1  UNL     1      29.186   5.340  48.014  1.00  0.00    -0.268 OA
HETATM   15  C19 UNL     1      26.641   8.920  47.207  1.00  0.00     0.234 C 
HETATM   16  H16 UNL     1      27.202   4.634  49.440  1.00  0.00     0.169 HD
ENDROOT
BRANCH  10  17
HETATM   17  N4  UNL     1      25.441   4.355  50.654  1.00  0.00    -0.339 N 
HETATM   18  H11 UNL     1      26.454   4.126  50.569  1.00  0.00     0.167 HD
BRANCH  17  19
HETATM   19  C11 UNL     1      24.499   3.323  50.947  1.00  0.00     0.035 A 
HETATM   20  C12 UNL     1      24.485   2.768  52.209  1.00  0.00     0.029 A 
HETATM   21  C13 UNL     1      23.576   1.785  52.537  1.00  0.00     0.004 A 
HETATM   22  C14 UNL     1      22.660   1.339  51.600  1.00  0.00     0.019 A 
HETATM   23  C15 UNL     1      22.663   1.893  50.315  1.00  0.00     0.013 A 
HETATM   24 BR1  UNL     1      21.419   1.314  48.972  1.00  0.00    -0.051 Br
HETATM   25  C16 UNL     1      23.596   2.891  50.005  1.00  0.00     0.048 A 
ENDBRANCH  17  19
ENDBRANCH  10  17
BRANCH  15  26
HETATM   26  O2  UNL     1      26.411  10.283  46.896  1.00  0.00    -0.376 OA
HETATM   27  H18 UNL     1      27.259  10.592  46.437  1.00  0.00     0.212 HD
ENDBRANCH  15  26
BRANCH   1  28
HETATM   28  C2  UNL     1      27.477   8.805  44.918  1.00  0.00    -0.004 C 
HETATM   29  C1  UNL     1      28.432   9.457  44.312  1.00  0.00     0.037 C 
HETATM   30  C3  UNL     1      26.263   8.414  44.168  1.00  0.00     0.067 C 
ENDBRANCH   1  28
TORSDOF 4
ENDMDL
