MODEL 1
REMARK VINA RESULT:     -11.0      0.000      0.000
REMARK  5 active torsions:
REMARK  status: ('A' for Active; 'I' for Inactive)
REMARK    1  A    between atoms: N1_1  and  N2_2 
REMARK    2  A    between atoms: N3_4  and  C2_5 
REMARK    3  A    between atoms: C10_14  and  C11_15 
REMARK    4  A    between atoms: C11_15  and  C12_16 
REMARK    5  A    between atoms: C15_19  and  C16_20 
ROOT
HETATM    1  N2  UNL     1      26.574   0.331  54.721  1.00  0.00    -0.216 N 
HETATM    2  C1  UNL     1      25.440  -0.563  54.546  1.00  0.00     0.291 C 
HETATM    3  N3  UNL     1      24.593   0.051  53.502  1.00  0.00    -0.346 N 
HETATM    4  C8  UNL     1      25.339   0.865  52.572  1.00  0.00     0.183 A 
HETATM    5  C9  UNL     1      24.636   1.433  51.445  1.00  0.00     0.031 A 
HETATM    6  C10 UNL     1      24.658   2.778  51.480  1.00  0.00     0.013 A 
HETATM    7  N4  UNL     1      25.351   3.221  52.642  1.00  0.00    -0.344 N 
HETATM    8  C24 UNL     1      25.775   2.067  53.359  1.00  0.00     0.152 A 
HETATM    9  N5  UNL     1      26.398   1.710  54.442  1.00  0.00    -0.144 NA
HETATM   10  H22 UNL     1      25.610   4.120  53.070  1.00  0.00     0.167 HD
ENDROOT
BRANCH   6  11
HETATM   11  C11 UNL     1      24.105   3.841  50.588  1.00  0.00     0.095 C 
BRANCH  11  12
HETATM   12  C12 UNL     1      25.158   4.617  49.913  1.00  0.00    -0.052 A 
HETATM   13  C13 UNL     1      26.253   3.846  49.509  1.00  0.00     0.008 A 
HETATM   14  C14 UNL     1      27.326   4.398  48.867  1.00  0.00     0.013 A 
HETATM   15  C15 UNL     1      27.372   5.745  48.592  1.00  0.00    -0.026 A 
HETATM   16  C22 UNL     1      26.285   6.530  48.990  1.00  0.00     0.013 A 
HETATM   17  C23 UNL     1      25.203   5.967  49.638  1.00  0.00     0.008 A 
BRANCH  15  18
HETATM   18  C16 UNL     1      28.483   6.411  47.910  1.00  0.00    -0.026 A 
HETATM   19  C17 UNL     1      29.748   5.848  47.960  1.00  0.00     0.012 A 
HETATM   20  C18 UNL     1      30.841   6.434  47.331  1.00  0.00     0.001 A 
HETATM   21  C19 UNL     1      30.646   7.619  46.638  1.00  0.00     0.000 A 
HETATM   22  C20 UNL     1      29.401   8.208  46.568  1.00  0.00     0.001 A 
HETATM   23  C21 UNL     1      28.348   7.583  47.211  1.00  0.00     0.012 A 
ENDBRANCH  15  18
ENDBRANCH  11  12
ENDBRANCH   6  11
BRANCH   3  24
HETATM   24  C2  UNL     1      23.208  -0.266  53.571  1.00  0.00     0.033 A 
HETATM   25  C3  UNL     1      22.801  -1.119  54.574  1.00  0.00     0.029 A 
HETATM   26  C4  UNL     1      21.462  -1.469  54.708  1.00  0.00     0.004 A 
HETATM   27  C5  UNL     1      20.486  -0.990  53.861  1.00  0.00     0.019 A 
HETATM   28  C6  UNL     1      20.886  -0.136  52.852  1.00  0.00     0.013 A 
HETATM   29 BR1  UNL     1      19.590   0.564  51.644  1.00  0.00    -0.051 Br
HETATM   30  C7  UNL     1      22.218   0.193  52.744  1.00  0.00     0.048 A 
ENDBRANCH   3  24
BRANCH   1  31
HETATM   31  N1  UNL     1      27.817  -0.192  55.162  1.00  0.00    -0.229 NA
HETATM   32  H1  UNL     1      27.603  -0.851  55.929  1.00  0.00     0.144 HD
HETATM   33  H2  UNL     1      28.307  -0.660  54.368  1.00  0.00     0.144 HD
ENDBRANCH   1  31
TORSDOF 5
ENDMDL
MODEL 2
REMARK VINA RESULT:     -10.5      2.488      4.147
REMARK  5 active torsions:
REMARK  status: ('A' for Active; 'I' for Inactive)
REMARK    1  A    between atoms: N1_1  and  N2_2 
REMARK    2  A    between atoms: N3_4  and  C2_5 
REMARK    3  A    between atoms: C10_14  and  C11_15 
REMARK    4  A    between atoms: C11_15  and  C12_16 
REMARK    5  A    between atoms: C15_19  and  C16_20 
ROOT
HETATM    1  N2  UNL     1      22.322  -1.066  54.028  1.00  0.00    -0.216 N 
HETATM    2  C1  UNL     1      23.648  -0.663  54.469  1.00  0.00     0.291 C 
HETATM    3  N3  UNL     1      24.047   0.457  53.589  1.00  0.00    -0.346 N 
HETATM    4  C8  UNL     1      22.924   1.207  53.081  1.00  0.00     0.183 A 
HETATM    5  C9  UNL     1      23.192   2.389  52.295  1.00  0.00     0.031 A 
HETATM    6  C10 UNL     1      22.715   2.264  51.043  1.00  0.00     0.013 A 
HETATM    7  N4  UNL     1      22.115   0.984  50.877  1.00  0.00    -0.344 N 
HETATM    8  C24 UNL     1      22.238   0.287  52.113  1.00  0.00     0.152 A 
HETATM    9  N5  UNL     1      21.964  -0.853  52.673  1.00  0.00    -0.144 NA
HETATM   10  H22 UNL     1      21.638   0.464  50.129  1.00  0.00     0.167 HD
ENDROOT
BRANCH   6  11
HETATM   11  C11 UNL     1      22.714   3.159  49.846  1.00  0.00     0.095 C 
BRANCH  11  12
HETATM   12  C12 UNL     1      24.042   3.727  49.564  1.00  0.00    -0.052 A 
HETATM   13  C13 UNL     1      24.002   5.039  49.081  1.00  0.00     0.008 A 
HETATM   14  C14 UNL     1      25.141   5.726  48.764  1.00  0.00     0.013 A 
HETATM   15  C15 UNL     1      26.381   5.149  48.910  1.00  0.00    -0.026 A 
HETATM   16  C22 UNL     1      26.438   3.837  49.393  1.00  0.00     0.013 A 
HETATM   17  C23 UNL     1      25.284   3.147  49.711  1.00  0.00     0.008 A 
BRANCH  15  18
HETATM   18  C16 UNL     1      27.645   5.816  48.593  1.00  0.00    -0.026 A 
HETATM   19  C17 UNL     1      27.690   7.200  48.545  1.00  0.00     0.012 A 
HETATM   20  C18 UNL     1      28.861   7.889  48.250  1.00  0.00     0.001 A 
HETATM   21  C19 UNL     1      30.012   7.157  47.999  1.00  0.00     0.000 A 
HETATM   22  C20 UNL     1      30.004   5.779  48.038  1.00  0.00     0.001 A 
HETATM   23  C21 UNL     1      28.812   5.144  48.337  1.00  0.00     0.012 A 
ENDBRANCH  15  18
ENDBRANCH  11  12
ENDBRANCH   6  11
BRANCH   3  24
HETATM   24  C2  UNL     1      25.447   0.621  53.404  1.00  0.00     0.033 A 
HETATM   25  C3  UNL     1      25.923   1.906  53.255  1.00  0.00     0.029 A 
HETATM   26  C4  UNL     1      27.282   2.144  53.077  1.00  0.00     0.004 A 
HETATM   27  C5  UNL     1      28.210   1.126  53.039  1.00  0.00     0.019 A 
HETATM   28  C6  UNL     1      27.742  -0.165  53.185  1.00  0.00     0.013 A 
HETATM   29 BR1  UNL     1      28.968  -1.621  53.143  1.00  0.00    -0.051 Br
HETATM   30  C7  UNL     1      26.392  -0.370  53.361  1.00  0.00     0.048 A 
ENDBRANCH   3  24
BRANCH   1  31
HETATM   31  N1  UNL     1      21.425  -1.657  54.956  1.00  0.00    -0.229 NA
HETATM   32  H1  UNL     1      21.397  -1.029  55.778  1.00  0.00     0.144 HD
HETATM   33  H2  UNL     1      20.484  -1.771  54.518  1.00  0.00     0.144 HD
ENDBRANCH   1  31
TORSDOF 5
ENDMDL
MODEL 3
REMARK VINA RESULT:     -10.2      4.586      6.540
REMARK  5 active torsions:
REMARK  status: ('A' for Active; 'I' for Inactive)
REMARK    1  A    between atoms: N1_1  and  N2_2 
REMARK    2  A    between atoms: N3_4  and  C2_5 
REMARK    3  A    between atoms: C10_14  and  C11_15 
REMARK    4  A    between atoms: C11_15  and  C12_16 
REMARK    5  A    between atoms: C15_19  and  C16_20 
ROOT
HETATM    1  N2  UNL     1      18.696   1.780  49.359  1.00  0.00    -0.216 N 
HETATM    2  C1  UNL     1      18.587   0.980  50.569  1.00  0.00     0.291 C 
HETATM    3  N3  UNL     1      19.680   1.431  51.456  1.00  0.00    -0.346 N 
HETATM    4  C8  UNL     1      20.062   2.804  51.233  1.00  0.00     0.183 A 
HETATM    5  C9  UNL     1      21.048   3.391  52.112  1.00  0.00     0.031 A 
HETATM    6  C10 UNL     1      22.151   3.759  51.434  1.00  0.00     0.013 A 
HETATM    7  N4  UNL     1      22.008   3.428  50.057  1.00  0.00    -0.344 N 
HETATM    8  C24 UNL     1      20.733   2.817  49.890  1.00  0.00     0.152 A 
HETATM    9  N5  UNL     1      19.972   2.276  48.987  1.00  0.00    -0.144 NA
HETATM   10  H22 UNL     1      22.565   3.517  49.197  1.00  0.00     0.167 HD
ENDROOT
BRANCH   6  11
HETATM   11  C11 UNL     1      23.440   4.399  51.835  1.00  0.00     0.095 C 
BRANCH  11  12
HETATM   12  C12 UNL     1      24.531   3.422  51.990  1.00  0.00    -0.052 A 
HETATM   13  C13 UNL     1      24.720   2.995  53.308  1.00  0.00     0.008 A 
HETATM   14  C14 UNL     1      25.689   2.089  53.641  1.00  0.00     0.013 A 
HETATM   15  C15 UNL     1      26.522   1.559  52.684  1.00  0.00    -0.026 A 
HETATM   16  C22 UNL     1      26.346   1.976  51.361  1.00  0.00     0.013 A 
HETATM   17  C23 UNL     1      25.365   2.892  51.030  1.00  0.00     0.008 A 
BRANCH  15  18
HETATM   18  C16 UNL     1      27.582   0.587  52.959  1.00  0.00    -0.026 A 
HETATM   19  C17 UNL     1      27.326  -0.765  52.790  1.00  0.00     0.012 A 
HETATM   20  C18 UNL     1      28.292  -1.734  53.035  1.00  0.00     0.001 A 
HETATM   21  C19 UNL     1      29.547  -1.322  53.460  1.00  0.00     0.000 A 
HETATM   22  C20 UNL     1      29.836   0.014  53.639  1.00  0.00     0.001 A 
HETATM   23  C21 UNL     1      28.839   0.936  53.381  1.00  0.00     0.012 A 
ENDBRANCH  15  18
ENDBRANCH  11  12
ENDBRANCH   6  11
BRANCH   3  24
HETATM   24  C2  UNL     1      20.159   0.461  52.380  1.00  0.00     0.033 A 
HETATM   25  C3  UNL     1      19.239  -0.413  52.918  1.00  0.00     0.029 A 
HETATM   26  C4  UNL     1      19.635  -1.393  53.822  1.00  0.00     0.004 A 
HETATM   27  C5  UNL     1      20.946  -1.540  54.223  1.00  0.00     0.019 A 
HETATM   28  C6  UNL     1      21.874  -0.667  53.690  1.00  0.00     0.013 A 
HETATM   29 BR1  UNL     1      23.702  -0.813  54.199  1.00  0.00    -0.051 Br
HETATM   30  C7  UNL     1      21.452   0.291  52.797  1.00  0.00     0.048 A 
ENDBRANCH   3  24
BRANCH   1  31
HETATM   31  N1  UNL     1      17.535   2.045  48.587  1.00  0.00    -0.229 NA
HETATM   32  H1  UNL     1      17.738   2.893  48.032  1.00  0.00     0.144 HD
HETATM   33  H2  UNL     1      17.316   1.223  47.981  1.00  0.00     0.144 HD
ENDBRANCH   1  31
TORSDOF 5
ENDMDL
MODEL 4
REMARK VINA RESULT:     -10.2      4.476      7.939
REMARK  5 active torsions:
REMARK  status: ('A' for Active; 'I' for Inactive)
REMARK    1  A    between atoms: N1_1  and  N2_2 
REMARK    2  A    between atoms: N3_4  and  C2_5 
REMARK    3  A    between atoms: C10_14  and  C11_15 
REMARK    4  A    between atoms: C11_15  and  C12_16 
REMARK    5  A    between atoms: C15_19  and  C16_20 
ROOT
HETATM    1  N2  UNL     1      19.129   2.993  47.371  1.00  0.00    -0.216 N 
HETATM    2  C1  UNL     1      20.494   3.455  47.170  1.00  0.00     0.291 C 
HETATM    3  N3  UNL     1      21.278   2.917  48.303  1.00  0.00    -0.346 N 
HETATM    4  C8  UNL     1      20.738   1.690  48.835  1.00  0.00     0.183 A 
HETATM    5  C9  UNL     1      21.476   1.013  49.876  1.00  0.00     0.031 A 
HETATM    6  C10 UNL     1      20.765   0.942  51.016  1.00  0.00     0.013 A 
HETATM    7  N4  UNL     1      19.506   1.585  50.843  1.00  0.00    -0.344 N 
HETATM    8  C24 UNL     1      19.454   2.080  49.509  1.00  0.00     0.152 A 
HETATM    9  N5  UNL     1      18.687   2.743  48.696  1.00  0.00    -0.144 NA
HETATM   10  H22 UNL     1      18.668   1.771  51.410  1.00  0.00     0.167 HD
ENDROOT
BRANCH   6  11
HETATM   11  C11 UNL     1      21.037   0.364  52.367  1.00  0.00     0.095 C 
BRANCH  11  12
HETATM   12  C12 UNL     1      22.462   0.424  52.730  1.00  0.00    -0.052 A 
HETATM   13  C13 UNL     1      22.988   1.720  52.728  1.00  0.00     0.008 A 
HETATM   14  C14 UNL     1      24.297   1.967  53.040  1.00  0.00     0.013 A 
HETATM   15  C15 UNL     1      25.153   0.943  53.370  1.00  0.00    -0.026 A 
HETATM   16  C22 UNL     1      24.641  -0.359  53.376  1.00  0.00     0.013 A 
HETATM   17  C23 UNL     1      23.319  -0.604  53.060  1.00  0.00     0.008 A 
BRANCH  15  18
HETATM   18  C16 UNL     1      26.564   1.124  53.715  1.00  0.00    -0.026 A 
HETATM   19  C17 UNL     1      27.208   0.161  54.475  1.00  0.00     0.012 A 
HETATM   20  C18 UNL     1      28.546   0.278  54.833  1.00  0.00     0.001 A 
HETATM   21  C19 UNL     1      29.247   1.398  54.411  1.00  0.00     0.000 A 
HETATM   22  C20 UNL     1      28.638   2.377  53.654  1.00  0.00     0.001 A 
HETATM   23  C21 UNL     1      27.305   2.210  53.325  1.00  0.00     0.012 A 
ENDBRANCH  15  18
ENDBRANCH  11  12
ENDBRANCH   6  11
BRANCH   3  24
HETATM   24  C2  UNL     1      22.425   3.675  48.667  1.00  0.00     0.033 A 
HETATM   25  C3  UNL     1      22.295   5.047  48.707  1.00  0.00     0.029 A 
HETATM   26  C4  UNL     1      23.372   5.851  49.062  1.00  0.00     0.004 A 
HETATM   27  C5  UNL     1      24.606   5.331  49.387  1.00  0.00     0.019 A 
HETATM   28  C6  UNL     1      24.745   3.958  49.349  1.00  0.00     0.013 A 
HETATM   29 BR1  UNL     1      26.423   3.170  49.786  1.00  0.00    -0.051 Br
HETATM   30  C7  UNL     1      23.662   3.187  48.994  1.00  0.00     0.048 A 
ENDBRANCH   3  24
BRANCH   1  31
HETATM   31  N1  UNL     1      18.280   2.805  46.250  1.00  0.00    -0.229 NA
HETATM   32  H1  UNL     1      17.321   3.026  46.567  1.00  0.00     0.144 HD
HETATM   33  H2  UNL     1      18.586   3.422  45.465  1.00  0.00     0.144 HD
ENDBRANCH   1  31
TORSDOF 5
ENDMDL
MODEL 5
REMARK VINA RESULT:     -10.1      4.022      7.912
REMARK  5 active torsions:
REMARK  status: ('A' for Active; 'I' for Inactive)
REMARK    1  A    between atoms: N1_1  and  N2_2 
REMARK    2  A    between atoms: N3_4  and  C2_5 
REMARK    3  A    between atoms: C10_14  and  C11_15 
REMARK    4  A    between atoms: C11_15  and  C12_16 
REMARK    5  A    between atoms: C15_19  and  C16_20 
ROOT
HETATM    1  N2  UNL     1      20.737   5.877  48.698  1.00  0.00    -0.216 N 
HETATM    2  C1  UNL     1      22.060   5.586  48.167  1.00  0.00     0.291 C 
HETATM    3  N3  UNL     1      22.613   4.510  49.017  1.00  0.00    -0.346 N 
HETATM    4  C8  UNL     1      21.596   3.669  49.601  1.00  0.00     0.183 A 
HETATM    5  C9  UNL     1      22.018   2.519  50.367  1.00  0.00     0.031 A 
HETATM    6  C10 UNL     1      21.620   2.610  51.649  1.00  0.00     0.013 A 
HETATM    7  N4  UNL     1      20.924   3.835  51.855  1.00  0.00    -0.344 N 
HETATM    8  C24 UNL     1      20.902   4.533  50.615  1.00  0.00     0.152 A 
HETATM    9  N5  UNL     1      20.493   5.642  50.075  1.00  0.00    -0.144 NA
HETATM   10  H22 UNL     1      20.457   4.316  52.635  1.00  0.00     0.167 HD
ENDROOT
BRANCH   6  11
HETATM   11  C11 UNL     1      21.778   1.725  52.842  1.00  0.00     0.095 C 
BRANCH  11  12
HETATM   12  C12 UNL     1      23.146   1.198  52.978  1.00  0.00    -0.052 A 
HETATM   13  C13 UNL     1      24.133   2.188  52.957  1.00  0.00     0.008 A 
HETATM   14  C14 UNL     1      25.462   1.883  53.069  1.00  0.00     0.013 A 
HETATM   15  C15 UNL     1      25.881   0.582  53.209  1.00  0.00    -0.026 A 
HETATM   16  C22 UNL     1      24.905  -0.420  53.233  1.00  0.00     0.013 A 
HETATM   17  C23 UNL     1      23.565  -0.107  53.118  1.00  0.00     0.008 A 
BRANCH  15  18
HETATM   18  C16 UNL     1      27.282   0.174  53.336  1.00  0.00    -0.026 A 
HETATM   19  C17 UNL     1      27.633  -1.142  53.083  1.00  0.00     0.012 A 
HETATM   20  C18 UNL     1      28.946  -1.587  53.186  1.00  0.00     0.001 A 
HETATM   21  C19 UNL     1      29.925  -0.676  53.554  1.00  0.00     0.000 A 
HETATM   22  C20 UNL     1      29.612   0.641  53.813  1.00  0.00     0.001 A 
HETATM   23  C21 UNL     1      28.290   1.031  53.695  1.00  0.00     0.012 A 
ENDBRANCH  15  18
ENDBRANCH  11  12
ENDBRANCH   6  11
BRANCH   3  24
HETATM   24  C2  UNL     1      24.032   4.468  49.106  1.00  0.00     0.033 A 
HETATM   25  C3  UNL     1      24.610   3.281  49.502  1.00  0.00     0.029 A 
HETATM   26  C4  UNL     1      25.991   3.164  49.605  1.00  0.00     0.004 A 
HETATM   27  C5  UNL     1      26.844   4.209  49.322  1.00  0.00     0.019 A 
HETATM   28  C6  UNL     1      26.273   5.403  48.925  1.00  0.00     0.013 A 
HETATM   29 BR1  UNL     1      27.391   6.890  48.518  1.00  0.00    -0.051 Br
HETATM   30  C7  UNL     1      24.903   5.489  48.832  1.00  0.00     0.048 A 
ENDBRANCH   3  24
BRANCH   1  31
HETATM   31  N1  UNL     1      19.731   6.383  47.835  1.00  0.00    -0.229 NA
HETATM   32  H1  UNL     1      19.794   7.414  47.882  1.00  0.00     0.144 HD
HETATM   33  H2  UNL     1      19.882   6.025  46.865  1.00  0.00     0.144 HD
ENDBRANCH   1  31
TORSDOF 5
ENDMDL
MODEL 6
REMARK VINA RESULT:      -9.8      4.128      8.430
REMARK  5 active torsions:
REMARK  status: ('A' for Active; 'I' for Inactive)
REMARK    1  A    between atoms: N1_1  and  N2_2 
REMARK    2  A    between atoms: N3_4  and  C2_5 
REMARK    3  A    between atoms: C10_14  and  C11_15 
REMARK    4  A    between atoms: C11_15  and  C12_16 
REMARK    5  A    between atoms: C15_19  and  C16_20 
ROOT
HETATM    1  N2  UNL     1      22.457   9.098  48.717  1.00  0.00    -0.216 N 
HETATM    2  C1  UNL     1      23.562   8.395  48.084  1.00  0.00     0.291 C 
HETATM    3  N3  UNL     1      23.583   7.043  48.683  1.00  0.00    -0.346 N 
HETATM    4  C8  UNL     1      22.285   6.603  49.134  1.00  0.00     0.183 A 
HETATM    5  C9  UNL     1      22.159   5.256  49.642  1.00  0.00     0.031 A 
HETATM    6  C10 UNL     1      21.779   5.252  50.933  1.00  0.00     0.013 A 
HETATM    7  N4  UNL     1      21.646   6.589  51.404  1.00  0.00    -0.344 N 
HETATM    8  C24 UNL     1      21.968   7.461  50.326  1.00  0.00     0.152 A 
HETATM    9  N5  UNL     1      22.079   8.721  50.031  1.00  0.00    -0.144 NA
HETATM   10  H22 UNL     1      21.387   7.058  52.282  1.00  0.00     0.167 HD
ENDROOT
BRANCH   6  11
HETATM   11  C11 UNL     1      21.505   4.167  51.923  1.00  0.00     0.095 C 
BRANCH  11  12
HETATM   12  C12 UNL     1      22.717   3.415  52.287  1.00  0.00    -0.052 A 
HETATM   13  C13 UNL     1      22.750   2.117  51.769  1.00  0.00     0.008 A 
HETATM   14  C14 UNL     1      23.799   1.272  52.005  1.00  0.00     0.013 A 
HETATM   15  C15 UNL     1      24.872   1.670  52.768  1.00  0.00    -0.026 A 
HETATM   16  C22 UNL     1      24.854   2.966  53.294  1.00  0.00     0.013 A 
HETATM   17  C23 UNL     1      23.791   3.815  53.052  1.00  0.00     0.008 A 
BRANCH  15  18
HETATM   18  C16 UNL     1      26.031   0.828  53.067  1.00  0.00    -0.026 A 
HETATM   19  C17 UNL     1      27.050   1.329  53.861  1.00  0.00     0.012 A 
HETATM   20  C18 UNL     1      28.175   0.576  54.178  1.00  0.00     0.001 A 
HETATM   21  C19 UNL     1      28.267  -0.715  53.679  1.00  0.00     0.000 A 
HETATM   22  C20 UNL     1      27.273  -1.246  52.887  1.00  0.00     0.001 A 
HETATM   23  C21 UNL     1      26.175  -0.454  52.601  1.00  0.00     0.012 A 
ENDBRANCH  15  18
ENDBRANCH  11  12
ENDBRANCH   6  11
BRANCH   3  24
HETATM   24  C2  UNL     1      24.851   6.401  48.701  1.00  0.00     0.033 A 
HETATM   25  C3  UNL     1      25.928   7.105  48.205  1.00  0.00     0.029 A 
HETATM   26  C4  UNL     1      27.200   6.544  48.198  1.00  0.00     0.004 A 
HETATM   27  C5  UNL     1      27.450   5.276  48.677  1.00  0.00     0.019 A 
HETATM   28  C6  UNL     1      26.377   4.563  49.174  1.00  0.00     0.013 A 
HETATM   29 BR1  UNL     1      26.650   2.805  49.853  1.00  0.00    -0.051 Br
HETATM   30  C7  UNL     1      25.130   5.144  49.169  1.00  0.00     0.048 A 
ENDBRANCH   3  24
BRANCH   1  31
HETATM   31  N1  UNL     1      21.790  10.133  48.013  1.00  0.00    -0.229 NA
HETATM   32  H1  UNL     1      22.101  10.067  47.029  1.00  0.00     0.144 HD
HETATM   33  H2  UNL     1      20.756  10.017  48.105  1.00  0.00     0.144 HD
ENDBRANCH   1  31
TORSDOF 5
ENDMDL
MODEL 7
REMARK VINA RESULT:      -9.7      3.089      8.820
REMARK  5 active torsions:
REMARK  status: ('A' for Active; 'I' for Inactive)
REMARK    1  A    between atoms: N1_1  and  N2_2 
REMARK    2  A    between atoms: N3_4  and  C2_5 
REMARK    3  A    between atoms: C10_14  and  C11_15 
REMARK    4  A    between atoms: C11_15  and  C12_16 
REMARK    5  A    between atoms: C15_19  and  C16_20 
ROOT
HETATM    1  N2  UNL     1      26.600   5.162  49.139  1.00  0.00    -0.216 N 
HETATM    2  C1  UNL     1      25.184   5.413  48.916  1.00  0.00     0.291 C 
HETATM    3  N3  UNL     1      24.459   4.459  49.783  1.00  0.00    -0.346 N 
HETATM    4  C8  UNL     1      25.204   4.083  50.960  1.00  0.00     0.183 A 
HETATM    5  C9  UNL     1      24.557   3.238  51.937  1.00  0.00     0.031 A 
HETATM    6  C10 UNL     1      25.199   2.063  52.071  1.00  0.00     0.013 A 
HETATM    7  N4  UNL     1      26.309   2.012  51.181  1.00  0.00    -0.344 N 
HETATM    8  C24 UNL     1      26.340   3.238  50.458  1.00  0.00     0.152 A 
HETATM    9  N5  UNL     1      27.003   3.860  49.530  1.00  0.00    -0.144 NA
HETATM   10  H22 UNL     1      27.057   1.347  50.942  1.00  0.00     0.167 HD
ENDROOT
BRANCH   6  11
HETATM   11  C11 UNL     1      24.970   0.854  52.919  1.00  0.00     0.095 C 
BRANCH  11  12
HETATM   12  C12 UNL     1      23.555   0.448  52.953  1.00  0.00    -0.052 A 
HETATM   13  C13 UNL     1      22.829   0.846  51.826  1.00  0.00     0.008 A 
HETATM   14  C14 UNL     1      21.500   0.557  51.686  1.00  0.00     0.013 A 
HETATM   15  C15 UNL     1      20.820  -0.141  52.656  1.00  0.00    -0.026 A 
HETATM   16  C22 UNL     1      21.532  -0.546  53.789  1.00  0.00     0.013 A 
HETATM   17  C23 UNL     1      22.875  -0.252  53.926  1.00  0.00     0.008 A 
BRANCH  15  18
HETATM   18  C16 UNL     1      19.400  -0.489  52.580  1.00  0.00    -0.026 A 
HETATM   19  C17 UNL     1      18.617   0.060  51.577  1.00  0.00     0.012 A 
HETATM   20  C18 UNL     1      17.263  -0.233  51.456  1.00  0.00     0.001 A 
HETATM   21  C19 UNL     1      16.691  -1.103  52.372  1.00  0.00     0.000 A 
HETATM   22  C20 UNL     1      17.440  -1.668  53.382  1.00  0.00     0.001 A 
HETATM   23  C21 UNL     1      18.782  -1.342  53.458  1.00  0.00     0.012 A 
ENDBRANCH  15  18
ENDBRANCH  11  12
ENDBRANCH   6  11
BRANCH   3  24
HETATM   24  C2  UNL     1      23.163   4.086  49.333  1.00  0.00     0.033 A 
HETATM   25  C3  UNL     1      23.042   2.886  48.665  1.00  0.00     0.029 A 
HETATM   26  C4  UNL     1      21.804   2.453  48.202  1.00  0.00     0.004 A 
HETATM   27  C5  UNL     1      20.651   3.186  48.383  1.00  0.00     0.019 A 
HETATM   28  C6  UNL     1      20.763   4.390  49.050  1.00  0.00     0.013 A 
HETATM   29 BR1  UNL     1      19.211   5.455  49.335  1.00  0.00    -0.051 Br
HETATM   30  C7  UNL     1      22.001   4.793  49.497  1.00  0.00     0.048 A 
ENDBRANCH   3  24
BRANCH   1  31
HETATM   31  N1  UNL     1      27.534   6.214  48.962  1.00  0.00    -0.229 NA
HETATM   32  H1  UNL     1      27.324   6.919  49.690  1.00  0.00     0.144 HD
HETATM   33  H2  UNL     1      28.507   5.844  49.044  1.00  0.00     0.144 HD
ENDBRANCH   1  31
TORSDOF 5
ENDMDL
MODEL 8
REMARK VINA RESULT:      -9.6      3.157      8.174
REMARK  5 active torsions:
REMARK  status: ('A' for Active; 'I' for Inactive)
REMARK    1  A    between atoms: N1_1  and  N2_2 
REMARK    2  A    between atoms: N3_4  and  C2_5 
REMARK    3  A    between atoms: C10_14  and  C11_15 
REMARK    4  A    between atoms: C11_15  and  C12_16 
REMARK    5  A    between atoms: C15_19  and  C16_20 
ROOT
HETATM    1  N2  UNL     1      28.809   0.877  53.326  1.00  0.00    -0.216 N 
HETATM    2  C1  UNL     1      28.175   2.046  52.735  1.00  0.00     0.291 C 
HETATM    3  N3  UNL     1      26.719   1.849  52.902  1.00  0.00    -0.346 N 
HETATM    4  C8  UNL     1      26.384   1.040  54.049  1.00  0.00     0.183 A 
HETATM    5  C9  UNL     1      24.988   0.865  54.376  1.00  0.00     0.031 A 
HETATM    6  C10 UNL     1      24.624  -0.428  54.298  1.00  0.00     0.013 A 
HETATM    7  N4  UNL     1      25.733  -1.220  53.887  1.00  0.00    -0.344 N 
HETATM    8  C24 UNL     1      26.843  -0.348  53.703  1.00  0.00     0.152 A 
HETATM    9  N5  UNL     1      28.091  -0.346  53.344  1.00  0.00    -0.144 NA
HETATM   10  H22 UNL     1      25.924  -2.214  53.700  1.00  0.00     0.167 HD
ENDROOT
BRANCH   6  11
HETATM   11  C11 UNL     1      23.337  -1.153  54.527  1.00  0.00     0.095 C 
BRANCH  11  12
HETATM   12  C12 UNL     1      22.274  -0.721  53.606  1.00  0.00    -0.052 A 
HETATM   13  C13 UNL     1      20.983  -1.008  54.063  1.00  0.00     0.008 A 
HETATM   14  C14 UNL     1      19.872  -0.680  53.337  1.00  0.00     0.013 A 
HETATM   15  C15 UNL     1      19.981  -0.049  52.120  1.00  0.00    -0.026 A 
HETATM   16  C22 UNL     1      21.264   0.245  51.649  1.00  0.00     0.013 A 
HETATM   17  C23 UNL     1      22.384  -0.089  52.386  1.00  0.00     0.008 A 
BRANCH  15  18
HETATM   18  C16 UNL     1      18.841   0.334  51.284  1.00  0.00    -0.026 A 
HETATM   19  C17 UNL     1      17.664  -0.393  51.362  1.00  0.00     0.012 A 
HETATM   20  C18 UNL     1      16.550  -0.075  50.593  1.00  0.00     0.001 A 
HETATM   21  C19 UNL     1      16.632   1.004  49.727  1.00  0.00     0.000 A 
HETATM   22  C20 UNL     1      17.787   1.750  49.623  1.00  0.00     0.001 A 
HETATM   23  C21 UNL     1      18.866   1.391  50.411  1.00  0.00     0.012 A 
ENDBRANCH  15  18
ENDBRANCH  11  12
ENDBRANCH   6  11
BRANCH   3  24
HETATM   24  C2  UNL     1      25.899   2.491  51.934  1.00  0.00     0.033 A 
HETATM   25  C3  UNL     1      26.447   2.723  50.690  1.00  0.00     0.029 A 
HETATM   26  C4  UNL     1      25.703   3.339  49.690  1.00  0.00     0.004 A 
HETATM   27  C5  UNL     1      24.400   3.745  49.884  1.00  0.00     0.019 A 
HETATM   28  C6  UNL     1      23.844   3.518  51.128  1.00  0.00     0.013 A 
HETATM   29 BR1  UNL     1      22.048   4.053  51.466  1.00  0.00    -0.051 Br
HETATM   30  C7  UNL     1      24.604   2.906  52.097  1.00  0.00     0.048 A 
ENDBRANCH   3  24
BRANCH   1  31
HETATM   31  N1  UNL     1      30.116   0.987  53.866  1.00  0.00    -0.229 NA
HETATM   32  H1  UNL     1      30.771   0.904  53.071  1.00  0.00     0.144 HD
HETATM   33  H2  UNL     1      30.219   1.899  54.366  1.00  0.00     0.144 HD
ENDBRANCH   1  31
TORSDOF 5
ENDMDL
MODEL 9
REMARK VINA RESULT:      -9.4      2.862      4.460
REMARK  5 active torsions:
REMARK  status: ('A' for Active; 'I' for Inactive)
REMARK    1  A    between atoms: N1_1  and  N2_2 
REMARK    2  A    between atoms: N3_4  and  C2_5 
REMARK    3  A    between atoms: C10_14  and  C11_15 
REMARK    4  A    between atoms: C11_15  and  C12_16 
REMARK    5  A    between atoms: C15_19  and  C16_20 
ROOT
HETATM    1  N2  UNL     1      20.367   0.638  51.834  1.00  0.00    -0.216 N 
HETATM    2  C1  UNL     1      21.731   0.384  52.271  1.00  0.00     0.291 C 
HETATM    3  N3  UNL     1      22.444   1.675  52.159  1.00  0.00    -0.346 N 
HETATM    4  C8  UNL     1      21.575   2.817  52.309  1.00  0.00     0.183 A 
HETATM    5  C9  UNL     1      22.172   4.132  52.323  1.00  0.00     0.031 A 
HETATM    6  C10 UNL     1      21.737   4.880  51.293  1.00  0.00     0.013 A 
HETATM    7  N4  UNL     1      20.837   4.124  50.490  1.00  0.00    -0.344 N 
HETATM    8  C24 UNL     1      20.721   2.830  51.074  1.00  0.00     0.152 A 
HETATM    9  N5  UNL     1      20.139   1.682  50.901  1.00  0.00    -0.144 NA
HETATM   10  H22 UNL     1      20.278   4.270  49.639  1.00  0.00     0.167 HD
ENDROOT
BRANCH   6  11
HETATM   11  C11 UNL     1      22.020   6.276  50.841  1.00  0.00     0.095 C 
BRANCH  11  12
HETATM   12  C12 UNL     1      23.387   6.434  50.317  1.00  0.00    -0.052 A 
HETATM   13  C13 UNL     1      23.604   5.773  49.104  1.00  0.00     0.008 A 
HETATM   14  C14 UNL     1      24.815   5.809  48.470  1.00  0.00     0.013 A 
HETATM   15  C15 UNL     1      25.875   6.501  49.005  1.00  0.00    -0.026 A 
HETATM   16  C22 UNL     1      25.674   7.169  50.218  1.00  0.00     0.013 A 
HETATM   17  C23 UNL     1      24.449   7.129  50.854  1.00  0.00     0.008 A 
BRANCH  15  18
HETATM   18  C16 UNL     1      27.201   6.588  48.389  1.00  0.00    -0.026 A 
HETATM   19  C17 UNL     1      28.110   5.561  48.585  1.00  0.00     0.012 A 
HETATM   20  C18 UNL     1      29.383   5.587  48.025  1.00  0.00     0.001 A 
HETATM   21  C19 UNL     1      29.740   6.680  47.249  1.00  0.00     0.000 A 
HETATM   22  C20 UNL     1      28.861   7.719  47.034  1.00  0.00     0.001 A 
HETATM   23  C21 UNL     1      27.608   7.643  47.614  1.00  0.00     0.012 A 
ENDBRANCH  15  18
ENDBRANCH  11  12
ENDBRANCH   6  11
BRANCH   3  24
HETATM   24  C2  UNL     1      23.846   1.583  51.943  1.00  0.00     0.033 A 
HETATM   25  C3  UNL     1      24.407   2.453  51.032  1.00  0.00     0.029 A 
HETATM   26  C4  UNL     1      25.773   2.427  50.775  1.00  0.00     0.004 A 
HETATM   27  C5  UNL     1      26.626   1.545  51.403  1.00  0.00     0.019 A 
HETATM   28  C6  UNL     1      26.072   0.669  52.316  1.00  0.00     0.013 A 
HETATM   29 BR1  UNL     1      27.191  -0.577  53.221  1.00  0.00    -0.051 Br
HETATM   30  C7  UNL     1      24.717   0.718  52.551  1.00  0.00     0.048 A 
ENDBRANCH   3  24
BRANCH   1  31
HETATM   31  N1  UNL     1      19.308  -0.153  52.347  1.00  0.00    -0.229 NA
HETATM   32  H1  UNL     1      19.373  -1.072  51.877  1.00  0.00     0.144 HD
HETATM   33  H2  UNL     1      19.396  -0.237  53.384  1.00  0.00     0.144 HD
ENDBRANCH   1  31
TORSDOF 5
ENDMDL
