MODEL 1
REMARK VINA RESULT:      -8.7      0.000      0.000
REMARK  4 active torsions:
REMARK  status: ('A' for Active; 'I' for Inactive)
REMARK    1  A    between atoms: C1_2  and  C2_3 
REMARK    2  A    between atoms: C1_2  and  C14_20 
REMARK    3  A    between atoms: C5_6  and  N1_7 
REMARK    4  A    between atoms: N1_7  and  C6_8 
ROOT
HETATM    1  C2  UNL     1      26.550   4.914  49.367  1.00  0.00     0.055 A 
HETATM    2  C3  UNL     1      26.429   3.744  50.029  1.00  0.00     0.041 A 
HETATM    3  C4  UNL     1      25.260   3.491  50.692  1.00  0.00     0.047 A 
HETATM    4  C5  UNL     1      24.909   2.377  51.424  1.00  0.00     0.142 A 
HETATM    5  N2  UNL     1      23.737   2.309  51.990  1.00  0.00    -0.223 NA
HETATM    6  C12 UNL     1      22.769   3.216  51.961  1.00  0.00     0.236 A 
HETATM    7  N3  UNL     1      23.068   4.301  51.267  1.00  0.00    -0.234 NA
HETATM    8  C13 UNL     1      24.259   4.472  50.641  1.00  0.00     0.113 A 
HETATM    9  S1  UNL     1      24.944   5.768  49.657  1.00  0.00    -0.066 SA
ENDROOT
BRANCH   1  10
HETATM   10  C1  UNL     1      27.599   5.395  48.628  1.00  0.00     0.179 C 
HETATM   11  O1  UNL     1      28.511   4.571  48.256  1.00  0.00    -0.291 OA
BRANCH  10  12
HETATM   12  C14 UNL     1      28.533   6.183  47.890  1.00  0.00     0.142 C 
HETATM   13  C15 UNL     1      28.118   7.654  47.835  1.00  0.00     0.005 C 
HETATM   14  C16 UNL     1      28.978   8.521  48.408  1.00  0.00     0.090 C 
HETATM   15  N4  UNL     1      30.281   8.170  48.942  1.00  0.00    -0.086 NA
HETATM   16  C17 UNL     1      31.561   7.590  49.415  1.00  0.00     0.383 A 
HETATM   17  N5  UNL     1      30.775   6.906  48.918  1.00  0.00     0.047 N 
HETATM   18  C18 UNL     1      31.379   6.191  48.897  1.00  0.00     0.340 A 
HETATM   19  C19 UNL     1      29.935   6.173  48.380  1.00  0.00     0.157 A 
ENDBRANCH  10  12
ENDBRANCH   1  10
BRANCH   4  20
HETATM   20  N1  UNL     1      25.781   1.269  51.604  1.00  0.00    -0.340 N 
HETATM   21  H2  UNL     1      25.513   0.424  51.014  1.00  0.00     0.167 HD
BRANCH  20  22
HETATM   22  C6  UNL     1      26.935   1.065  52.404  1.00  0.00     0.035 A 
HETATM   23  C7  UNL     1      27.519   2.130  53.082  1.00  0.00     0.029 A 
HETATM   24  C8  UNL     1      28.635   1.964  53.857  1.00  0.00     0.004 A 
HETATM   25  C9  UNL     1      29.199   0.739  53.979  1.00  0.00     0.024 A 
HETATM   26  C10 UNL     1      28.685  -0.370  53.342  1.00  0.00     0.036 A 
HETATM   27 CL1  UNL     1      29.423  -1.953  53.505  1.00  0.00    -0.084 Cl
HETATM   28  C11 UNL     1      27.565  -0.138  52.579  1.00  0.00     0.053 A 
ENDBRANCH  20  22
ENDBRANCH   4  20
TORSDOF 4
ENDMDL
MODEL 2
REMARK VINA RESULT:      -8.6      3.836      7.160
REMARK  4 active torsions:
REMARK  status: ('A' for Active; 'I' for Inactive)
REMARK    1  A    between atoms: C1_2  and  C2_3 
REMARK    2  A    between atoms: C1_2  and  C14_20 
REMARK    3  A    between atoms: C5_6  and  N1_7 
REMARK    4  A    between atoms: N1_7  and  C6_8 
ROOT
HETATM    1  C2  UNL     1      24.505   1.889  52.794  1.00  0.00     0.055 A 
HETATM    2  C3  UNL     1      24.677   3.092  52.208  1.00  0.00     0.041 A 
HETATM    3  C4  UNL     1      23.637   3.621  51.493  1.00  0.00     0.047 A 
HETATM    4  C5  UNL     1      23.578   4.822  50.819  1.00  0.00     0.142 A 
HETATM    5  N2  UNL     1      22.491   5.166  50.189  1.00  0.00    -0.223 NA
HETATM    6  C12 UNL     1      21.358   4.481  50.095  1.00  0.00     0.236 A 
HETATM    7  N3  UNL     1      21.374   3.322  50.730  1.00  0.00    -0.234 NA
HETATM    8  C13 UNL     1      22.455   2.871  51.415  1.00  0.00     0.113 A 
HETATM    9  S1  UNL     1      22.784   1.407  52.347  1.00  0.00    -0.066 SA
ENDROOT
BRANCH   1  10
HETATM   10  C1  UNL     1      25.374   1.158  53.561  1.00  0.00     0.179 C 
HETATM   11  O1  UNL     1      26.023   1.763  54.490  1.00  0.00    -0.291 OA
BRANCH  10  12
HETATM   12  C14 UNL     1      26.179   0.148  54.170  1.00  0.00     0.142 C 
HETATM   13  C15 UNL     1      26.139  -1.162  53.383  1.00  0.00     0.005 C 
HETATM   14  C16 UNL     1      27.321  -1.575  52.883  1.00  0.00     0.090 C 
HETATM   15  N4  UNL     1      28.600  -0.941  53.141  1.00  0.00    -0.086 NA
HETATM   16  C17 UNL     1      29.783  -0.141  53.541  1.00  0.00     0.383 A 
HETATM   17  N5  UNL     1      28.737   0.156  53.929  1.00  0.00     0.047 N 
HETATM   18  C18 UNL     1      29.110   0.787  54.512  1.00  0.00     0.340 A 
HETATM   19  C19 UNL     1      27.617   0.472  54.349  1.00  0.00     0.157 A 
ENDBRANCH  10  12
ENDBRANCH   1  10
BRANCH   4  20
HETATM   20  N1  UNL     1      24.671   5.730  50.771  1.00  0.00    -0.340 N 
HETATM   21  H2  UNL     1      24.640   6.466  51.541  1.00  0.00     0.167 HD
BRANCH  20  22
HETATM   22  C6  UNL     1      25.792   5.851  49.910  1.00  0.00     0.035 A 
HETATM   23  C7  UNL     1      26.461   4.716  49.460  1.00  0.00     0.029 A 
HETATM   24  C8  UNL     1      27.547   4.801  48.633  1.00  0.00     0.004 A 
HETATM   25  C9  UNL     1      27.999   6.013  48.232  1.00  0.00     0.024 A 
HETATM   26  C10 UNL     1      27.397   7.187  48.629  1.00  0.00     0.036 A 
HETATM   27 CL1  UNL     1      27.990   8.752  48.104  1.00  0.00    -0.084 Cl
HETATM   28  C11 UNL     1      26.311   7.034  49.459  1.00  0.00     0.053 A 
ENDBRANCH  20  22
ENDBRANCH   4  20
TORSDOF 4
ENDMDL
MODEL 3
REMARK VINA RESULT:      -8.6      3.191      7.197
REMARK  4 active torsions:
REMARK  status: ('A' for Active; 'I' for Inactive)
REMARK    1  A    between atoms: C1_2  and  C2_3 
REMARK    2  A    between atoms: C1_2  and  C14_20 
REMARK    3  A    between atoms: C5_6  and  N1_7 
REMARK    4  A    between atoms: N1_7  and  C6_8 
ROOT
HETATM    1  C2  UNL     1      25.195   2.437  52.293  1.00  0.00     0.055 A 
HETATM    2  C3  UNL     1      25.813   3.029  51.250  1.00  0.00     0.041 A 
HETATM    3  C4  UNL     1      25.098   3.913  50.489  1.00  0.00     0.047 A 
HETATM    4  C5  UNL     1      25.513   4.634  49.390  1.00  0.00     0.142 A 
HETATM    5  N2  UNL     1      24.686   5.440  48.786  1.00  0.00    -0.223 NA
HETATM    6  C12 UNL     1      23.418   5.681  49.095  1.00  0.00     0.236 A 
HETATM    7  N3  UNL     1      22.982   5.007  50.146  1.00  0.00    -0.234 NA
HETATM    8  C13 UNL     1      23.762   4.144  50.845  1.00  0.00     0.113 A 
HETATM    9  S1  UNL     1      23.486   3.123  52.258  1.00  0.00    -0.066 SA
ENDROOT
BRANCH   1  10
HETATM   10  C1  UNL     1      25.686   1.536  53.202  1.00  0.00     0.179 C 
HETATM   11  O1  UNL     1      26.173   1.984  54.302  1.00  0.00    -0.291 OA
BRANCH  10  12
HETATM   12  C14 UNL     1      26.103   0.376  53.923  1.00  0.00     0.142 C 
HETATM   13  C15 UNL     1      25.769  -0.912  53.171  1.00  0.00     0.005 C 
HETATM   14  C16 UNL     1      26.827  -1.669  52.816  1.00  0.00     0.090 C 
HETATM   15  N4  UNL     1      28.202  -1.406  53.198  1.00  0.00    -0.086 NA
HETATM   16  C17 UNL     1      29.519  -0.950  53.707  1.00  0.00     0.383 A 
HETATM   17  N5  UNL     1      28.568  -0.349  53.968  1.00  0.00     0.047 N 
HETATM   18  C18 UNL     1      29.046   0.183  54.572  1.00  0.00     0.340 A 
HETATM   19  C19 UNL     1      27.549   0.293  54.252  1.00  0.00     0.157 A 
ENDBRANCH  10  12
ENDBRANCH   1  10
BRANCH   4  20
HETATM   20  N1  UNL     1      26.830   4.543  48.863  1.00  0.00    -0.340 N 
HETATM   21  H2  UNL     1      27.146   3.540  48.694  1.00  0.00     0.167 HD
BRANCH  20  22
HETATM   22  C6  UNL     1      27.803   5.515  48.515  1.00  0.00     0.035 A 
HETATM   23  C7  UNL     1      27.474   6.867  48.497  1.00  0.00     0.029 A 
HETATM   24  C8  UNL     1      28.390   7.826  48.161  1.00  0.00     0.004 A 
HETATM   25  C9  UNL     1      29.654   7.470  47.834  1.00  0.00     0.024 A 
HETATM   26  C10 UNL     1      30.066   6.155  47.826  1.00  0.00     0.036 A 
HETATM   27 CL1  UNL     1      31.706   5.703  47.399  1.00  0.00    -0.084 Cl
HETATM   28  C11 UNL     1      29.100   5.240  48.173  1.00  0.00     0.053 A 
ENDBRANCH  20  22
ENDBRANCH   4  20
TORSDOF 4
ENDMDL
MODEL 4
REMARK VINA RESULT:      -8.5      3.527      7.445
REMARK  4 active torsions:
REMARK  status: ('A' for Active; 'I' for Inactive)
REMARK    1  A    between atoms: C1_2  and  C2_3 
REMARK    2  A    between atoms: C1_2  and  C14_20 
REMARK    3  A    between atoms: C5_6  and  N1_7 
REMARK    4  A    between atoms: N1_7  and  C6_8 
ROOT
HETATM    1  C2  UNL     1      25.282   2.449  52.242  1.00  0.00     0.055 A 
HETATM    2  C3  UNL     1      25.945   3.071  51.244  1.00  0.00     0.041 A 
HETATM    3  C4  UNL     1      25.254   3.950  50.456  1.00  0.00     0.047 A 
HETATM    4  C5  UNL     1      25.714   4.698  49.393  1.00  0.00     0.142 A 
HETATM    5  N2  UNL     1      24.903   5.494  48.754  1.00  0.00    -0.223 NA
HETATM    6  C12 UNL     1      23.615   5.702  48.995  1.00  0.00     0.236 A 
HETATM    7  N3  UNL     1      23.136   5.003  50.009  1.00  0.00    -0.234 NA
HETATM    8  C13 UNL     1      23.895   4.146  50.739  1.00  0.00     0.113 A 
HETATM    9  S1  UNL     1      23.562   3.098  52.120  1.00  0.00    -0.066 SA
ENDROOT
BRANCH   1  10
HETATM   10  C1  UNL     1      25.741   1.545  53.165  1.00  0.00     0.179 C 
HETATM   11  O1  UNL     1      26.188   1.990  54.283  1.00  0.00    -0.291 OA
BRANCH  10  12
HETATM   12  C14 UNL     1      26.134   0.383  53.896  1.00  0.00     0.142 C 
HETATM   13  C15 UNL     1      25.801  -0.904  53.140  1.00  0.00     0.005 C 
HETATM   14  C16 UNL     1      26.858  -1.671  52.807  1.00  0.00     0.090 C 
HETATM   15  N4  UNL     1      28.229  -1.421  53.214  1.00  0.00    -0.086 NA
HETATM   16  C17 UNL     1      29.540  -0.977  53.746  1.00  0.00     0.383 A 
HETATM   17  N5  UNL     1      28.590  -0.366  53.988  1.00  0.00     0.047 N 
HETATM   18  C18 UNL     1      29.061   0.163  54.600  1.00  0.00     0.340 A 
HETATM   19  C19 UNL     1      27.572   0.286  54.252  1.00  0.00     0.157 A 
ENDBRANCH  10  12
ENDBRANCH   1  10
BRANCH   4  20
HETATM   20  N1  UNL     1      27.060   4.643  48.941  1.00  0.00    -0.340 N 
HETATM   21  H2  UNL     1      27.458   3.655  48.923  1.00  0.00     0.167 HD
BRANCH  20  22
HETATM   22  C6  UNL     1      27.976   5.635  48.506  1.00  0.00     0.035 A 
HETATM   23  C7  UNL     1      29.272   5.284  48.137  1.00  0.00     0.029 A 
HETATM   24  C8  UNL     1      30.179   6.219  47.718  1.00  0.00     0.004 A 
HETATM   25  C9  UNL     1      29.825   7.525  47.655  1.00  0.00     0.024 A 
HETATM   26  C10 UNL     1      28.564   7.959  48.001  1.00  0.00     0.036 A 
HETATM   27 CL1  UNL     1      28.116   9.653  47.915  1.00  0.00    -0.084 Cl
HETATM   28  C11 UNL     1      27.700   6.973  48.413  1.00  0.00     0.053 A 
ENDBRANCH  20  22
ENDBRANCH   4  20
TORSDOF 4
ENDMDL
MODEL 5
REMARK VINA RESULT:      -8.5      1.894      2.389
REMARK  4 active torsions:
REMARK  status: ('A' for Active; 'I' for Inactive)
REMARK    1  A    between atoms: C1_2  and  C2_3 
REMARK    2  A    between atoms: C1_2  and  C14_20 
REMARK    3  A    between atoms: C5_6  and  N1_7 
REMARK    4  A    between atoms: N1_7  and  C6_8 
ROOT
HETATM    1  C2  UNL     1      26.494   5.678  49.197  1.00  0.00     0.055 A 
HETATM    2  C3  UNL     1      25.794   4.606  49.622  1.00  0.00     0.041 A 
HETATM    3  C4  UNL     1      24.597   4.819  50.250  1.00  0.00     0.047 A 
HETATM    4  C5  UNL     1      23.715   3.890  50.760  1.00  0.00     0.142 A 
HETATM    5  N2  UNL     1      22.609   4.282  51.327  1.00  0.00    -0.223 NA
HETATM    6  C12 UNL     1      22.181   5.527  51.496  1.00  0.00     0.236 A 
HETATM    7  N3  UNL     1      23.000   6.447  51.018  1.00  0.00    -0.234 NA
HETATM    8  C13 UNL     1      24.176   6.146  50.411  1.00  0.00     0.113 A 
HETATM    9  S1  UNL     1      25.455   7.120  49.682  1.00  0.00    -0.066 SA
ENDROOT
BRANCH   1  10
HETATM   10  C1  UNL     1      27.696   5.733  48.542  1.00  0.00     0.179 C 
HETATM   11  O1  UNL     1      28.406   4.665  48.482  1.00  0.00    -0.291 OA
BRANCH  10  12
HETATM   12  C14 UNL     1      28.864   6.104  47.809  1.00  0.00     0.142 C 
HETATM   13  C15 UNL     1      28.755   7.521  47.244  1.00  0.00     0.005 C 
HETATM   14  C16 UNL     1      29.671   8.399  47.699  1.00  0.00     0.090 C 
HETATM   15  N4  UNL     1      30.787   8.064  48.563  1.00  0.00    -0.086 NA
HETATM   16  C17 UNL     1      31.846   7.497  49.434  1.00  0.00     0.383 A 
HETATM   17  N5  UNL     1      31.025   6.804  49.011  1.00  0.00     0.047 N 
HETATM   18  C18 UNL     1      31.476   6.045  49.322  1.00  0.00     0.340 A 
HETATM   19  C19 UNL     1      30.149   6.060  48.553  1.00  0.00     0.157 A 
ENDBRANCH  10  12
ENDBRANCH   1  10
BRANCH   4  20
HETATM   20  N1  UNL     1      23.954   2.491  50.702  1.00  0.00    -0.340 N 
HETATM   21  H2  UNL     1      23.713   2.062  49.757  1.00  0.00     0.167 HD
BRANCH  20  22
HETATM   22  C6  UNL     1      24.452   1.554  51.644  1.00  0.00     0.035 A 
HETATM   23  C7  UNL     1      25.819   1.309  51.739  1.00  0.00     0.029 A 
HETATM   24  C8  UNL     1      26.327   0.408  52.634  1.00  0.00     0.004 A 
HETATM   25  C9  UNL     1      25.495  -0.273  53.457  1.00  0.00     0.024 A 
HETATM   26  C10 UNL     1      24.129  -0.093  53.429  1.00  0.00     0.036 A 
HETATM   27 CL1  UNL     1      23.059  -0.981  54.498  1.00  0.00    -0.084 Cl
HETATM   28  C11 UNL     1      23.681   0.825  52.509  1.00  0.00     0.053 A 
ENDBRANCH  20  22
ENDBRANCH   4  20
TORSDOF 4
ENDMDL
MODEL 6
REMARK VINA RESULT:      -8.4      4.922      7.524
REMARK  4 active torsions:
REMARK  status: ('A' for Active; 'I' for Inactive)
REMARK    1  A    between atoms: C1_2  and  C2_3 
REMARK    2  A    between atoms: C1_2  and  C14_20 
REMARK    3  A    between atoms: C5_6  and  N1_7 
REMARK    4  A    between atoms: N1_7  and  C6_8 
ROOT
HETATM    1  C2  UNL     1      24.872   2.182  52.632  1.00  0.00     0.055 A 
HETATM    2  C3  UNL     1      23.543   2.419  52.609  1.00  0.00     0.041 A 
HETATM    3  C4  UNL     1      23.050   3.258  51.648  1.00  0.00     0.047 A 
HETATM    4  C5  UNL     1      21.744   3.642  51.428  1.00  0.00     0.142 A 
HETATM    5  N2  UNL     1      21.457   4.455  50.451  1.00  0.00    -0.223 NA
HETATM    6  C12 UNL     1      22.295   5.004  49.581  1.00  0.00     0.236 A 
HETATM    7  N3  UNL     1      23.559   4.660  49.759  1.00  0.00    -0.234 NA
HETATM    8  C13 UNL     1      23.964   3.820  50.746  1.00  0.00     0.113 A 
HETATM    9  S1  UNL     1      25.535   3.179  51.232  1.00  0.00    -0.066 SA
ENDROOT
BRANCH   1  10
HETATM   10  C1  UNL     1      25.603   1.385  53.474  1.00  0.00     0.179 C 
HETATM   11  O1  UNL     1      26.285   1.947  54.404  1.00  0.00    -0.291 OA
BRANCH  10  12
HETATM   12  C14 UNL     1      26.239   0.311  54.167  1.00  0.00     0.142 C 
HETATM   13  C15 UNL     1      25.960  -1.038  53.504  1.00  0.00     0.005 C 
HETATM   14  C16 UNL     1      27.044  -1.689  53.035  1.00  0.00     0.090 C 
HETATM   15  N4  UNL     1      28.417  -1.261  53.224  1.00  0.00    -0.086 NA
HETATM   16  C17 UNL     1      29.727  -0.642  53.540  1.00  0.00     0.383 A 
HETATM   17  N5  UNL     1      28.756  -0.137  53.906  1.00  0.00     0.047 N 
HETATM   18  C18 UNL     1      29.243   0.470  54.426  1.00  0.00     0.340 A 
HETATM   19  C19 UNL     1      27.715   0.401  54.304  1.00  0.00     0.157 A 
ENDBRANCH  10  12
ENDBRANCH   1  10
BRANCH   4  20
HETATM   20  N1  UNL     1      20.664   3.188  52.233  1.00  0.00    -0.340 N 
HETATM   21  H2  UNL     1      20.292   3.934  52.896  1.00  0.00     0.167 HD
BRANCH  20  22
HETATM   22  C6  UNL     1      19.981   1.948  52.327  1.00  0.00     0.035 A 
HETATM   23  C7  UNL     1      18.791   1.745  51.634  1.00  0.00     0.029 A 
HETATM   24  C8  UNL     1      18.108   0.561  51.709  1.00  0.00     0.004 A 
HETATM   25  C9  UNL     1      18.586  -0.449  52.474  1.00  0.00     0.024 A 
HETATM   26  C10 UNL     1      19.756  -0.332  53.194  1.00  0.00     0.036 A 
HETATM   27 CL1  UNL     1      20.366  -1.647  54.182  1.00  0.00    -0.084 Cl
HETATM   28  C11 UNL     1      20.395   0.879  53.076  1.00  0.00     0.053 A 
ENDBRANCH  20  22
ENDBRANCH   4  20
TORSDOF 4
ENDMDL
MODEL 7
REMARK VINA RESULT:      -8.2      4.595      6.989
REMARK  4 active torsions:
REMARK  status: ('A' for Active; 'I' for Inactive)
REMARK    1  A    between atoms: C1_2  and  C2_3 
REMARK    2  A    between atoms: C1_2  and  C14_20 
REMARK    3  A    between atoms: C5_6  and  N1_7 
REMARK    4  A    between atoms: N1_7  and  C6_8 
ROOT
HETATM    1  C2  UNL     1      24.685   3.172  50.938  1.00  0.00     0.055 A 
HETATM    2  C3  UNL     1      23.448   3.153  51.476  1.00  0.00     0.041 A 
HETATM    3  C4  UNL     1      22.498   3.985  50.950  1.00  0.00     0.047 A 
HETATM    4  C5  UNL     1      21.181   4.135  51.327  1.00  0.00     0.142 A 
HETATM    5  N2  UNL     1      20.414   4.983  50.701  1.00  0.00    -0.223 NA
HETATM    6  C12 UNL     1      20.739   5.775  49.687  1.00  0.00     0.236 A 
HETATM    7  N3  UNL     1      21.996   5.659  49.295  1.00  0.00    -0.234 NA
HETATM    8  C13 UNL     1      22.877   4.807  49.879  1.00  0.00     0.113 A 
HETATM    9  S1  UNL     1      24.577   4.426  49.592  1.00  0.00    -0.066 SA
ENDROOT
BRANCH   1  10
HETATM   10  C1  UNL     1      25.795   2.440  51.271  1.00  0.00     0.179 C 
HETATM   11  O1  UNL     1      26.890   2.672  50.643  1.00  0.00    -0.291 OA
BRANCH  10  12
HETATM   12  C14 UNL     1      26.746   1.537  51.836  1.00  0.00     0.142 C 
HETATM   13  C15 UNL     1      27.847   2.274  52.598  1.00  0.00     0.005 C 
HETATM   14  C16 UNL     1      27.923   2.001  53.917  1.00  0.00     0.090 C 
HETATM   15  N4  UNL     1      27.135   0.996  54.605  1.00  0.00    -0.086 NA
HETATM   16  C17 UNL     1      26.234  -0.077  55.093  1.00  0.00     0.383 A 
HETATM   17  N5  UNL     1      26.220   0.214  53.976  1.00  0.00     0.047 N 
HETATM   18  C18 UNL     1      25.669  -0.515  53.772  1.00  0.00     0.340 A 
HETATM   19  C19 UNL     1      26.209   0.520  52.777  1.00  0.00     0.157 A 
ENDBRANCH  10  12
ENDBRANCH   1  10
BRANCH   4  20
HETATM   20  N1  UNL     1      20.598   3.398  52.393  1.00  0.00    -0.340 N 
HETATM   21  H2  UNL     1      20.494   3.966  53.289  1.00  0.00     0.167 HD
BRANCH  20  22
HETATM   22  C6  UNL     1      20.125   2.065  52.504  1.00  0.00     0.035 A 
HETATM   23  C7  UNL     1      19.009   1.652  51.782  1.00  0.00     0.029 A 
HETATM   24  C8  UNL     1      18.527   0.374  51.872  1.00  0.00     0.004 A 
HETATM   25  C9  UNL     1      19.138  -0.525  52.680  1.00  0.00     0.024 A 
HETATM   26  C10 UNL     1      20.248  -0.200  53.429  1.00  0.00     0.036 A 
HETATM   27 CL1  UNL     1      21.032  -1.372  54.473  1.00  0.00    -0.084 Cl
HETATM   28  C11 UNL     1      20.683   1.097  53.295  1.00  0.00     0.053 A 
ENDBRANCH  20  22
ENDBRANCH   4  20
TORSDOF 4
ENDMDL
MODEL 8
REMARK VINA RESULT:      -8.1      3.447      4.692
REMARK  4 active torsions:
REMARK  status: ('A' for Active; 'I' for Inactive)
REMARK    1  A    between atoms: C1_2  and  C2_3 
REMARK    2  A    between atoms: C1_2  and  C14_20 
REMARK    3  A    between atoms: C5_6  and  N1_7 
REMARK    4  A    between atoms: N1_7  and  C6_8 
ROOT
HETATM    1  C2  UNL     1      23.057   2.197  51.091  1.00  0.00     0.055 A 
HETATM    2  C3  UNL     1      23.895   1.231  51.522  1.00  0.00     0.041 A 
HETATM    3  C4  UNL     1      23.543   0.514  52.633  1.00  0.00     0.047 A 
HETATM    4  C5  UNL     1      24.228  -0.511  53.249  1.00  0.00     0.142 A 
HETATM    5  N2  UNL     1      23.732  -1.086  54.308  1.00  0.00    -0.223 NA
HETATM    6  C12 UNL     1      22.587  -0.809  54.920  1.00  0.00     0.236 A 
HETATM    7  N3  UNL     1      21.900   0.170  54.357  1.00  0.00    -0.234 NA
HETATM    8  C13 UNL     1      22.327   0.834  53.253  1.00  0.00     0.113 A 
HETATM    9  S1  UNL     1      21.655   2.149  52.286  1.00  0.00    -0.066 SA
ENDROOT
BRANCH   1  10
HETATM   10  C1  UNL     1      23.172   3.036  50.014  1.00  0.00     0.179 C 
HETATM   11  O1  UNL     1      22.729   2.635  48.878  1.00  0.00    -0.291 OA
BRANCH  10  12
HETATM   12  C14 UNL     1      23.430   4.113  49.113  1.00  0.00     0.142 C 
HETATM   13  C15 UNL     1      22.389   5.226  49.243  1.00  0.00     0.005 C 
HETATM   14  C16 UNL     1      22.867   6.425  49.633  1.00  0.00     0.090 C 
HETATM   15  N4  UNL     1      24.272   6.743  49.809  1.00  0.00    -0.086 NA
HETATM   16  C17 UNL     1      25.748   6.843  49.921  1.00  0.00     0.383 A 
HETATM   17  N5  UNL     1      25.267   5.844  49.596  1.00  0.00     0.047 N 
HETATM   18  C18 UNL     1      26.106   5.485  49.387  1.00  0.00     0.340 A 
HETATM   19  C19 UNL     1      24.753   4.776  49.242  1.00  0.00     0.157 A 
ENDBRANCH  10  12
ENDBRANCH   1  10
BRANCH   4  20
HETATM   20  N1  UNL     1      25.483  -0.987  52.781  1.00  0.00    -0.340 N 
HETATM   21  H2  UNL     1      25.395  -1.775  52.070  1.00  0.00     0.167 HD
BRANCH  20  22
HETATM   22  C6  UNL     1      26.824  -0.621  53.064  1.00  0.00     0.035 A 
HETATM   23  C7  UNL     1      27.803  -1.600  53.220  1.00  0.00     0.029 A 
HETATM   24  C8  UNL     1      29.103  -1.278  53.499  1.00  0.00     0.004 A 
HETATM   25  C9  UNL     1      29.466   0.020  53.630  1.00  0.00     0.024 A 
HETATM   26  C10 UNL     1      28.563   1.051  53.492  1.00  0.00     0.036 A 
HETATM   27 CL1  UNL     1      29.043   2.729  53.665  1.00  0.00    -0.084 Cl
HETATM   28  C11 UNL     1      27.274   0.663  53.212  1.00  0.00     0.053 A 
ENDBRANCH  20  22
ENDBRANCH   4  20
TORSDOF 4
ENDMDL
MODEL 9
REMARK VINA RESULT:      -8.1      3.380      7.566
REMARK  4 active torsions:
REMARK  status: ('A' for Active; 'I' for Inactive)
REMARK    1  A    between atoms: C1_2  and  C2_3 
REMARK    2  A    between atoms: C1_2  and  C14_20 
REMARK    3  A    between atoms: C5_6  and  N1_7 
REMARK    4  A    between atoms: N1_7  and  C6_8 
ROOT
HETATM    1  C2  UNL     1      25.257   2.996  51.420  1.00  0.00     0.055 A 
HETATM    2  C3  UNL     1      25.554   3.897  50.459  1.00  0.00     0.041 A 
HETATM    3  C4  UNL     1      24.809   5.041  50.389  1.00  0.00     0.047 A 
HETATM    4  C5  UNL     1      24.928   6.094  49.507  1.00  0.00     0.142 A 
HETATM    5  N2  UNL     1      24.123   7.115  49.594  1.00  0.00    -0.223 NA
HETATM    6  C12 UNL     1      23.139   7.299  50.465  1.00  0.00     0.236 A 
HETATM    7  N3  UNL     1      22.992   6.309  51.329  1.00  0.00    -0.234 NA
HETATM    8  C13 UNL     1      23.778   5.203  51.325  1.00  0.00     0.113 A 
HETATM    9  S1  UNL     1      23.838   3.747  52.323  1.00  0.00    -0.066 SA
ENDROOT
BRANCH   1  10
HETATM   10  C1  UNL     1      25.850   1.794  51.704  1.00  0.00     0.179 C 
HETATM   11  O1  UNL     1      27.026   1.570  51.241  1.00  0.00    -0.291 OA
BRANCH  10  12
HETATM   12  C14 UNL     1      26.188   0.485  52.165  1.00  0.00     0.142 C 
HETATM   13  C15 UNL     1      27.501   0.480  52.949  1.00  0.00     0.005 C 
HETATM   14  C16 UNL     1      27.405   0.097  54.239  1.00  0.00     0.090 C 
HETATM   15  N4  UNL     1      26.200  -0.410  54.868  1.00  0.00    -0.086 NA
HETATM   16  C17 UNL     1      24.867  -0.900  55.297  1.00  0.00     0.383 A 
HETATM   17  N5  UNL     1      25.022  -0.551  54.207  1.00  0.00     0.047 N 
HETATM   18  C18 UNL     1      24.176  -0.869  53.963  1.00  0.00     0.340 A 
HETATM   19  C19 UNL     1      25.189  -0.182  53.038  1.00  0.00     0.157 A 
ENDBRANCH  10  12
ENDBRANCH   1  10
BRANCH   4  20
HETATM   20  N1  UNL     1      25.908   6.126  48.478  1.00  0.00    -0.340 N 
HETATM   21  H2  UNL     1      25.521   5.863  47.521  1.00  0.00     0.167 HD
BRANCH  20  22
HETATM   22  C6  UNL     1      27.291   6.441  48.467  1.00  0.00     0.035 A 
HETATM   23  C7  UNL     1      28.241   5.438  48.295  1.00  0.00     0.029 A 
HETATM   24  C8  UNL     1      29.582   5.711  48.285  1.00  0.00     0.004 A 
HETATM   25  C9  UNL     1      30.015   6.984  48.445  1.00  0.00     0.024 A 
HETATM   26  C10 UNL     1      29.144   8.037  48.622  1.00  0.00     0.036 A 
HETATM   27 CL1  UNL     1      29.715   9.683  48.830  1.00  0.00    -0.084 Cl
HETATM   28  C11 UNL     1      27.811   7.698  48.622  1.00  0.00     0.053 A 
ENDBRANCH  20  22
ENDBRANCH   4  20
TORSDOF 4
ENDMDL
