MODEL 1
REMARK VINA RESULT:      -7.8      0.000      0.000
REMARK  8 active torsions:
REMARK  status: ('A' for Active; 'I' for Inactive)
REMARK    1  A    between atoms: C2_2  and  C3_3 
REMARK    2  A    between atoms: C3_3  and  C4_4 
REMARK    3  A    between atoms: C4_4  and  C5_6 
REMARK    4  A    between atoms: C5_6  and  C6_7 
REMARK    5  A    between atoms: C6_7  and  C7_8 
REMARK    6  A    between atoms: C10_12  and  C11_13 
REMARK    7  A    between atoms: C12_14  and  N2_15 
REMARK    8  A    between atoms: C16_20  and  O1_21 
ROOT
HETATM    1  C7  UNL     1      21.948   1.254  50.665  1.00  0.00    -0.036 A 
HETATM    2  C8  UNL     1      21.196   1.097  49.507  1.00  0.00     0.123 A 
HETATM    3  N1  UNL     1      21.589   1.701  48.362  1.00  0.00    -0.272 NA
HETATM    4  C9  UNL     1      22.717   2.459  48.352  1.00  0.00     0.127 A 
HETATM    5  C10 UNL     1      23.448   2.603  49.508  1.00  0.00    -0.017 A 
HETATM    6  C19 UNL     1      23.107   2.017  50.706  1.00  0.00     0.021 A 
ENDROOT
BRANCH   5   7
HETATM    7  C11 UNL     1      24.653   3.420  49.472  1.00  0.00     0.029 C 
HETATM    8  C12 UNL     1      24.643   4.715  49.744  1.00  0.00     0.086 C 
BRANCH   8   9
HETATM    9  N2  UNL     1      25.653   5.684  49.774  1.00  0.00    -0.388 N 
HETATM   10  C13 UNL     1      26.872   5.266  49.046  1.00  0.00     0.141 C 
HETATM   11  C14 UNL     1      27.631   6.350  48.320  1.00  0.00     0.133 C 
HETATM   12  N3  UNL     1      28.310   7.324  49.045  1.00  0.00    -0.417 N 
HETATM   13  C15 UNL     1      28.015   8.730  49.012  1.00  0.00     0.145 C 
HETATM   14  H15 UNL     1      29.281   7.112  49.354  1.00  0.00     0.153 HD
HETATM   15  C16 UNL     1      26.881   9.083  50.046  1.00  0.00     0.137 C 
HETATM   16  C17 UNL     1      26.171   7.884  50.145  1.00  0.00     0.053 C 
HETATM   17  C18 UNL     1      25.233   6.913  50.547  1.00  0.00     0.124 C 
BRANCH  15  18
HETATM   18  O1  UNL     1      27.595   9.481  51.200  1.00  0.00    -0.394 OA
HETATM   19  H19 UNL     1      27.989   8.673  51.629  1.00  0.00     0.210 HD
ENDBRANCH  15  18
ENDBRANCH   8   9
ENDBRANCH   5   7
BRANCH   1  20
HETATM   20  C6  UNL     1      21.413   0.542  51.848  1.00  0.00     0.068 C 
BRANCH  20  21
HETATM   21  C5  UNL     1      22.356   0.746  52.952  1.00  0.00     0.002 C 
BRANCH  21  22
HETATM   22  C4  UNL     1      22.831  -0.301  53.603  1.00  0.00     0.037 C 
HETATM   23 CL1  UNL     1      21.802  -1.520  54.326  1.00  0.00    -0.084 Cl
BRANCH  22  24
HETATM   24  C3  UNL     1      24.236  -0.578  53.803  1.00  0.00     0.074 C 
BRANCH  24  25
HETATM   25  C2  UNL     1      25.134   0.015  53.047  1.00  0.00    -0.153 C 
HETATM   26  C1  UNL     1      26.078   0.369  52.188  1.00  0.00     0.096 C 
ENDBRANCH  24  25
ENDBRANCH  22  24
ENDBRANCH  21  22
ENDBRANCH  20  21
ENDBRANCH   1  20
TORSDOF 8
ENDMDL
MODEL 2
REMARK VINA RESULT:      -7.3      4.416      6.333
REMARK  8 active torsions:
REMARK  status: ('A' for Active; 'I' for Inactive)
REMARK    1  A    between atoms: C2_2  and  C3_3 
REMARK    2  A    between atoms: C3_3  and  C4_4 
REMARK    3  A    between atoms: C4_4  and  C5_6 
REMARK    4  A    between atoms: C5_6  and  C6_7 
REMARK    5  A    between atoms: C6_7  and  C7_8 
REMARK    6  A    between atoms: C10_12  and  C11_13 
REMARK    7  A    between atoms: C12_14  and  N2_15 
REMARK    8  A    between atoms: C16_20  and  O1_21 
ROOT
HETATM    1  C7  UNL     1      20.590   0.676  51.118  1.00  0.00    -0.036 A 
HETATM    2  C8  UNL     1      19.455   0.243  51.794  1.00  0.00     0.123 A 
HETATM    3  N1  UNL     1      19.574  -0.314  53.021  1.00  0.00    -0.272 NA
HETATM    4  C9  UNL     1      20.803  -0.447  53.585  1.00  0.00     0.127 A 
HETATM    5  C10 UNL     1      21.914  -0.013  52.901  1.00  0.00    -0.017 A 
HETATM    6  C19 UNL     1      21.866   0.562  51.651  1.00  0.00     0.021 A 
ENDROOT
BRANCH   5   7
HETATM    7  C11 UNL     1      23.221  -0.167  53.526  1.00  0.00     0.029 C 
HETATM    8  C12 UNL     1      24.318   0.376  53.024  1.00  0.00     0.086 C 
BRANCH   8   9
HETATM    9  N2  UNL     1      25.655   0.365  53.439  1.00  0.00    -0.388 N 
HETATM   10  C13 UNL     1      26.218  -1.000  53.529  1.00  0.00     0.141 C 
HETATM   11  C14 UNL     1      27.674  -1.157  53.163  1.00  0.00     0.133 C 
HETATM   12  N3  UNL     1      28.657  -0.619  53.988  1.00  0.00    -0.417 N 
HETATM   13  C15 UNL     1      29.580   0.414  53.603  1.00  0.00     0.145 C 
HETATM   14  H15 UNL     1      28.990  -1.195  54.788  1.00  0.00     0.153 HD
HETATM   15  C16 UNL     1      28.945   1.837  53.825  1.00  0.00     0.137 C 
HETATM   16  C17 UNL     1      27.576   1.584  53.707  1.00  0.00     0.053 C 
HETATM   17  C18 UNL     1      26.179   1.761  53.691  1.00  0.00     0.124 C 
BRANCH  15  18
HETATM   18  O1  UNL     1      29.400   2.209  55.110  1.00  0.00    -0.394 OA
HETATM   19  H19 UNL     1      29.623   3.180  55.105  1.00  0.00     0.210 HD
ENDBRANCH  15  18
ENDBRANCH   8   9
ENDBRANCH   5   7
BRANCH   1  20
HETATM   20  C6  UNL     1      20.325   1.267  49.786  1.00  0.00     0.068 C 
BRANCH  20  21
HETATM   21  C5  UNL     1      21.575   1.214  49.022  1.00  0.00     0.002 C 
BRANCH  21  22
HETATM   22  C4  UNL     1      22.106   2.335  48.566  1.00  0.00     0.037 C 
HETATM   23 CL1  UNL     1      22.202   2.719  46.860  1.00  0.00    -0.084 Cl
BRANCH  22  24
HETATM   24  C3  UNL     1      22.669   3.377  49.397  1.00  0.00     0.074 C 
BRANCH  24  25
HETATM   25  C2  UNL     1      23.904   3.268  49.835  1.00  0.00    -0.153 C 
HETATM   26  C1  UNL     1      25.077   2.909  50.333  1.00  0.00     0.096 C 
ENDBRANCH  24  25
ENDBRANCH  22  24
ENDBRANCH  21  22
ENDBRANCH  20  21
ENDBRANCH   1  20
TORSDOF 8
ENDMDL
MODEL 3
REMARK VINA RESULT:      -7.2      5.018      6.508
REMARK  8 active torsions:
REMARK  status: ('A' for Active; 'I' for Inactive)
REMARK    1  A    between atoms: C2_2  and  C3_3 
REMARK    2  A    between atoms: C3_3  and  C4_4 
REMARK    3  A    between atoms: C4_4  and  C5_6 
REMARK    4  A    between atoms: C5_6  and  C6_7 
REMARK    5  A    between atoms: C6_7  and  C7_8 
REMARK    6  A    between atoms: C10_12  and  C11_13 
REMARK    7  A    between atoms: C12_14  and  N2_15 
REMARK    8  A    between atoms: C16_20  and  O1_21 
ROOT
HETATM    1  C7  UNL     1      19.832   1.042  51.848  1.00  0.00    -0.036 A 
HETATM    2  C8  UNL     1      19.116   2.234  51.846  1.00  0.00     0.123 A 
HETATM    3  N1  UNL     1      19.746   3.398  52.125  1.00  0.00    -0.272 NA
HETATM    4  C9  UNL     1      21.075   3.395  52.406  1.00  0.00     0.127 A 
HETATM    5  C10 UNL     1      21.766   2.206  52.403  1.00  0.00    -0.017 A 
HETATM    6  C19 UNL     1      21.190   0.987  52.128  1.00  0.00     0.021 A 
ENDROOT
BRANCH   5   7
HETATM    7  C11 UNL     1      23.191   2.229  52.708  1.00  0.00     0.029 C 
HETATM    8  C12 UNL     1      23.839   1.166  53.159  1.00  0.00     0.086 C 
BRANCH   8   9
HETATM    9  N2  UNL     1      25.177   0.954  53.513  1.00  0.00    -0.388 N 
HETATM   10  C13 UNL     1      25.509  -0.480  53.667  1.00  0.00     0.141 C 
HETATM   11  C14 UNL     1      26.896  -0.902  53.246  1.00  0.00     0.133 C 
HETATM   12  N3  UNL     1      27.999  -0.491  53.988  1.00  0.00    -0.417 N 
HETATM   13  C15 UNL     1      29.058   0.346  53.493  1.00  0.00     0.145 C 
HETATM   14  H15 UNL     1      28.276  -1.068  54.808  1.00  0.00     0.153 HD
HETATM   15  C16 UNL     1      28.682   1.867  53.648  1.00  0.00     0.137 C 
HETATM   16  C17 UNL     1      27.285   1.843  53.611  1.00  0.00     0.053 C 
HETATM   17  C18 UNL     1      25.938   2.252  53.647  1.00  0.00     0.124 C 
BRANCH  15  18
HETATM   18  O1  UNL     1      29.264   2.230  54.884  1.00  0.00    -0.394 OA
HETATM   19  H19 UNL     1      30.029   2.845  54.712  1.00  0.00     0.210 HD
ENDBRANCH  15  18
ENDBRANCH   8   9
ENDBRANCH   5   7
BRANCH   1  20
HETATM   20  C6  UNL     1      19.028  -0.159  51.526  1.00  0.00     0.068 C 
BRANCH  20  21
HETATM   21  C5  UNL     1      17.887  -0.188  52.445  1.00  0.00     0.002 C 
BRANCH  21  22
HETATM   22  C4  UNL     1      17.304  -1.340  52.722  1.00  0.00     0.037 C 
HETATM   23 CL1  UNL     1      15.776  -1.828  52.018  1.00  0.00    -0.084 Cl
BRANCH  22  24
HETATM   24  C3  UNL     1      17.837  -2.337  53.625  1.00  0.00     0.074 C 
BRANCH  24  25
HETATM   25  C2  UNL     1      17.356  -3.561  53.605  1.00  0.00    -0.153 C 
HETATM   26  C1  UNL     1      16.640  -4.675  53.636  1.00  0.00     0.096 C 
ENDBRANCH  24  25
ENDBRANCH  22  24
ENDBRANCH  21  22
ENDBRANCH  20  21
ENDBRANCH   1  20
TORSDOF 8
ENDMDL
MODEL 4
REMARK VINA RESULT:      -7.1      4.861      8.858
REMARK  8 active torsions:
REMARK  status: ('A' for Active; 'I' for Inactive)
REMARK    1  A    between atoms: C2_2  and  C3_3 
REMARK    2  A    between atoms: C3_3  and  C4_4 
REMARK    3  A    between atoms: C4_4  and  C5_6 
REMARK    4  A    between atoms: C5_6  and  C6_7 
REMARK    5  A    between atoms: C6_7  and  C7_8 
REMARK    6  A    between atoms: C10_12  and  C11_13 
REMARK    7  A    between atoms: C12_14  and  N2_15 
REMARK    8  A    between atoms: C16_20  and  O1_21 
ROOT
HETATM    1  C7  UNL     1      25.903   0.257  52.822  1.00  0.00    -0.036 A 
HETATM    2  C8  UNL     1      26.567  -0.198  53.955  1.00  0.00     0.123 A 
HETATM    3  N1  UNL     1      25.865  -0.758  54.967  1.00  0.00    -0.272 NA
HETATM    4  C9  UNL     1      24.515  -0.874  54.868  1.00  0.00     0.127 A 
HETATM    5  C10 UNL     1      23.876  -0.418  53.739  1.00  0.00    -0.017 A 
HETATM    6  C19 UNL     1      24.527   0.162  52.673  1.00  0.00     0.021 A 
ENDROOT
BRANCH   5   7
HETATM    7  C11 UNL     1      22.427  -0.551  53.656  1.00  0.00     0.029 C 
HETATM    8  C12 UNL     1      21.696   0.144  52.800  1.00  0.00     0.086 C 
BRANCH   8   9
HETATM    9  N2  UNL     1      20.320   0.183  52.544  1.00  0.00    -0.388 N 
HETATM   10  C13 UNL     1      19.969   1.084  51.424  1.00  0.00     0.141 C 
HETATM   11  C14 UNL     1      18.814   0.658  50.550  1.00  0.00     0.133 C 
HETATM   12  N3  UNL     1      17.520   0.669  51.060  1.00  0.00    -0.417 N 
HETATM   13  C15 UNL     1      16.686  -0.492  51.213  1.00  0.00     0.145 C 
HETATM   14  H15 UNL     1      16.985   1.559  51.010  1.00  0.00     0.153 HD
HETATM   15  C16 UNL     1      16.971  -1.203  52.589  1.00  0.00     0.137 C 
HETATM   16  C17 UNL     1      18.297  -0.846  52.850  1.00  0.00     0.053 C 
HETATM   17  C18 UNL     1      19.546  -0.711  53.486  1.00  0.00     0.124 C 
BRANCH  15  18
HETATM   18  O1  UNL     1      15.998  -0.656  53.455  1.00  0.00    -0.394 OA
HETATM   19  H19 UNL     1      16.132   0.330  53.509  1.00  0.00     0.210 HD
ENDBRANCH  15  18
ENDBRANCH   8   9
ENDBRANCH   5   7
BRANCH   1  20
HETATM   20  C6  UNL     1      26.784   0.848  51.789  1.00  0.00     0.068 C 
BRANCH  20  21
HETATM   21  C5  UNL     1      26.536   2.293  51.769  1.00  0.00     0.002 C 
BRANCH  21  22
HETATM   22  C4  UNL     1      26.007   2.847  50.694  1.00  0.00     0.037 C 
HETATM   23 CL1  UNL     1      24.283   2.879  50.388  1.00  0.00    -0.084 Cl
BRANCH  22  24
HETATM   24  C3  UNL     1      26.764   3.492  49.642  1.00  0.00     0.074 C 
BRANCH  24  25
HETATM   25  C2  UNL     1      26.390   4.672  49.197  1.00  0.00    -0.153 C 
HETATM   26  C1  UNL     1      26.250   5.939  48.839  1.00  0.00     0.096 C 
ENDBRANCH  24  25
ENDBRANCH  22  24
ENDBRANCH  21  22
ENDBRANCH  20  21
ENDBRANCH   1  20
TORSDOF 8
ENDMDL
MODEL 5
REMARK VINA RESULT:      -7.0      4.924      8.774
REMARK  8 active torsions:
REMARK  status: ('A' for Active; 'I' for Inactive)
REMARK    1  A    between atoms: C2_2  and  C3_3 
REMARK    2  A    between atoms: C3_3  and  C4_4 
REMARK    3  A    between atoms: C4_4  and  C5_6 
REMARK    4  A    between atoms: C5_6  and  C6_7 
REMARK    5  A    between atoms: C6_7  and  C7_8 
REMARK    6  A    between atoms: C10_12  and  C11_13 
REMARK    7  A    between atoms: C12_14  and  N2_15 
REMARK    8  A    between atoms: C16_20  and  O1_21 
ROOT
HETATM    1  C7  UNL     1      28.245   6.144  48.189  1.00  0.00    -0.036 A 
HETATM    2  C8  UNL     1      27.341   7.200  48.204  1.00  0.00     0.123 A 
HETATM    3  N1  UNL     1      26.082   7.002  48.654  1.00  0.00    -0.272 NA
HETATM    4  C9  UNL     1      25.706   5.770  49.088  1.00  0.00     0.127 A 
HETATM    5  C10 UNL     1      26.615   4.738  49.066  1.00  0.00    -0.017 A 
HETATM    6  C19 UNL     1      27.911   4.869  48.622  1.00  0.00     0.021 A 
ENDROOT
BRANCH   5   7
HETATM    7  C11 UNL     1      26.189   3.426  49.537  1.00  0.00     0.029 C 
HETATM    8  C12 UNL     1      26.082   3.132  50.822  1.00  0.00     0.086 C 
BRANCH   8   9
HETATM    9  N2  UNL     1      25.702   1.966  51.498  1.00  0.00    -0.388 N 
HETATM   10  C13 UNL     1      26.857   1.139  51.913  1.00  0.00     0.141 C 
HETATM   11  C14 UNL     1      26.724   0.401  53.223  1.00  0.00     0.133 C 
HETATM   12  N3  UNL     1      25.832  -0.661  53.332  1.00  0.00    -0.417 N 
HETATM   13  C15 UNL     1      24.693  -0.692  54.209  1.00  0.00     0.145 C 
HETATM   14  H15 UNL     1      26.163  -1.605  53.049  1.00  0.00     0.153 HD
HETATM   15  C16 UNL     1      23.446  -0.020  53.524  1.00  0.00     0.137 C 
HETATM   16  C17 UNL     1      24.033   0.881  52.632  1.00  0.00     0.053 C 
HETATM   17  C18 UNL     1      24.200   1.854  51.628  1.00  0.00     0.124 C 
BRANCH  15  18
HETATM   18  O1  UNL     1      22.757  -1.109  52.943  1.00  0.00    -0.394 OA
HETATM   19  H19 UNL     1      21.838  -0.813  52.693  1.00  0.00     0.210 HD
ENDBRANCH  15  18
ENDBRANCH   8   9
ENDBRANCH   5   7
BRANCH   1  20
HETATM   20  C6  UNL     1      29.589   6.492  47.675  1.00  0.00     0.068 C 
BRANCH  20  21
HETATM   21  C5  UNL     1      30.474   5.354  47.944  1.00  0.00     0.002 C 
BRANCH  21  22
HETATM   22  C4  UNL     1      31.751   5.432  47.615  1.00  0.00     0.037 C 
HETATM   23 CL1  UNL     1      32.893   6.453  48.463  1.00  0.00    -0.084 Cl
BRANCH  22  24
HETATM   24  C3  UNL     1      32.369   4.698  46.532  1.00  0.00     0.074 C 
BRANCH  24  25
HETATM   25  C2  UNL     1      32.250   3.389  46.478  1.00  0.00    -0.153 C 
HETATM   26  C1  UNL     1      32.185   2.082  46.681  1.00  0.00     0.096 C 
ENDBRANCH  24  25
ENDBRANCH  22  24
ENDBRANCH  21  22
ENDBRANCH  20  21
ENDBRANCH   1  20
TORSDOF 8
ENDMDL
MODEL 6
REMARK VINA RESULT:      -6.9      4.447      6.450
REMARK  8 active torsions:
REMARK  status: ('A' for Active; 'I' for Inactive)
REMARK    1  A    between atoms: C2_2  and  C3_3 
REMARK    2  A    between atoms: C3_3  and  C4_4 
REMARK    3  A    between atoms: C4_4  and  C5_6 
REMARK    4  A    between atoms: C5_6  and  C6_7 
REMARK    5  A    between atoms: C6_7  and  C7_8 
REMARK    6  A    between atoms: C10_12  and  C11_13 
REMARK    7  A    between atoms: C12_14  and  N2_15 
REMARK    8  A    between atoms: C16_20  and  O1_21 
ROOT
HETATM    1  C7  UNL     1      23.957  -0.640  54.279  1.00  0.00    -0.036 A 
HETATM    2  C8  UNL     1      23.232  -1.327  55.245  1.00  0.00     0.123 A 
HETATM    3  N1  UNL     1      21.903  -1.516  55.082  1.00  0.00    -0.272 NA
HETATM    4  C9  UNL     1      21.284  -1.034  53.973  1.00  0.00     0.127 A 
HETATM    5  C10 UNL     1      22.018  -0.356  53.027  1.00  0.00    -0.017 A 
HETATM    6  C19 UNL     1      23.371  -0.128  53.129  1.00  0.00     0.021 A 
ENDROOT
BRANCH   5   7
HETATM    7  C11 UNL     1      21.332   0.152  51.847  1.00  0.00     0.029 C 
HETATM    8  C12 UNL     1      21.942   0.888  50.931  1.00  0.00     0.086 C 
BRANCH   8   9
HETATM    9  N2  UNL     1      21.499   1.476  49.741  1.00  0.00    -0.388 N 
HETATM   10  C13 UNL     1      20.042   1.322  49.531  1.00  0.00     0.141 C 
HETATM   11  C14 UNL     1      19.332   2.469  48.853  1.00  0.00     0.133 C 
HETATM   12  N3  UNL     1      19.571   2.733  47.508  1.00  0.00    -0.417 N 
HETATM   13  C15 UNL     1      20.152   3.945  46.998  1.00  0.00     0.145 C 
HETATM   14  H15 UNL     1      19.009   2.214  46.803  1.00  0.00     0.153 HD
HETATM   15  C16 UNL     1      21.723   3.860  47.020  1.00  0.00     0.137 C 
HETATM   16  C17 UNL     1      21.968   2.960  48.060  1.00  0.00     0.053 C 
HETATM   17  C18 UNL     1      22.632   2.118  48.973  1.00  0.00     0.124 C 
BRANCH  15  18
HETATM   18  O1  UNL     1      22.051   3.412  45.720  1.00  0.00    -0.394 OA
HETATM   19  H19 UNL     1      23.025   3.206  45.686  1.00  0.00     0.210 HD
ENDBRANCH  15  18
ENDBRANCH   8   9
ENDBRANCH   5   7
BRANCH   1  20
HETATM   20  C6  UNL     1      25.401  -0.501  54.575  1.00  0.00     0.068 C 
BRANCH  20  21
HETATM   21  C5  UNL     1      26.138  -0.833  53.352  1.00  0.00     0.002 C 
BRANCH  21  22
HETATM   22  C4  UNL     1      27.322  -0.287  53.138  1.00  0.00     0.037 C 
HETATM   23 CL1  UNL     1      28.818  -1.193  53.222  1.00  0.00    -0.084 Cl
BRANCH  22  24
HETATM   24  C3  UNL     1      27.539   1.105  52.811  1.00  0.00     0.074 C 
BRANCH  24  25
HETATM   25  C2  UNL     1      26.791   1.687  51.900  1.00  0.00    -0.153 C 
HETATM   26  C1  UNL     1      26.259   2.405  50.922  1.00  0.00     0.096 C 
ENDBRANCH  24  25
ENDBRANCH  22  24
ENDBRANCH  21  22
ENDBRANCH  20  21
ENDBRANCH   1  20
TORSDOF 8
ENDMDL
MODEL 7
REMARK VINA RESULT:      -6.9      4.009      5.760
REMARK  8 active torsions:
REMARK  status: ('A' for Active; 'I' for Inactive)
REMARK    1  A    between atoms: C2_2  and  C3_3 
REMARK    2  A    between atoms: C3_3  and  C4_4 
REMARK    3  A    between atoms: C4_4  and  C5_6 
REMARK    4  A    between atoms: C5_6  and  C6_7 
REMARK    5  A    between atoms: C6_7  and  C7_8 
REMARK    6  A    between atoms: C10_12  and  C11_13 
REMARK    7  A    between atoms: C12_14  and  N2_15 
REMARK    8  A    between atoms: C16_20  and  O1_21 
ROOT
HETATM    1  C7  UNL     1      25.547   4.293  49.466  1.00  0.00    -0.036 A 
HETATM    2  C8  UNL     1      24.876   5.506  49.365  1.00  0.00     0.123 A 
HETATM    3  N1  UNL     1      25.525   6.597  48.897  1.00  0.00    -0.272 NA
HETATM    4  C9  UNL     1      26.829   6.500  48.529  1.00  0.00     0.127 A 
HETATM    5  C10 UNL     1      27.476   5.291  48.637  1.00  0.00    -0.017 A 
HETATM    6  C19 UNL     1      26.878   4.142  49.103  1.00  0.00     0.021 A 
ENDROOT
BRANCH   5   7
HETATM    7  C11 UNL     1      28.875   5.211  48.236  1.00  0.00     0.029 C 
HETATM    8  C12 UNL     1      29.723   6.212  48.411  1.00  0.00     0.086 C 
BRANCH   8   9
HETATM    9  N2  UNL     1      31.082   6.364  48.113  1.00  0.00    -0.388 N 
HETATM   10  C13 UNL     1      31.555   7.756  48.280  1.00  0.00     0.141 C 
HETATM   11  C14 UNL     1      32.967   7.934  48.784  1.00  0.00     0.133 C 
HETATM   12  N3  UNL     1      34.041   7.590  47.969  1.00  0.00    -0.417 N 
HETATM   13  C15 UNL     1      35.003   6.563  48.266  1.00  0.00     0.145 C 
HETATM   14  H15 UNL     1      34.391   8.303  47.298  1.00  0.00     0.153 HD
HETATM   15  C16 UNL     1      34.484   5.159  47.777  1.00  0.00     0.137 C 
HETATM   16  C17 UNL     1      33.096   5.312  47.819  1.00  0.00     0.053 C 
HETATM   17  C18 UNL     1      31.717   5.058  47.694  1.00  0.00     0.124 C 
BRANCH  15  18
HETATM   18  O1  UNL     1      35.055   5.022  46.492  1.00  0.00    -0.394 OA
HETATM   19  H19 UNL     1      36.038   5.176  46.558  1.00  0.00     0.210 HD
ENDBRANCH  15  18
ENDBRANCH   8   9
ENDBRANCH   5   7
BRANCH   1  20
HETATM   20  C6  UNL     1      24.726   3.178  49.990  1.00  0.00     0.068 C 
BRANCH  20  21
HETATM   21  C5  UNL     1      24.935   3.117  51.440  1.00  0.00     0.002 C 
BRANCH  21  22
HETATM   22  C4  UNL     1      25.318   1.982  51.995  1.00  0.00     0.037 C 
HETATM   23 CL1  UNL     1      24.259   0.999  52.985  1.00  0.00    -0.084 Cl
BRANCH  22  24
HETATM   24  C3  UNL     1      26.639   1.406  51.864  1.00  0.00     0.074 C 
BRANCH  24  25
HETATM   25  C2  UNL     1      27.603   1.791  52.671  1.00  0.00    -0.153 C 
HETATM   26  C1  UNL     1      28.421   2.391  53.523  1.00  0.00     0.096 C 
ENDBRANCH  24  25
ENDBRANCH  22  24
ENDBRANCH  21  22
ENDBRANCH  20  21
ENDBRANCH   1  20
TORSDOF 8
ENDMDL
MODEL 8
REMARK VINA RESULT:      -6.8      3.054      4.028
REMARK  8 active torsions:
REMARK  status: ('A' for Active; 'I' for Inactive)
REMARK    1  A    between atoms: C2_2  and  C3_3 
REMARK    2  A    between atoms: C3_3  and  C4_4 
REMARK    3  A    between atoms: C4_4  and  C5_6 
REMARK    4  A    between atoms: C5_6  and  C6_7 
REMARK    5  A    between atoms: C6_7  and  C7_8 
REMARK    6  A    between atoms: C10_12  and  C11_13 
REMARK    7  A    between atoms: C12_14  and  N2_15 
REMARK    8  A    between atoms: C16_20  and  O1_21 
ROOT
HETATM    1  C7  UNL     1      25.389   1.764  51.518  1.00  0.00    -0.036 A 
HETATM    2  C8  UNL     1      24.043   2.027  51.292  1.00  0.00     0.123 A 
HETATM    3  N1  UNL     1      23.684   2.970  50.392  1.00  0.00    -0.272 NA
HETATM    4  C9  UNL     1      24.641   3.654  49.713  1.00  0.00     0.127 A 
HETATM    5  C10 UNL     1      25.968   3.380  49.951  1.00  0.00    -0.017 A 
HETATM    6  C19 UNL     1      26.404   2.435  50.852  1.00  0.00     0.021 A 
ENDROOT
BRANCH   5   7
HETATM    7  C11 UNL     1      26.977   4.127  49.212  1.00  0.00     0.029 C 
HETATM    8  C12 UNL     1      26.825   5.402  48.891  1.00  0.00     0.086 C 
BRANCH   8   9
HETATM    9  N2  UNL     1      27.639   6.307  48.200  1.00  0.00    -0.388 N 
HETATM   10  C13 UNL     1      26.908   7.515  47.757  1.00  0.00     0.141 C 
HETATM   11  C14 UNL     1      27.679   8.814  47.767  1.00  0.00     0.133 C 
HETATM   12  N3  UNL     1      28.709   9.013  46.854  1.00  0.00    -0.417 N 
HETATM   13  C15 UNL     1      30.090   9.211  47.202  1.00  0.00     0.145 C 
HETATM   14  H15 UNL     1      28.461   9.385  45.914  1.00  0.00     0.153 HD
HETATM   15  C16 UNL     1      30.823   7.828  47.371  1.00  0.00     0.137 C 
HETATM   16  C17 UNL     1      29.782   6.971  47.737  1.00  0.00     0.053 C 
HETATM   17  C18 UNL     1      29.063   5.812  48.085  1.00  0.00     0.124 C 
BRANCH  15  18
HETATM   18  O1  UNL     1      31.400   7.599  46.101  1.00  0.00    -0.394 OA
HETATM   19  H19 UNL     1      30.765   7.909  45.398  1.00  0.00     0.210 HD
ENDBRANCH  15  18
ENDBRANCH   8   9
ENDBRANCH   5   7
BRANCH   1  20
HETATM   20  C6  UNL     1      25.649   0.710  52.526  1.00  0.00     0.068 C 
BRANCH  20  21
HETATM   21  C5  UNL     1      26.127   1.371  53.744  1.00  0.00     0.002 C 
BRANCH  21  22
HETATM   22  C4  UNL     1      27.409   1.309  54.057  1.00  0.00     0.037 C 
HETATM   23 CL1  UNL     1      28.554   2.567  53.640  1.00  0.00    -0.084 Cl
BRANCH  22  24
HETATM   24  C3  UNL     1      28.030   0.215  54.772  1.00  0.00     0.074 C 
BRANCH  24  25
HETATM   25  C2  UNL     1      29.038  -0.433  54.230  1.00  0.00    -0.153 C 
HETATM   26  C1  UNL     1      29.999  -0.937  53.470  1.00  0.00     0.096 C 
ENDBRANCH  24  25
ENDBRANCH  22  24
ENDBRANCH  21  22
ENDBRANCH  20  21
ENDBRANCH   1  20
TORSDOF 8
ENDMDL
MODEL 9
REMARK VINA RESULT:      -6.8      4.067      5.844
REMARK  8 active torsions:
REMARK  status: ('A' for Active; 'I' for Inactive)
REMARK    1  A    between atoms: C2_2  and  C3_3 
REMARK    2  A    between atoms: C3_3  and  C4_4 
REMARK    3  A    between atoms: C4_4  and  C5_6 
REMARK    4  A    between atoms: C5_6  and  C6_7 
REMARK    5  A    between atoms: C6_7  and  C7_8 
REMARK    6  A    between atoms: C10_12  and  C11_13 
REMARK    7  A    between atoms: C12_14  and  N2_15 
REMARK    8  A    between atoms: C16_20  and  O1_21 
ROOT
HETATM    1  C7  UNL     1      25.818   4.343  49.283  1.00  0.00    -0.036 A 
HETATM    2  C8  UNL     1      24.740   5.202  49.100  1.00  0.00     0.123 A 
HETATM    3  N1  UNL     1      24.944   6.439  48.594  1.00  0.00    -0.272 NA
HETATM    4  C9  UNL     1      26.201   6.836  48.267  1.00  0.00     0.127 A 
HETATM    5  C10 UNL     1      27.255   5.973  48.455  1.00  0.00    -0.017 A 
HETATM    6  C19 UNL     1      27.120   4.701  48.965  1.00  0.00     0.021 A 
ENDROOT
BRANCH   5   7
HETATM    7  C11 UNL     1      28.595   6.421  48.098  1.00  0.00     0.029 C 
HETATM    8  C12 UNL     1      29.662   5.651  48.233  1.00  0.00     0.086 C 
BRANCH   8   9
HETATM    9  N2  UNL     1      31.019   5.859  47.962  1.00  0.00    -0.388 N 
HETATM   10  C13 UNL     1      31.457   7.244  48.247  1.00  0.00     0.141 C 
HETATM   11  C14 UNL     1      32.859   7.415  48.778  1.00  0.00     0.133 C 
HETATM   12  N3  UNL     1      33.948   7.164  47.949  1.00  0.00    -0.417 N 
HETATM   13  C15 UNL     1      34.933   6.140  48.171  1.00  0.00     0.145 C 
HETATM   14  H15 UNL     1      34.285   7.938  47.342  1.00  0.00     0.153 HD
HETATM   15  C16 UNL     1      34.453   4.769  47.564  1.00  0.00     0.137 C 
HETATM   16  C17 UNL     1      33.061   4.885  47.604  1.00  0.00     0.053 C 
HETATM   17  C18 UNL     1      31.690   4.607  47.444  1.00  0.00     0.124 C 
BRANCH  15  18
HETATM   18  O1  UNL     1      35.038   4.751  46.278  1.00  0.00    -0.394 OA
HETATM   19  H19 UNL     1      36.024   4.635  46.373  1.00  0.00     0.210 HD
ENDBRANCH  15  18
ENDBRANCH   8   9
ENDBRANCH   5   7
BRANCH   1  20
HETATM   20  C6  UNL     1      25.462   3.019  49.842  1.00  0.00     0.068 C 
BRANCH  20  21
HETATM   21  C5  UNL     1      25.385   3.160  51.300  1.00  0.00     0.002 C 
BRANCH  21  22
HETATM   22  C4  UNL     1      25.922   2.233  52.072  1.00  0.00     0.037 C 
HETATM   23 CL1  UNL     1      25.697   2.192  53.808  1.00  0.00    -0.084 Cl
BRANCH  22  24
HETATM   24  C3  UNL     1      26.752   1.147  51.599  1.00  0.00     0.074 C 
BRANCH  24  25
HETATM   25  C2  UNL     1      26.585  -0.063  52.086  1.00  0.00    -0.153 C 
HETATM   26  C1  UNL     1      26.597  -1.206  52.755  1.00  0.00     0.096 C 
ENDBRANCH  24  25
ENDBRANCH  22  24
ENDBRANCH  21  22
ENDBRANCH  20  21
ENDBRANCH   1  20
TORSDOF 8
ENDMDL
