MODEL 1
REMARK VINA RESULT:      -7.3      0.000      0.000
REMARK  4 active torsions:
REMARK  status: ('A' for Active; 'I' for Inactive)
REMARK    1  A    between atoms: O1_2  and  C2_3 
REMARK    2  A    between atoms: C6_9  and  N3_10 
REMARK    3  A    between atoms: N3_10  and  C7_11 
REMARK    4  A    between atoms: C15_20  and  O2_21 
ROOT
HETATM    1  C2  UNL     1      27.574   0.845  53.322  1.00  0.00     0.103 A 
HETATM    2  C3  UNL     1      26.980  -0.007  54.222  1.00  0.00     0.072 A 
HETATM    3  C4  UNL     1      25.612  -0.298  54.339  1.00  0.00     0.075 A 
HETATM    4  N1  UNL     1      25.123  -1.142  55.266  1.00  0.00    -0.241 NA
HETATM    5  C5  UNL     1      23.827  -1.383  55.358  1.00  0.00     0.236 A 
HETATM    6  N2  UNL     1      23.006  -0.761  54.490  1.00  0.00    -0.224 NA
HETATM    7  C6  UNL     1      23.462   0.085  53.554  1.00  0.00     0.141 A 
HETATM    8  C13 UNL     1      24.809   0.382  53.409  1.00  0.00     0.042 A 
HETATM    9  C14 UNL     1      25.337   1.239  52.492  1.00  0.00     0.057 A 
HETATM   10  C15 UNL     1      26.688   1.453  52.466  1.00  0.00     0.102 A 
ENDROOT
BRANCH   7  11
HETATM   11  N3  UNL     1      22.538   0.645  52.718  1.00  0.00    -0.343 N 
HETATM   12  H6  UNL     1      22.152   1.395  53.387  1.00  0.00     0.167 HD
BRANCH  11  13
HETATM   13  C7  UNL     1      21.593   1.216  51.862  1.00  0.00     0.026 C 
HETATM   14  C8  UNL     1      21.003   2.428  51.958  1.00  0.00     0.018 C 
HETATM   15  C9  UNL     1      21.572   3.231  51.030  1.00  0.00     0.023 C 
HETATM   16 BR1  UNL     1      21.572   5.084  51.357  1.00  0.00    -0.050 Br
HETATM   17  C10 UNL     1      22.161   2.590  49.824  1.00  0.00     0.016 C 
HETATM   18  C11 UNL     1      21.970   1.280  49.535  1.00  0.00    -0.019 C 
HETATM   19  C12 UNL     1      21.088   0.607  50.602  1.00  0.00     0.085 C 
ENDBRANCH  11  13
ENDBRANCH   7  11
BRANCH  10  20
HETATM   20  O2  UNL     1      27.248   2.323  51.548  1.00  0.00    -0.353 OA
HETATM   21  C16 UNL     1      26.489   3.016  50.602  1.00  0.00     0.210 C 
ENDBRANCH  10  20
BRANCH   1  22
HETATM   22  O1  UNL     1      28.946   1.030  53.331  1.00  0.00    -0.353 OA
HETATM   23  C1  UNL     1      29.764  -0.087  53.639  1.00  0.00     0.210 C 
ENDBRANCH   1  22
TORSDOF 4
ENDMDL
MODEL 2
REMARK VINA RESULT:      -7.3      2.440      3.860
REMARK  4 active torsions:
REMARK  status: ('A' for Active; 'I' for Inactive)
REMARK    1  A    between atoms: O1_2  and  C2_3 
REMARK    2  A    between atoms: C6_9  and  N3_10 
REMARK    3  A    between atoms: N3_10  and  C7_11 
REMARK    4  A    between atoms: C15_20  and  O2_21 
ROOT
HETATM    1  C2  UNL     1      27.368   0.189  53.783  1.00  0.00     0.103 A 
HETATM    2  C3  UNL     1      27.669   1.195  52.896  1.00  0.00     0.072 A 
HETATM    3  C4  UNL     1      26.788   1.843  52.018  1.00  0.00     0.075 A 
HETATM    4  N1  UNL     1      27.183   2.814  51.174  1.00  0.00    -0.241 NA
HETATM    5  C5  UNL     1      26.329   3.394  50.349  1.00  0.00     0.236 A 
HETATM    6  N2  UNL     1      25.045   2.987  50.380  1.00  0.00    -0.224 NA
HETATM    7  C6  UNL     1      24.620   2.023  51.209  1.00  0.00     0.141 A 
HETATM    8  C13 UNL     1      25.467   1.373  52.095  1.00  0.00     0.042 A 
HETATM    9  C14 UNL     1      25.105   0.380  52.953  1.00  0.00     0.057 A 
HETATM   10  C15 UNL     1      26.047  -0.187  53.767  1.00  0.00     0.102 A 
ENDROOT
BRANCH   7  11
HETATM   11  N3  UNL     1      23.292   1.705  51.164  1.00  0.00    -0.343 N 
HETATM   12  H6  UNL     1      22.892   2.703  51.108  1.00  0.00     0.167 HD
BRANCH  11  13
HETATM   13  C7  UNL     1      21.935   1.378  51.119  1.00  0.00     0.026 C 
HETATM   14  C8  UNL     1      21.337   0.229  51.505  1.00  0.00     0.018 C 
HETATM   15  C9  UNL     1      20.711   0.474  52.679  1.00  0.00     0.023 C 
HETATM   16 BR1  UNL     1      20.446  -0.977  53.849  1.00  0.00    -0.050 Br
HETATM   17  C10 UNL     1      20.285   1.870  52.962  1.00  0.00     0.016 C 
HETATM   18  C11 UNL     1      20.320   2.842  52.019  1.00  0.00    -0.019 C 
HETATM   19  C12 UNL     1      20.841   2.288  50.682  1.00  0.00     0.085 C 
ENDBRANCH  11  13
ENDBRANCH   7  11
BRANCH  10  20
HETATM   20  O2  UNL     1      25.705  -1.201  54.643  1.00  0.00    -0.353 OA
HETATM   21  C16 UNL     1      24.527  -1.189  55.392  1.00  0.00     0.210 C 
ENDBRANCH  10  20
BRANCH   1  22
HETATM   22  O1  UNL     1      28.354  -0.354  54.589  1.00  0.00    -0.353 OA
HETATM   23  C1  UNL     1      29.548  -0.802  53.969  1.00  0.00     0.210 C 
ENDBRANCH   1  22
TORSDOF 4
ENDMDL
MODEL 3
REMARK VINA RESULT:      -7.3      1.495      1.943
REMARK  4 active torsions:
REMARK  status: ('A' for Active; 'I' for Inactive)
REMARK    1  A    between atoms: O1_2  and  C2_3 
REMARK    2  A    between atoms: C6_9  and  N3_10 
REMARK    3  A    between atoms: N3_10  and  C7_11 
REMARK    4  A    between atoms: C15_20  and  O2_21 
ROOT
HETATM    1  C2  UNL     1      27.569   0.817  53.740  1.00  0.00     0.103 A 
HETATM    2  C3  UNL     1      26.907  -0.022  54.603  1.00  0.00     0.072 A 
HETATM    3  C4  UNL     1      25.543  -0.352  54.587  1.00  0.00     0.075 A 
HETATM    4  N1  UNL     1      24.982  -1.178  55.488  1.00  0.00    -0.241 NA
HETATM    5  C5  UNL     1      23.690  -1.457  55.452  1.00  0.00     0.236 A 
HETATM    6  N2  UNL     1      22.949  -0.890  54.481  1.00  0.00    -0.224 NA
HETATM    7  C6  UNL     1      23.479  -0.062  53.567  1.00  0.00     0.141 A 
HETATM    8  C13 UNL     1      24.825   0.272  53.553  1.00  0.00     0.042 A 
HETATM    9  C14 UNL     1      25.423   1.113  52.666  1.00  0.00     0.057 A 
HETATM   10  C15 UNL     1      26.762   1.368  52.774  1.00  0.00     0.102 A 
ENDROOT
BRANCH   7  11
HETATM   11  N3  UNL     1      22.633   0.440  52.619  1.00  0.00    -0.343 N 
HETATM   12  H6  UNL     1      21.819   0.721  53.265  1.00  0.00     0.167 HD
BRANCH  11  13
HETATM   13  C7  UNL     1      21.770   0.953  51.648  1.00  0.00     0.026 C 
HETATM   14  C8  UNL     1      20.716   0.345  51.060  1.00  0.00     0.018 C 
HETATM   15  C9  UNL     1      19.592   0.871  51.600  1.00  0.00     0.023 C 
HETATM   16 BR1  UNL     1      18.042  -0.197  51.609  1.00  0.00    -0.050 Br
HETATM   17  C10 UNL     1      19.666   2.250  52.152  1.00  0.00     0.016 C 
HETATM   18  C11 UNL     1      20.739   3.052  51.952  1.00  0.00    -0.019 C 
HETATM   19  C12 UNL     1      21.806   2.338  51.104  1.00  0.00     0.085 C 
ENDBRANCH  11  13
ENDBRANCH   7  11
BRANCH  10  20
HETATM   20  O2  UNL     1      27.393   2.223  51.888  1.00  0.00    -0.353 OA
HETATM   21  C16 UNL     1      26.707   2.915  50.888  1.00  0.00     0.210 C 
ENDBRANCH  10  20
BRANCH   1  22
HETATM   22  O1  UNL     1      28.927   1.044  53.886  1.00  0.00    -0.353 OA
HETATM   23  C1  UNL     1      29.816  -0.011  53.558  1.00  0.00     0.210 C 
ENDBRANCH   1  22
TORSDOF 4
ENDMDL
MODEL 4
REMARK VINA RESULT:      -7.1      2.106      3.467
REMARK  4 active torsions:
REMARK  status: ('A' for Active; 'I' for Inactive)
REMARK    1  A    between atoms: O1_2  and  C2_3 
REMARK    2  A    between atoms: C6_9  and  N3_10 
REMARK    3  A    between atoms: N3_10  and  C7_11 
REMARK    4  A    between atoms: C15_20  and  O2_21 
ROOT
HETATM    1  C2  UNL     1      27.242  -0.153  53.666  1.00  0.00     0.103 A 
HETATM    2  C3  UNL     1      27.510   0.802  52.714  1.00  0.00     0.072 A 
HETATM    3  C4  UNL     1      26.587   1.635  52.065  1.00  0.00     0.075 A 
HETATM    4  N1  UNL     1      26.948   2.535  51.133  1.00  0.00    -0.241 NA
HETATM    5  C5  UNL     1      26.051   3.296  50.530  1.00  0.00     0.236 A 
HETATM    6  N2  UNL     1      24.759   3.146  50.880  1.00  0.00    -0.224 NA
HETATM    7  C6  UNL     1      24.367   2.258  51.806  1.00  0.00     0.141 A 
HETATM    8  C13 UNL     1      25.258   1.430  52.471  1.00  0.00     0.042 A 
HETATM    9  C14 UNL     1      24.928   0.501  53.410  1.00  0.00     0.057 A 
HETATM   10  C15 UNL     1      25.908  -0.263  53.980  1.00  0.00     0.102 A 
ENDROOT
BRANCH   7  11
HETATM   11  N3  UNL     1      23.032   2.206  52.092  1.00  0.00    -0.343 N 
HETATM   12  H6  UNL     1      22.678   2.866  51.318  1.00  0.00     0.167 HD
BRANCH  11  13
HETATM   13  C7  UNL     1      21.667   2.152  52.385  1.00  0.00     0.026 C 
HETATM   14  C8  UNL     1      20.735   3.115  52.210  1.00  0.00     0.018 C 
HETATM   15  C9  UNL     1      19.993   2.770  51.133  1.00  0.00     0.023 C 
HETATM   16 BR1  UNL     1      19.159   4.152  50.165  1.00  0.00    -0.050 Br
HETATM   17  C10 UNL     1      19.896   1.326  50.790  1.00  0.00     0.016 C 
HETATM   18  C11 UNL     1      20.348   0.354  51.618  1.00  0.00    -0.019 C 
HETATM   19  C12 UNL     1      20.941   0.961  52.902  1.00  0.00     0.085 C 
ENDBRANCH  11  13
ENDBRANCH   7  11
BRANCH  10  20
HETATM   20  O2  UNL     1      25.597  -1.217  54.932  1.00  0.00    -0.353 OA
HETATM   21  C16 UNL     1      24.366  -1.256  55.589  1.00  0.00     0.210 C 
ENDBRANCH  10  20
BRANCH   1  22
HETATM   22  O1  UNL     1      28.267  -0.901  54.219  1.00  0.00    -0.353 OA
HETATM   23  C1  UNL     1      29.553  -0.803  53.629  1.00  0.00     0.210 C 
ENDBRANCH   1  22
TORSDOF 4
ENDMDL
MODEL 5
REMARK VINA RESULT:      -6.9      1.092      1.235
REMARK  4 active torsions:
REMARK  status: ('A' for Active; 'I' for Inactive)
REMARK    1  A    between atoms: O1_2  and  C2_3 
REMARK    2  A    between atoms: C6_9  and  N3_10 
REMARK    3  A    between atoms: N3_10  and  C7_11 
REMARK    4  A    between atoms: C15_20  and  O2_21 
ROOT
HETATM    1  C2  UNL     1      27.151   1.367  52.917  1.00  0.00     0.103 A 
HETATM    2  C3  UNL     1      26.413   0.500  53.687  1.00  0.00     0.072 A 
HETATM    3  C4  UNL     1      25.052   0.189  53.545  1.00  0.00     0.075 A 
HETATM    4  N1  UNL     1      24.412  -0.668  54.361  1.00  0.00    -0.241 NA
HETATM    5  C5  UNL     1      23.125  -0.929  54.208  1.00  0.00     0.236 A 
HETATM    6  N2  UNL     1      22.471  -0.312  53.205  1.00  0.00    -0.224 NA
HETATM    7  C6  UNL     1      23.081   0.546  52.374  1.00  0.00     0.141 A 
HETATM    8  C13 UNL     1      24.426   0.864  52.484  1.00  0.00     0.042 A 
HETATM    9  C14 UNL     1      25.103   1.734  51.685  1.00  0.00     0.057 A 
HETATM   10  C15 UNL     1      26.431   1.968  51.913  1.00  0.00     0.102 A 
ENDROOT
BRANCH   7  11
HETATM   11  N3  UNL     1      22.320   1.098  51.382  1.00  0.00    -0.343 N 
HETATM   12  H6  UNL     1      22.454   0.333  50.636  1.00  0.00     0.167 HD
BRANCH  11  13
HETATM   13  C7  UNL     1      21.543   1.663  50.369  1.00  0.00     0.026 C 
HETATM   14  C8  UNL     1      20.759   2.762  50.430  1.00  0.00     0.018 C 
HETATM   15  C9  UNL     1      21.406   3.757  49.781  1.00  0.00     0.023 C 
HETATM   16 BR1  UNL     1      21.024   5.528  50.292  1.00  0.00    -0.050 Br
HETATM   17  C10 UNL     1      22.376   3.379  48.719  1.00  0.00     0.016 C 
HETATM   18  C11 UNL     1      22.478   2.112  48.251  1.00  0.00    -0.019 C 
HETATM   19  C12 UNL     1      21.477   1.184  48.961  1.00  0.00     0.085 C 
ENDBRANCH  11  13
ENDBRANCH   7  11
BRANCH  10  20
HETATM   20  O2  UNL     1      27.140   2.851  51.118  1.00  0.00    -0.353 OA
HETATM   21  C16 UNL     1      26.571   3.507  50.024  1.00  0.00     0.210 C 
ENDBRANCH  10  20
BRANCH   1  22
HETATM   22  O1  UNL     1      28.495   1.571  53.182  1.00  0.00    -0.353 OA
HETATM   23  C1  UNL     1      29.178   0.588  53.943  1.00  0.00     0.210 C 
ENDBRANCH   1  22
TORSDOF 4
ENDMDL
MODEL 6
REMARK VINA RESULT:      -6.8      3.649      6.941
REMARK  4 active torsions:
REMARK  status: ('A' for Active; 'I' for Inactive)
REMARK    1  A    between atoms: O1_2  and  C2_3 
REMARK    2  A    between atoms: C6_9  and  N3_10 
REMARK    3  A    between atoms: N3_10  and  C7_11 
REMARK    4  A    between atoms: C15_20  and  O2_21 
ROOT
HETATM    1  C2  UNL     1      20.304   2.782  52.077  1.00  0.00     0.103 A 
HETATM    2  C3  UNL     1      21.034   3.544  51.197  1.00  0.00     0.072 A 
HETATM    3  C4  UNL     1      22.396   3.412  50.888  1.00  0.00     0.075 A 
HETATM    4  N1  UNL     1      23.028   4.219  50.017  1.00  0.00    -0.241 NA
HETATM    5  C5  UNL     1      24.317   4.076  49.760  1.00  0.00     0.236 A 
HETATM    6  N2  UNL     1      24.981   3.091  50.394  1.00  0.00    -0.224 NA
HETATM    7  C6  UNL     1      24.380   2.269  51.267  1.00  0.00     0.141 A 
HETATM    8  C13 UNL     1      23.033   2.370  51.583  1.00  0.00     0.042 A 
HETATM    9  C14 UNL     1      22.365   1.579  52.467  1.00  0.00     0.057 A 
HETATM   10  C15 UNL     1      21.034   1.797  52.696  1.00  0.00     0.102 A 
ENDROOT
BRANCH   7  11
HETATM   11  N3  UNL     1      25.151   1.295  51.837  1.00  0.00    -0.343 N 
HETATM   12  H6  UNL     1      24.488   1.018  52.640  1.00  0.00     0.167 HD
BRANCH  11  13
HETATM   13  C7  UNL     1      25.939   0.300  52.419  1.00  0.00     0.026 C 
HETATM   14  C8  UNL     1      27.284   0.271  52.556  1.00  0.00     0.018 C 
HETATM   15  C9  UNL     1      27.563   0.532  53.854  1.00  0.00     0.023 C 
HETATM   16 BR1  UNL     1      29.233   1.304  54.252  1.00  0.00    -0.050 Br
HETATM   17  C10 UNL     1      26.529   0.196  54.869  1.00  0.00     0.016 C 
HETATM   18  C11 UNL     1      25.427  -0.531  54.566  1.00  0.00    -0.019 C 
HETATM   19  C12 UNL     1      25.429  -0.932  53.080  1.00  0.00     0.085 C 
ENDBRANCH  11  13
ENDBRANCH   7  11
BRANCH  10  20
HETATM   20  O2  UNL     1      20.334   1.011  53.593  1.00  0.00    -0.353 OA
HETATM   21  C16 UNL     1      20.961   0.258  54.588  1.00  0.00     0.210 C 
ENDBRANCH  10  20
BRANCH   1  22
HETATM   22  O1  UNL     1      18.957   3.037  52.276  1.00  0.00    -0.353 OA
HETATM   23  C1  UNL     1      18.254   3.728  51.256  1.00  0.00     0.210 C 
ENDBRANCH   1  22
TORSDOF 4
ENDMDL
MODEL 7
REMARK VINA RESULT:      -6.7      2.011      2.812
REMARK  4 active torsions:
REMARK  status: ('A' for Active; 'I' for Inactive)
REMARK    1  A    between atoms: O1_2  and  C2_3 
REMARK    2  A    between atoms: C6_9  and  N3_10 
REMARK    3  A    between atoms: N3_10  and  C7_11 
REMARK    4  A    between atoms: C15_20  and  O2_21 
ROOT
HETATM    1  C2  UNL     1      27.063  -0.134  53.609  1.00  0.00     0.103 A 
HETATM    2  C3  UNL     1      25.820  -0.706  53.733  1.00  0.00     0.072 A 
HETATM    3  C4  UNL     1      24.615  -0.243  53.185  1.00  0.00     0.075 A 
HETATM    4  N1  UNL     1      23.439  -0.870  53.374  1.00  0.00    -0.241 NA
HETATM    5  C5  UNL     1      22.319  -0.399  52.855  1.00  0.00     0.236 A 
HETATM    6  N2  UNL     1      22.388   0.731  52.124  1.00  0.00    -0.224 NA
HETATM    7  C6  UNL     1      23.544   1.379  51.917  1.00  0.00     0.141 A 
HETATM    8  C13 UNL     1      24.752   0.938  52.437  1.00  0.00     0.042 A 
HETATM    9  C14 UNL     1      25.956   1.553  52.276  1.00  0.00     0.057 A 
HETATM   10  C15 UNL     1      27.071   1.016  52.857  1.00  0.00     0.102 A 
ENDROOT
BRANCH   7  11
HETATM   11  N3  UNL     1      23.495   2.505  51.145  1.00  0.00    -0.343 N 
HETATM   12  H6  UNL     1      24.298   3.052  51.612  1.00  0.00     0.167 HD
BRANCH  11  13
HETATM   13  C7  UNL     1      23.445   3.656  50.355  1.00  0.00     0.026 C 
HETATM   14  C8  UNL     1      23.494   3.749  49.008  1.00  0.00     0.018 C 
HETATM   15  C9  UNL     1      22.241   4.020  48.575  1.00  0.00     0.023 C 
HETATM   16 BR1  UNL     1      21.781   3.481  46.831  1.00  0.00    -0.050 Br
HETATM   17  C10 UNL     1      21.318   4.717  49.510  1.00  0.00     0.016 C 
HETATM   18  C11 UNL     1      21.743   5.257  50.678  1.00  0.00    -0.019 C 
HETATM   19  C12 UNL     1      23.256   5.043  50.860  1.00  0.00     0.085 C 
ENDBRANCH  11  13
ENDBRANCH   7  11
BRANCH  10  20
HETATM   20  O2  UNL     1      28.305   1.625  52.714  1.00  0.00    -0.353 OA
HETATM   21  C16 UNL     1      28.819   2.522  53.652  1.00  0.00     0.210 C 
ENDBRANCH  10  20
BRANCH   1  22
HETATM   22  O1  UNL     1      28.167  -0.713  54.213  1.00  0.00    -0.353 OA
HETATM   23  C1  UNL     1      28.997  -1.545  53.419  1.00  0.00     0.210 C 
ENDBRANCH   1  22
TORSDOF 4
ENDMDL
MODEL 8
REMARK VINA RESULT:      -6.7      2.694      4.276
REMARK  4 active torsions:
REMARK  status: ('A' for Active; 'I' for Inactive)
REMARK    1  A    between atoms: O1_2  and  C2_3 
REMARK    2  A    between atoms: C6_9  and  N3_10 
REMARK    3  A    between atoms: N3_10  and  C7_11 
REMARK    4  A    between atoms: C15_20  and  O2_21 
ROOT
HETATM    1  C2  UNL     1      25.563   3.758  50.087  1.00  0.00     0.103 A 
HETATM    2  C3  UNL     1      26.377   2.726  50.490  1.00  0.00     0.072 A 
HETATM    3  C4  UNL     1      26.048   1.676  51.360  1.00  0.00     0.075 A 
HETATM    4  N1  UNL     1      26.923   0.714  51.706  1.00  0.00    -0.241 NA
HETATM    5  C5  UNL     1      26.583  -0.254  52.540  1.00  0.00     0.236 A 
HETATM    6  N2  UNL     1      25.330  -0.251  53.033  1.00  0.00    -0.224 NA
HETATM    7  C6  UNL     1      24.435   0.692  52.708  1.00  0.00     0.141 A 
HETATM    8  C13 UNL     1      24.730   1.735  51.842  1.00  0.00     0.042 A 
HETATM    9  C14 UNL     1      23.874   2.731  51.480  1.00  0.00     0.057 A 
HETATM   10  C15 UNL     1      24.300   3.709  50.624  1.00  0.00     0.102 A 
ENDROOT
BRANCH   7  11
HETATM   11  N3  UNL     1      23.188   0.583  53.256  1.00  0.00    -0.343 N 
HETATM   12  H6  UNL     1      23.329  -0.345  53.785  1.00  0.00     0.167 HD
BRANCH  11  13
HETATM   13  C7  UNL     1      21.914   0.472  53.817  1.00  0.00     0.026 C 
HETATM   14  C8  UNL     1      20.749   0.977  53.353  1.00  0.00     0.018 C 
HETATM   15  C9  UNL     1      20.044  -0.050  52.825  1.00  0.00     0.023 C 
HETATM   16 BR1  UNL     1      18.801   0.347  51.469  1.00  0.00    -0.050 Br
HETATM   17  C10 UNL     1      20.308  -1.417  53.350  1.00  0.00     0.016 C 
HETATM   18  C11 UNL     1      21.064  -1.634  54.453  1.00  0.00    -0.019 C 
HETATM   19  C12 UNL     1      21.571  -0.305  55.039  1.00  0.00     0.085 C 
ENDBRANCH  11  13
ENDBRANCH   7  11
BRANCH  10  20
HETATM   20  O2  UNL     1      23.452   4.735  50.246  1.00  0.00    -0.353 OA
HETATM   21  C16 UNL     1      22.744   5.509  51.167  1.00  0.00     0.210 C 
ENDBRANCH  10  20
BRANCH   1  22
HETATM   22  O1  UNL     1      26.036   4.726  49.217  1.00  0.00    -0.353 OA
HETATM   23  C1  UNL     1      27.397   4.658  48.824  1.00  0.00     0.210 C 
ENDBRANCH   1  22
TORSDOF 4
ENDMDL
MODEL 9
REMARK VINA RESULT:      -6.5      1.856      2.252
REMARK  4 active torsions:
REMARK  status: ('A' for Active; 'I' for Inactive)
REMARK    1  A    between atoms: O1_2  and  C2_3 
REMARK    2  A    between atoms: C6_9  and  N3_10 
REMARK    3  A    between atoms: N3_10  and  C7_11 
REMARK    4  A    between atoms: C15_20  and  O2_21 
ROOT
HETATM    1  C2  UNL     1      26.020  -0.312  52.831  1.00  0.00     0.103 A 
HETATM    2  C3  UNL     1      25.010  -0.870  53.577  1.00  0.00     0.072 A 
HETATM    3  C4  UNL     1      23.692  -0.406  53.701  1.00  0.00     0.075 A 
HETATM    4  N1  UNL     1      22.773  -1.019  54.471  1.00  0.00    -0.241 NA
HETATM    5  C5  UNL     1      21.543  -0.547  54.576  1.00  0.00     0.236 A 
HETATM    6  N2  UNL     1      21.233   0.567  53.886  1.00  0.00    -0.224 NA
HETATM    7  C6  UNL     1      22.125   1.200  53.110  1.00  0.00     0.141 A 
HETATM    8  C13 UNL     1      23.431   0.758  52.961  1.00  0.00     0.042 A 
HETATM    9  C14 UNL     1      24.389   1.358  52.202  1.00  0.00     0.057 A 
HETATM   10  C15 UNL     1      25.647   0.823  52.153  1.00  0.00     0.102 A 
ENDROOT
BRANCH   7  11
HETATM   11  N3  UNL     1      21.692   2.311  52.443  1.00  0.00    -0.343 N 
HETATM   12  H6  UNL     1      21.134   1.821  51.663  1.00  0.00     0.167 HD
BRANCH  11  13
HETATM   13  C7  UNL     1      21.250   3.448  51.763  1.00  0.00     0.026 C 
HETATM   14  C8  UNL     1      21.991   4.398  51.151  1.00  0.00     0.018 C 
HETATM   15  C9  UNL     1      21.893   4.191  49.817  1.00  0.00     0.023 C 
HETATM   16 BR1  UNL     1      23.314   4.781  48.733  1.00  0.00    -0.050 Br
HETATM   17  C10 UNL     1      20.674   3.508  49.307  1.00  0.00     0.016 C 
HETATM   18  C11 UNL     1      19.595   3.274  50.092  1.00  0.00    -0.019 C 
HETATM   19  C12 UNL     1      19.828   3.809  51.516  1.00  0.00     0.085 C 
ENDBRANCH  11  13
ENDBRANCH   7  11
BRANCH  10  20
HETATM   20  O2  UNL     1      26.639   1.417  51.394  1.00  0.00    -0.353 OA
HETATM   21  C16 UNL     1      26.507   2.694  50.843  1.00  0.00     0.210 C 
ENDBRANCH  10  20
BRANCH   1  22
HETATM   22  O1  UNL     1      27.279  -0.890  52.809  1.00  0.00    -0.353 OA
HETATM   23  C1  UNL     1      27.362  -2.290  52.598  1.00  0.00     0.210 C 
ENDBRANCH   1  22
TORSDOF 4
ENDMDL
