MODEL 1
REMARK VINA RESULT:      -8.2      0.000      0.000
REMARK  0 active torsions:
REMARK  status: ('A' for Active; 'I' for Inactive)
ROOT
HETATM    1  C1  UNL     1      18.765   0.381  51.808  1.00  0.00     0.180 C 
HETATM    2  N1  UNL     1      19.941   0.307  52.694  1.00  0.00    -0.274 N 
HETATM    3  N2  UNL     1      19.951   0.256  54.015  1.00  0.00    -0.184 NA
HETATM    4  C2  UNL     1      21.256   0.202  54.357  1.00  0.00     0.149 A 
HETATM    5  C3  UNL     1      22.030   0.223  53.189  1.00  0.00     0.001 A 
HETATM    6  C4  UNL     1      21.125   0.292  52.095  1.00  0.00     0.061 A 
HETATM    7  C5  UNL     1      21.682   0.312  50.888  1.00  0.00     0.033 C 
HETATM    8  C6  UNL     1      20.902   0.370  49.663  1.00  0.00     0.016 C 
HETATM    9  C7  UNL     1      20.775   1.473  48.933  1.00  0.00    -0.009 C 
HETATM   10  C8  UNL     1      21.530   2.431  49.434  1.00  0.00     0.095 C 
HETATM   11  N3  UNL     1      22.940   2.247  49.482  1.00  0.00    -0.393 N 
HETATM   12  C9  UNL     1      23.567   3.434  50.128  1.00  0.00     0.081 C 
HETATM   13  C10 UNL     1      25.035   3.511  50.000  1.00  0.00     0.029 C 
HETATM   14  C11 UNL     1      25.809   3.425  51.315  1.00  0.00     0.038 C 
HETATM   15  C12 UNL     1      25.052   2.440  52.109  1.00  0.00    -0.050 C 
HETATM   16  C13 UNL     1      25.487   1.232  52.365  1.00  0.00     0.078 A 
HETATM   17  N4  UNL     1      26.734   0.746  51.934  1.00  0.00    -0.275 N 
HETATM   18  N5  UNL     1      27.235  -0.529  52.107  1.00  0.00    -0.168 NA
HETATM   19  C14 UNL     1      26.526  -1.405  52.723  1.00  0.00     0.255 A 
HETATM   20  N6  UNL     1      25.257  -1.022  53.194  1.00  0.00    -0.242 NA
HETATM   21  C15 UNL     1      24.707   0.163  53.069  1.00  0.00     0.074 A 
HETATM   22  C16 UNL     1      23.319   0.180  53.600  1.00  0.00     0.091 C 
HETATM   23  C17 UNL     1      23.849   3.135  52.626  1.00  0.00     0.038 C 
HETATM   24  C18 UNL     1      23.001   3.615  51.506  1.00  0.00     0.029 C 
HETATM   25  H8  UNL     1      23.672   1.576  49.201  1.00  0.00     0.159 HD
HETATM   26  H14 UNL     1      27.421   1.318  51.425  1.00  0.00     0.189 HD
ENDROOT
TORSDOF 0
ENDMDL
MODEL 2
REMARK VINA RESULT:      -8.1      1.523      1.976
REMARK  0 active torsions:
REMARK  status: ('A' for Active; 'I' for Inactive)
ROOT
HETATM    1  C1  UNL     1      18.893   0.047  51.258  1.00  0.00     0.180 C 
HETATM    2  N1  UNL     1      20.070   0.333  52.098  1.00  0.00    -0.274 N 
HETATM    3  N2  UNL     1      20.208   0.111  53.394  1.00  0.00    -0.184 NA
HETATM    4  C2  UNL     1      21.451   0.542  53.697  1.00  0.00     0.149 A 
HETATM    5  C3  UNL     1      22.055   1.034  52.532  1.00  0.00     0.001 A 
HETATM    6  C4  UNL     1      21.110   0.881  51.481  1.00  0.00     0.061 A 
HETATM    7  C5  UNL     1      21.513   1.290  50.282  1.00  0.00     0.033 C 
HETATM    8  C6  UNL     1      20.675   1.195  49.096  1.00  0.00     0.016 C 
HETATM    9  C7  UNL     1      20.063   2.241  48.553  1.00  0.00    -0.009 C 
HETATM   10  C8  UNL     1      20.415   3.344  49.185  1.00  0.00     0.095 C 
HETATM   11  N3  UNL     1      21.781   3.741  49.175  1.00  0.00    -0.393 N 
HETATM   12  C9  UNL     1      21.937   4.979  49.989  1.00  0.00     0.081 C 
HETATM   13  C10 UNL     1      23.238   5.659  49.845  1.00  0.00     0.029 C 
HETATM   14  C11 UNL     1      24.088   5.713  51.115  1.00  0.00     0.038 C 
HETATM   15  C12 UNL     1      23.851   4.408  51.757  1.00  0.00    -0.050 C 
HETATM   16  C13 UNL     1      24.749   3.456  51.810  1.00  0.00     0.078 A 
HETATM   17  N4  UNL     1      26.046   3.580  51.282  1.00  0.00    -0.275 N 
HETATM   18  N5  UNL     1      27.024   2.606  51.241  1.00  0.00    -0.168 NA
HETATM   19  C14 UNL     1      26.773   1.442  51.724  1.00  0.00     0.255 A 
HETATM   20  N6  UNL     1      25.499   1.211  52.275  1.00  0.00    -0.242 NA
HETATM   21  C15 UNL     1      24.517   2.079  52.350  1.00  0.00     0.074 A 
HETATM   22  C16 UNL     1      23.284   1.459  52.905  1.00  0.00     0.091 C 
HETATM   23  C17 UNL     1      22.518   4.480  52.401  1.00  0.00     0.038 C 
HETATM   24  C18 UNL     1      21.461   4.725  51.389  1.00  0.00     0.029 C 
HETATM   25  H8  UNL     1      22.693   3.468  48.776  1.00  0.00     0.159 HD
HETATM   26  H14 UNL     1      26.406   4.444  50.858  1.00  0.00     0.189 HD
ENDROOT
TORSDOF 0
ENDMDL
MODEL 3
REMARK VINA RESULT:      -8.0      2.953      6.035
REMARK  0 active torsions:
REMARK  status: ('A' for Active; 'I' for Inactive)
ROOT
HETATM    1  C1  UNL     1      26.027   8.096  48.688  1.00  0.00     0.180 C 
HETATM    2  N1  UNL     1      26.382   6.679  48.879  1.00  0.00    -0.274 N 
HETATM    3  N2  UNL     1      27.334   5.998  48.262  1.00  0.00    -0.184 NA
HETATM    4  C2  UNL     1      27.263   4.750  48.772  1.00  0.00     0.149 A 
HETATM    5  C3  UNL     1      26.231   4.707  49.720  1.00  0.00     0.001 A 
HETATM    6  C4  UNL     1      25.662   6.009  49.770  1.00  0.00     0.061 A 
HETATM    7  C5  UNL     1      24.660   6.166  50.630  1.00  0.00     0.033 C 
HETATM    8  C6  UNL     1      23.974   7.435  50.814  1.00  0.00     0.016 C 
HETATM    9  C7  UNL     1      22.764   7.684  50.327  1.00  0.00    -0.009 C 
HETATM   10  C8  UNL     1      22.275   6.597  49.765  1.00  0.00     0.095 C 
HETATM   11  N3  UNL     1      22.058   5.441  50.565  1.00  0.00    -0.393 N 
HETATM   12  C9  UNL     1      21.551   4.336  49.704  1.00  0.00     0.081 C 
HETATM   13  C10 UNL     1      21.022   3.169  50.435  1.00  0.00     0.029 C 
HETATM   14  C11 UNL     1      21.791   1.865  50.223  1.00  0.00     0.038 C 
HETATM   15  C12 UNL     1      23.201   2.290  50.159  1.00  0.00    -0.050 C 
HETATM   16  C13 UNL     1      24.070   2.052  51.109  1.00  0.00     0.078 A 
HETATM   17  N4  UNL     1      23.764   1.343  52.284  1.00  0.00    -0.275 N 
HETATM   18  N5  UNL     1      24.603   1.107  53.355  1.00  0.00    -0.168 NA
HETATM   19  C14 UNL     1      25.804   1.562  53.326  1.00  0.00     0.255 A 
HETATM   20  N6  UNL     1      26.212   2.290  52.194  1.00  0.00    -0.242 NA
HETATM   21  C15 UNL     1      25.479   2.560  51.139  1.00  0.00     0.074 A 
HETATM   22  C16 UNL     1      26.206   3.434  50.180  1.00  0.00     0.091 C 
HETATM   23  C17 UNL     1      23.415   2.874  48.814  1.00  0.00     0.038 C 
HETATM   24  C18 UNL     1      22.539   4.055  48.611  1.00  0.00     0.029 C 
HETATM   25  H8  UNL     1      22.116   5.120  51.545  1.00  0.00     0.159 HD
HETATM   26  H14 UNL     1      22.847   0.915  52.466  1.00  0.00     0.189 HD
ENDROOT
TORSDOF 0
ENDMDL
MODEL 4
REMARK VINA RESULT:      -7.9      2.299      3.839
REMARK  0 active torsions:
REMARK  status: ('A' for Active; 'I' for Inactive)
ROOT
HETATM    1  C1  UNL     1      21.992  -0.688  52.624  1.00  0.00     0.180 C 
HETATM    2  N1  UNL     1      23.181   0.177  52.720  1.00  0.00    -0.274 N 
HETATM    3  N2  UNL     1      24.121   0.154  53.650  1.00  0.00    -0.184 NA
HETATM    4  C2  UNL     1      24.985   1.132  53.305  1.00  0.00     0.149 A 
HETATM    5  C3  UNL     1      24.528   1.744  52.130  1.00  0.00     0.001 A 
HETATM    6  C4  UNL     1      23.323   1.086  51.763  1.00  0.00     0.061 A 
HETATM    7  C5  UNL     1      22.740   1.530  50.653  1.00  0.00     0.033 C 
HETATM    8  C6  UNL     1      21.508   0.960  50.131  1.00  0.00     0.016 C 
HETATM    9  C7  UNL     1      20.327   1.558  50.240  1.00  0.00    -0.009 C 
HETATM   10  C8  UNL     1      20.477   2.749  50.787  1.00  0.00     0.095 C 
HETATM   11  N3  UNL     1      21.262   3.726  50.113  1.00  0.00    -0.393 N 
HETATM   12  C9  UNL     1      21.323   4.962  50.942  1.00  0.00     0.081 C 
HETATM   13  C10 UNL     1      21.866   6.148  50.253  1.00  0.00     0.029 C 
HETATM   14  C11 UNL     1      23.172   6.695  50.829  1.00  0.00     0.038 C 
HETATM   15  C12 UNL     1      23.925   5.487  51.212  1.00  0.00    -0.050 C 
HETATM   16  C13 UNL     1      24.982   5.061  50.568  1.00  0.00     0.078 A 
HETATM   17  N4  UNL     1      25.533   5.721  49.455  1.00  0.00    -0.275 N 
HETATM   18  N5  UNL     1      26.602   5.304  48.687  1.00  0.00    -0.168 NA
HETATM   19  C14 UNL     1      27.193   4.201  48.977  1.00  0.00     0.255 A 
HETATM   20  N6  UNL     1      26.717   3.459  50.073  1.00  0.00    -0.242 NA
HETATM   21  C15 UNL     1      25.709   3.782  50.850  1.00  0.00     0.074 A 
HETATM   22  C16 UNL     1      25.427   2.716  51.848  1.00  0.00     0.091 C 
HETATM   23  C17 UNL     1      23.334   4.994  52.479  1.00  0.00     0.038 C 
HETATM   24  C18 UNL     1      21.905   4.639  52.286  1.00  0.00     0.029 C 
HETATM   25  H8  UNL     1      21.784   3.870  49.234  1.00  0.00     0.159 HD
HETATM   26  H14 UNL     1      25.178   6.614  49.091  1.00  0.00     0.189 HD
ENDROOT
TORSDOF 0
ENDMDL
MODEL 5
REMARK VINA RESULT:      -7.8      1.780      4.998
REMARK  0 active torsions:
REMARK  status: ('A' for Active; 'I' for Inactive)
ROOT
HETATM    1  C1  UNL     1      25.280   5.158  50.555  1.00  0.00     0.180 C 
HETATM    2  N1  UNL     1      25.299   3.706  50.811  1.00  0.00    -0.274 N 
HETATM    3  N2  UNL     1      26.146   2.814  50.326  1.00  0.00    -0.184 NA
HETATM    4  C2  UNL     1      25.751   1.632  50.844  1.00  0.00     0.149 A 
HETATM    5  C3  UNL     1      24.632   1.848  51.661  1.00  0.00     0.001 A 
HETATM    6  C4  UNL     1      24.354   3.242  51.620  1.00  0.00     0.061 A 
HETATM    7  C5  UNL     1      23.318   3.644  52.350  1.00  0.00     0.033 C 
HETATM    8  C6  UNL     1      22.905   5.035  52.428  1.00  0.00     0.016 C 
HETATM    9  C7  UNL     1      21.840   5.514  51.794  1.00  0.00    -0.009 C 
HETATM   10  C8  UNL     1      21.196   4.532  51.196  1.00  0.00     0.095 C 
HETATM   11  N3  UNL     1      20.646   3.483  51.984  1.00  0.00    -0.393 N 
HETATM   12  C9  UNL     1      20.015   2.475  51.087  1.00  0.00     0.081 C 
HETATM   13  C10 UNL     1      19.168   1.477  51.768  1.00  0.00     0.029 C 
HETATM   14  C11 UNL     1      19.658   0.032  51.672  1.00  0.00     0.038 C 
HETATM   15  C12 UNL     1      21.125   0.147  51.772  1.00  0.00    -0.050 C 
HETATM   16  C13 UNL     1      21.808  -0.229  52.824  1.00  0.00     0.078 A 
HETATM   17  N4  UNL     1      21.224  -0.807  53.965  1.00  0.00    -0.275 N 
HETATM   18  N5  UNL     1      21.865  -1.169  55.134  1.00  0.00    -0.168 NA
HETATM   19  C14 UNL     1      23.130  -0.979  55.242  1.00  0.00     0.255 A 
HETATM   20  N6  UNL     1      23.812  -0.402  54.155  1.00  0.00    -0.242 NA
HETATM   21  C15 UNL     1      23.280  -0.028  53.015  1.00  0.00     0.074 A 
HETATM   22  C16 UNL     1      24.282   0.631  52.136  1.00  0.00     0.091 C 
HETATM   23  C17 UNL     1      21.611   0.615  50.453  1.00  0.00     0.038 C 
HETATM   24  C18 UNL     1      21.038   1.945  50.126  1.00  0.00     0.029 C 
HETATM   25  H8  UNL     1      20.521   3.199  52.969  1.00  0.00     0.159 HD
HETATM   26  H14 UNL     1      20.222  -1.023  54.043  1.00  0.00     0.189 HD
ENDROOT
TORSDOF 0
ENDMDL
MODEL 6
REMARK VINA RESULT:      -7.5      3.125      4.670
REMARK  0 active torsions:
REMARK  status: ('A' for Active; 'I' for Inactive)
ROOT
HETATM    1  C1  UNL     1      21.015   1.017  49.962  1.00  0.00     0.180 C 
HETATM    2  N1  UNL     1      22.328   1.464  50.461  1.00  0.00    -0.274 N 
HETATM    3  N2  UNL     1      23.010   0.975  51.484  1.00  0.00    -0.184 NA
HETATM    4  C2  UNL     1      24.138   1.715  51.544  1.00  0.00     0.149 A 
HETATM    5  C3  UNL     1      24.107   2.668  50.517  1.00  0.00     0.001 A 
HETATM    6  C4  UNL     1      22.888   2.477  49.811  1.00  0.00     0.061 A 
HETATM    7  C5  UNL     1      22.684   3.295  48.783  1.00  0.00     0.033 C 
HETATM    8  C6  UNL     1      21.495   3.227  47.949  1.00  0.00     0.016 C 
HETATM    9  C7  UNL     1      20.497   4.100  48.032  1.00  0.00    -0.009 C 
HETATM   10  C8  UNL     1      20.807   5.053  48.889  1.00  0.00     0.095 C 
HETATM   11  N3  UNL     1      21.930   5.885  48.624  1.00  0.00    -0.393 N 
HETATM   12  C9  UNL     1      22.106   6.845  49.749  1.00  0.00     0.081 C 
HETATM   13  C10 UNL     1      23.054   7.945  49.487  1.00  0.00     0.029 C 
HETATM   14  C11 UNL     1      24.297   7.958  50.378  1.00  0.00     0.038 C 
HETATM   15  C12 UNL     1      24.635   6.533  50.538  1.00  0.00    -0.050 C 
HETATM   16  C13 UNL     1      25.673   5.969  49.971  1.00  0.00     0.078 A 
HETATM   17  N4  UNL     1      26.595   6.665  49.169  1.00  0.00    -0.275 N 
HETATM   18  N5  UNL     1      27.672   6.133  48.488  1.00  0.00    -0.168 NA
HETATM   19  C14 UNL     1      27.903   4.872  48.563  1.00  0.00     0.255 A 
HETATM   20  N6  UNL     1      27.036   4.082  49.340  1.00  0.00    -0.242 NA
HETATM   21  C15 UNL     1      25.993   4.506  50.013  1.00  0.00     0.074 A 
HETATM   22  C16 UNL     1      25.252   3.379  50.640  1.00  0.00     0.091 C 
HETATM   23  C17 UNL     1      23.683   5.972  51.525  1.00  0.00     0.038 C 
HETATM   24  C18 UNL     1      22.288   6.090  51.032  1.00  0.00     0.029 C 
HETATM   25  H8  UNL     1      22.650   6.057  47.903  1.00  0.00     0.159 HD
HETATM   26  H14 UNL     1      26.552   7.679  49.004  1.00  0.00     0.189 HD
ENDROOT
TORSDOF 0
ENDMDL
MODEL 7
REMARK VINA RESULT:      -7.2      8.294     10.846
REMARK  0 active torsions:
REMARK  status: ('A' for Active; 'I' for Inactive)
ROOT
HETATM    1  C1  UNL     1      26.502   8.995  46.354  1.00  0.00     0.180 C 
HETATM    2  N1  UNL     1      27.154   7.933  47.140  1.00  0.00    -0.274 N 
HETATM    3  N2  UNL     1      26.643   7.253  48.153  1.00  0.00    -0.184 NA
HETATM    4  C2  UNL     1      27.619   6.403  48.538  1.00  0.00     0.149 A 
HETATM    5  C3  UNL     1      28.738   6.600  47.716  1.00  0.00     0.001 A 
HETATM    6  C4  UNL     1      28.398   7.626  46.793  1.00  0.00     0.061 A 
HETATM    7  C5  UNL     1      29.344   7.948  45.916  1.00  0.00     0.033 C 
HETATM    8  C6  UNL     1      29.157   8.968  44.897  1.00  0.00     0.016 C 
HETATM    9  C7  UNL     1      29.695  10.179  44.973  1.00  0.00    -0.009 C 
HETATM   10  C8  UNL     1      30.477  10.256  46.033  1.00  0.00     0.095 C 
HETATM   11  N3  UNL     1      31.612   9.403  46.119  1.00  0.00    -0.393 N 
HETATM   12  C9  UNL     1      32.304   9.638  47.416  1.00  0.00     0.081 C 
HETATM   13  C10 UNL     1      33.644   9.030  47.527  1.00  0.00     0.029 C 
HETATM   14  C11 UNL     1      33.781   7.950  48.600  1.00  0.00     0.038 C 
HETATM   15  C12 UNL     1      32.497   7.229  48.546  1.00  0.00    -0.050 C 
HETATM   16  C13 UNL     1      32.369   6.017  48.066  1.00  0.00     0.078 A 
HETATM   17  N4  UNL     1      33.445   5.258  47.573  1.00  0.00    -0.275 N 
HETATM   18  N5  UNL     1      33.383   4.005  46.996  1.00  0.00    -0.168 NA
HETATM   19  C14 UNL     1      32.244   3.425  46.872  1.00  0.00     0.255 A 
HETATM   20  N6  UNL     1      31.099   4.102  47.331  1.00  0.00    -0.242 NA
HETATM   21  C15 UNL     1      31.071   5.291  47.887  1.00  0.00     0.074 A 
HETATM   22  C16 UNL     1      29.678   5.733  48.160  1.00  0.00     0.091 C 
HETATM   23  C17 UNL     1      31.497   8.076  49.237  1.00  0.00     0.038 C 
HETATM   24  C18 UNL     1      31.353   9.384  48.549  1.00  0.00     0.029 C 
HETATM   25  H8  UNL     1      32.125   8.692  45.574  1.00  0.00     0.159 HD
HETATM   26  H14 UNL     1      34.422   5.577  47.596  1.00  0.00     0.189 HD
ENDROOT
TORSDOF 0
ENDMDL
MODEL 8
REMARK VINA RESULT:      -7.0      2.484      6.136
REMARK  0 active torsions:
REMARK  status: ('A' for Active; 'I' for Inactive)
ROOT
HETATM    1  C1  UNL     1      25.724   7.190  49.848  1.00  0.00     0.180 C 
HETATM    2  N1  UNL     1      24.336   6.866  50.222  1.00  0.00    -0.274 N 
HETATM    3  N2  UNL     1      23.422   7.686  50.712  1.00  0.00    -0.184 NA
HETATM    4  C2  UNL     1      22.323   6.924  50.894  1.00  0.00     0.149 A 
HETATM    5  C3  UNL     1      22.612   5.612  50.495  1.00  0.00     0.001 A 
HETATM    6  C4  UNL     1      23.962   5.604  50.050  1.00  0.00     0.061 A 
HETATM    7  C5  UNL     1      24.419   4.432  49.619  1.00  0.00     0.033 C 
HETATM    8  C6  UNL     1      25.773   4.251  49.121  1.00  0.00     0.016 C 
HETATM    9  C7  UNL     1      26.732   3.657  49.821  1.00  0.00    -0.009 C 
HETATM   10  C8  UNL     1      26.238   3.189  50.951  1.00  0.00     0.095 C 
HETATM   11  N3  UNL     1      25.223   2.194  50.903  1.00  0.00    -0.393 N 
HETATM   12  C9  UNL     1      24.795   1.863  52.291  1.00  0.00     0.081 C 
HETATM   13  C10 UNL     1      23.952   0.659  52.413  1.00  0.00     0.029 C 
HETATM   14  C11 UNL     1      22.532   0.906  52.922  1.00  0.00     0.038 C 
HETATM   15  C12 UNL     1      22.146   2.182  52.292  1.00  0.00    -0.050 C 
HETATM   16  C13 UNL     1      21.267   2.273  51.325  1.00  0.00     0.078 A 
HETATM   17  N4  UNL     1      20.576   1.169  50.796  1.00  0.00    -0.275 N 
HETATM   18  N5  UNL     1      19.687   1.173  49.739  1.00  0.00    -0.168 NA
HETATM   19  C14 UNL     1      19.428   2.279  49.140  1.00  0.00     0.255 A 
HETATM   20  N6  UNL     1      20.071   3.447  49.590  1.00  0.00    -0.242 NA
HETATM   21  C15 UNL     1      20.928   3.528  50.581  1.00  0.00     0.074 A 
HETATM   22  C16 UNL     1      21.481   4.902  50.713  1.00  0.00     0.091 C 
HETATM   23  C17 UNL     1      22.825   3.259  53.050  1.00  0.00     0.038 C 
HETATM   24  C18 UNL     1      24.299   3.104  52.974  1.00  0.00     0.029 C 
HETATM   25  H8  UNL     1      24.701   1.611  50.229  1.00  0.00     0.159 HD
HETATM   26  H14 UNL     1      20.671   0.212  51.160  1.00  0.00     0.189 HD
ENDROOT
TORSDOF 0
ENDMDL
MODEL 9
REMARK VINA RESULT:      -7.0      8.672     12.117
REMARK  0 active torsions:
REMARK  status: ('A' for Active; 'I' for Inactive)
ROOT
HETATM    1  C1  UNL     1      30.516  13.163  45.708  1.00  0.00     0.180 C 
HETATM    2  N1  UNL     1      30.604  11.718  45.432  1.00  0.00    -0.274 N 
HETATM    3  N2  UNL     1      30.770  11.132  44.258  1.00  0.00    -0.184 NA
HETATM    4  C2  UNL     1      30.783   9.808  44.522  1.00  0.00     0.149 A 
HETATM    5  C3  UNL     1      30.617   9.621  45.902  1.00  0.00     0.001 A 
HETATM    6  C4  UNL     1      30.501  10.914  46.483  1.00  0.00     0.061 A 
HETATM    7  C5  UNL     1      30.345  10.939  47.803  1.00  0.00     0.033 C 
HETATM    8  C6  UNL     1      30.221  12.177  48.556  1.00  0.00     0.016 C 
HETATM    9  C7  UNL     1      29.068  12.620  49.041  1.00  0.00    -0.009 C 
HETATM   10  C8  UNL     1      28.118  11.732  48.821  1.00  0.00     0.095 C 
HETATM   11  N3  UNL     1      28.228  10.441  49.407  1.00  0.00    -0.393 N 
HETATM   12  C9  UNL     1      27.071   9.607  48.978  1.00  0.00     0.081 C 
HETATM   13  C10 UNL     1      26.904   8.343  49.721  1.00  0.00     0.029 C 
HETATM   14  C11 UNL     1      27.063   7.072  48.887  1.00  0.00     0.038 C 
HETATM   15  C12 UNL     1      28.154   7.397  47.949  1.00  0.00    -0.050 C 
HETATM   16  C13 UNL     1      29.354   6.881  48.033  1.00  0.00     0.078 A 
HETATM   17  N4  UNL     1      29.732   5.942  49.009  1.00  0.00    -0.275 N 
HETATM   18  N5  UNL     1      30.988   5.402  49.202  1.00  0.00    -0.168 NA
HETATM   19  C14 UNL     1      31.952   5.763  48.434  1.00  0.00     0.255 A 
HETATM   20  N6  UNL     1      31.682   6.703  47.423  1.00  0.00    -0.242 NA
HETATM   21  C15 UNL     1      30.521   7.264  47.175  1.00  0.00     0.074 A 
HETATM   22  C16 UNL     1      30.627   8.282  46.096  1.00  0.00     0.091 C 
HETATM   23  C17 UNL     1      27.573   8.261  46.895  1.00  0.00     0.038 C 
HETATM   24  C18 UNL     1      27.043   9.517  47.481  1.00  0.00     0.029 C 
HETATM   25  H8  UNL     1      28.831   9.898  50.045  1.00  0.00     0.159 HD
HETATM   26  H14 UNL     1      29.081   5.552  49.703  1.00  0.00     0.189 HD
ENDROOT
TORSDOF 0
ENDMDL
