MODEL 1
REMARK VINA RESULT:      -8.7      0.000      0.000
REMARK  5 active torsions:
REMARK  status: ('A' for Active; 'I' for Inactive)
REMARK    1  A    between atoms: N2_5  and  C4_6 
REMARK    2  A    between atoms: C4_6  and  C5_7 
REMARK    3  A    between atoms: C5_7  and  C6_8 
REMARK    4  A    between atoms: C6_8  and  C7_9 
REMARK    5  A    between atoms: C19_24  and  N6_25 
ROOT
HETATM    1  C7  UNL     1      23.889   3.837  51.219  1.00  0.00     0.101 C 
HETATM    2  N3  UNL     1      22.912   3.006  51.227  1.00  0.00    -0.237 NA
HETATM    3  C8  UNL     1      23.047   1.552  51.472  1.00  0.00     0.370 C 
HETATM    4  C9  UNL     1      21.674   1.034  51.344  1.00  0.00     0.032 C 
HETATM    5  C10 UNL     1      20.498   0.400  51.574  1.00  0.00    -0.000 C 
HETATM    6  C11 UNL     1      20.051  -0.439  52.718  1.00  0.00    -0.000 C 
HETATM    7  C12 UNL     1      20.508  -0.961  53.865  1.00  0.00    -0.000 C 
HETATM    8  C13 UNL     1      21.734  -1.048  54.663  1.00  0.00    -0.002 C 
HETATM    9  C14 UNL     1      22.987  -0.636  54.369  1.00  0.00     0.003 C 
HETATM   10  C15 UNL     1      23.166  -0.057  53.066  1.00  0.00     0.304 C 
HETATM   11  N4  UNL     1      23.549   1.278  52.811  1.00  0.00     0.138 NA
HETATM   12  C16 UNL     1      24.928   1.487  53.046  1.00  0.00     0.345 A 
HETATM   13  C17 UNL     1      25.701   2.249  52.061  1.00  0.00     0.069 A 
HETATM   14  C18 UNL     1      26.869   1.637  51.770  1.00  0.00     0.146 A 
HETATM   15  N5  UNL     1      26.879   0.454  52.561  1.00  0.00    -0.243 NA
HETATM   16  C19 UNL     1      25.799   0.341  53.289  1.00  0.00     0.137 A 
HETATM   17  N7  UNL     1      25.276   3.492  51.451  1.00  0.00    -0.345 N 
HETATM   18  H25 UNL     1      26.040   4.151  51.174  1.00  0.00     0.167 HD
ENDROOT
BRANCH   1  19
HETATM   19  C6  UNL     1      23.672   5.289  50.962  1.00  0.00     0.080 C 
BRANCH  19  20
HETATM   20  C5  UNL     1      24.908   5.968  50.456  1.00  0.00     0.028 C 
BRANCH  20  21
HETATM   21  C4  UNL     1      25.048   5.770  48.957  1.00  0.00     0.133 C 
BRANCH  21  22
HETATM   22  N2  UNL     1      26.402   6.138  48.518  1.00  0.00    -0.308 N 
HETATM   23  C3  UNL     1      26.879   7.260  47.978  1.00  0.00     0.113 A 
HETATM   24  C2  UNL     1      28.227   7.140  47.729  1.00  0.00     0.112 A 
HETATM   25  N1  UNL     1      28.556   5.889  48.143  1.00  0.00    -0.313 N 
HETATM   26  C1  UNL     1      29.905   5.346  48.060  1.00  0.00     0.160 C 
HETATM   27  C20 UNL     1      27.441   5.310  48.612  1.00  0.00     0.328 A 
HETATM   28  O1  UNL     1      27.416   4.138  49.072  1.00  0.00    -0.246 OA
ENDBRANCH  21  22
ENDBRANCH  20  21
ENDBRANCH  19  20
ENDBRANCH   1  19
BRANCH  16  29
HETATM   29  N6  UNL     1      26.117  -0.921  53.946  1.00  0.00    -0.385 N 
HETATM   30  H23 UNL     1      26.778  -1.057  54.720  1.00  0.00     0.157 HD
HETATM   31  H24 UNL     1      25.700  -1.845  53.700  1.00  0.00     0.157 HD
ENDBRANCH  16  29
TORSDOF 5
ENDMDL
MODEL 2
REMARK VINA RESULT:      -8.5      2.635      7.875
REMARK  5 active torsions:
REMARK  status: ('A' for Active; 'I' for Inactive)
REMARK    1  A    between atoms: N2_5  and  C4_6 
REMARK    2  A    between atoms: C4_6  and  C5_7 
REMARK    3  A    between atoms: C5_7  and  C6_8 
REMARK    4  A    between atoms: C6_8  and  C7_9 
REMARK    5  A    between atoms: C19_24  and  N6_25 
ROOT
HETATM    1  C7  UNL     1      24.365   3.404  52.100  1.00  0.00     0.101 C 
HETATM    2  N3  UNL     1      25.253   3.598  51.196  1.00  0.00    -0.237 NA
HETATM    3  C8  UNL     1      25.127   4.571  50.087  1.00  0.00     0.370 C 
HETATM    4  C9  UNL     1      26.365   4.398  49.309  1.00  0.00     0.032 C 
HETATM    5  C10 UNL     1      27.522   4.627  48.639  1.00  0.00    -0.000 C 
HETATM    6  C11 UNL     1      28.256   5.892  48.367  1.00  0.00    -0.000 C 
HETATM    7  C12 UNL     1      28.147   7.216  48.547  1.00  0.00    -0.000 C 
HETATM    8  C13 UNL     1      27.223   8.216  49.090  1.00  0.00    -0.002 C 
HETATM    9  C14 UNL     1      25.963   8.064  49.554  1.00  0.00     0.003 C 
HETATM   10  C15 UNL     1      25.422   6.735  49.476  1.00  0.00     0.304 C 
HETATM   11  N4  UNL     1      25.047   5.939  50.580  1.00  0.00     0.138 NA
HETATM   12  C16 UNL     1      23.819   6.359  51.143  1.00  0.00     0.345 A 
HETATM   13  C17 UNL     1      22.821   5.343  51.489  1.00  0.00     0.069 A 
HETATM   14  C18 UNL     1      21.590   5.693  51.057  1.00  0.00     0.146 A 
HETATM   15  N5  UNL     1      21.764   6.951  50.413  1.00  0.00    -0.243 NA
HETATM   16  C19 UNL     1      23.009   7.351  50.444  1.00  0.00     0.137 A 
HETATM   17  N7  UNL     1      23.101   4.105  52.187  1.00  0.00    -0.345 N 
HETATM   18  H25 UNL     1      22.323   3.726  52.776  1.00  0.00     0.167 HD
ENDROOT
BRANCH   1  19
HETATM   19  C6  UNL     1      24.566   2.403  53.185  1.00  0.00     0.080 C 
BRANCH  19  20
HETATM   20  C5  UNL     1      24.446   0.995  52.688  1.00  0.00     0.028 C 
BRANCH  20  21
HETATM   21  C4  UNL     1      24.848   0.012  53.773  1.00  0.00     0.133 C 
BRANCH  21  22
HETATM   22  N2  UNL     1      26.175  -0.550  53.484  1.00  0.00    -0.308 N 
HETATM   23  C3  UNL     1      26.551  -1.574  52.717  1.00  0.00     0.113 A 
HETATM   24  C2  UNL     1      27.917  -1.731  52.755  1.00  0.00     0.112 A 
HETATM   25  N1  UNL     1      28.364  -0.752  53.585  1.00  0.00    -0.313 N 
HETATM   26  C1  UNL     1      29.771  -0.555  53.908  1.00  0.00     0.160 C 
HETATM   27  C20 UNL     1      27.298  -0.059  54.008  1.00  0.00     0.328 A 
HETATM   28  O1  UNL     1      27.381   0.920  54.795  1.00  0.00    -0.246 OA
ENDBRANCH  21  22
ENDBRANCH  20  21
ENDBRANCH  19  20
ENDBRANCH   1  19
BRANCH  16  29
HETATM   29  N6  UNL     1      22.844   8.611  49.730  1.00  0.00    -0.385 N 
HETATM   30  H23 UNL     1      22.164   9.351  49.944  1.00  0.00     0.157 HD
HETATM   31  H24 UNL     1      23.410   8.910  48.906  1.00  0.00     0.157 HD
ENDBRANCH  16  29
TORSDOF 5
ENDMDL
MODEL 3
REMARK VINA RESULT:      -8.5      2.906      5.160
REMARK  5 active torsions:
REMARK  status: ('A' for Active; 'I' for Inactive)
REMARK    1  A    between atoms: N2_5  and  C4_6 
REMARK    2  A    between atoms: C4_6  and  C5_7 
REMARK    3  A    between atoms: C5_7  and  C6_8 
REMARK    4  A    between atoms: C6_8  and  C7_9 
REMARK    5  A    between atoms: C19_24  and  N6_25 
ROOT
HETATM    1  C7  UNL     1      21.653   0.876  50.752  1.00  0.00     0.101 C 
HETATM    2  N3  UNL     1      22.798   1.416  50.956  1.00  0.00    -0.237 NA
HETATM    3  C8  UNL     1      23.510   1.413  52.255  1.00  0.00     0.370 C 
HETATM    4  C9  UNL     1      24.742   2.175  51.995  1.00  0.00     0.032 C 
HETATM    5  C10 UNL     1      26.041   2.559  51.915  1.00  0.00    -0.000 C 
HETATM    6  C11 UNL     1      27.288   1.869  52.338  1.00  0.00    -0.000 C 
HETATM    7  C12 UNL     1      27.700   0.754  52.959  1.00  0.00    -0.000 C 
HETATM    8  C13 UNL     1      27.166  -0.438  53.624  1.00  0.00    -0.002 C 
HETATM    9  C14 UNL     1      25.890  -0.754  53.935  1.00  0.00     0.003 C 
HETATM   10  C15 UNL     1      24.901   0.234  53.604  1.00  0.00     0.304 C 
HETATM   11  N4  UNL     1      23.851   0.061  52.676  1.00  0.00     0.138 NA
HETATM   12  C16 UNL     1      22.811  -0.742  53.198  1.00  0.00     0.345 A 
HETATM   13  C17 UNL     1      21.424  -0.312  53.000  1.00  0.00     0.069 A 
HETATM   14  C18 UNL     1      20.710  -0.406  54.142  1.00  0.00     0.146 A 
HETATM   15  N5  UNL     1      21.625  -0.899  55.115  1.00  0.00    -0.243 NA
HETATM   16  C19 UNL     1      22.816  -1.097  54.613  1.00  0.00     0.137 A 
HETATM   17  N7  UNL     1      20.874   0.175  51.751  1.00  0.00    -0.345 N 
HETATM   18  H25 UNL     1      19.854  -0.007  51.598  1.00  0.00     0.167 HD
ENDROOT
BRANCH   1  19
HETATM   19  C6  UNL     1      20.999   0.924  49.414  1.00  0.00     0.080 C 
BRANCH  19  20
HETATM   20  C5  UNL     1      21.760   1.768  48.438  1.00  0.00     0.028 C 
BRANCH  20  21
HETATM   21  C4  UNL     1      21.076   3.110  48.249  1.00  0.00     0.133 C 
BRANCH  21  22
HETATM   22  N2  UNL     1      21.436   4.025  49.341  1.00  0.00    -0.308 N 
HETATM   23  C3  UNL     1      20.735   4.474  50.383  1.00  0.00     0.113 A 
HETATM   24  C2  UNL     1      21.498   5.324  51.149  1.00  0.00     0.112 A 
HETATM   25  N1  UNL     1      22.705   5.376  50.527  1.00  0.00    -0.313 N 
HETATM   26  C1  UNL     1      23.824   6.172  51.013  1.00  0.00     0.160 C 
HETATM   27  C20 UNL     1      22.639   4.588  49.445  1.00  0.00     0.328 A 
HETATM   28  O1  UNL     1      23.604   4.424  48.654  1.00  0.00    -0.246 OA
ENDBRANCH  21  22
ENDBRANCH  20  21
ENDBRANCH  19  20
ENDBRANCH   1  19
BRANCH  16  29
HETATM   29  N6  UNL     1      23.477  -1.579  55.820  1.00  0.00    -0.385 N 
HETATM   30  H23 UNL     1      24.383  -1.264  56.188  1.00  0.00     0.157 HD
HETATM   31  H24 UNL     1      23.097  -2.312  56.457  1.00  0.00     0.157 HD
ENDBRANCH  16  29
TORSDOF 5
ENDMDL
MODEL 4
REMARK VINA RESULT:      -8.5      3.095      7.342
REMARK  5 active torsions:
REMARK  status: ('A' for Active; 'I' for Inactive)
REMARK    1  A    between atoms: N2_5  and  C4_6 
REMARK    2  A    between atoms: C4_6  and  C5_7 
REMARK    3  A    between atoms: C5_7  and  C6_8 
REMARK    4  A    between atoms: C6_8  and  C7_9 
REMARK    5  A    between atoms: C19_24  and  N6_25 
ROOT
HETATM    1  C7  UNL     1      23.040  -0.012  53.286  1.00  0.00     0.101 C 
HETATM    2  N3  UNL     1      24.220  -0.504  53.378  1.00  0.00    -0.237 NA
HETATM    3  C8  UNL     1      25.379  -0.071  52.564  1.00  0.00     0.370 C 
HETATM    4  C9  UNL     1      26.479  -0.944  53.006  1.00  0.00     0.032 C 
HETATM    5  C10 UNL     1      27.674  -1.402  53.456  1.00  0.00    -0.000 C 
HETATM    6  C11 UNL     1      28.914  -0.676  53.839  1.00  0.00    -0.000 C 
HETATM    7  C12 UNL     1      29.426   0.562  53.871  1.00  0.00    -0.000 C 
HETATM    8  C13 UNL     1      29.081   1.942  53.517  1.00  0.00    -0.002 C 
HETATM    9  C14 UNL     1      28.004   2.420  52.856  1.00  0.00     0.003 C 
HETATM   10  C15 UNL     1      27.065   1.436  52.393  1.00  0.00     0.304 C 
HETATM   11  N4  UNL     1      25.725   1.320  52.821  1.00  0.00     0.138 NA
HETATM   12  C16 UNL     1      24.898   2.315  52.248  1.00  0.00     0.345 A 
HETATM   13  C17 UNL     1      23.593   1.920  51.711  1.00  0.00     0.069 A 
HETATM   14  C18 UNL     1      23.377   2.461  50.493  1.00  0.00     0.146 A 
HETATM   15  N5  UNL     1      24.546   3.221  50.208  1.00  0.00    -0.243 NA
HETATM   16  C19 UNL     1      25.422   3.157  51.177  1.00  0.00     0.137 A 
HETATM   17  N7  UNL     1      22.649   1.046  52.377  1.00  0.00    -0.345 N 
HETATM   18  H25 UNL     1      21.639   1.217  52.164  1.00  0.00     0.167 HD
ENDROOT
BRANCH   1  19
HETATM   19  C6  UNL     1      21.923  -0.503  54.141  1.00  0.00     0.080 C 
BRANCH  19  20
HETATM   20  C5  UNL     1      20.803  -1.086  53.333  1.00  0.00     0.028 C 
BRANCH  20  21
HETATM   21  C4  UNL     1      19.528  -0.288  53.540  1.00  0.00     0.133 C 
BRANCH  21  22
HETATM   22  N2  UNL     1      19.147   0.395  52.295  1.00  0.00    -0.308 N 
HETATM   23  C3  UNL     1      18.510  -0.044  51.208  1.00  0.00     0.113 A 
HETATM   24  C2  UNL     1      18.377   0.967  50.285  1.00  0.00     0.112 A 
HETATM   25  N1  UNL     1      18.963   2.051  50.858  1.00  0.00    -0.313 N 
HETATM   26  C1  UNL     1      19.043   3.354  50.212  1.00  0.00     0.160 C 
HETATM   27  C20 UNL     1      19.417   1.678  52.063  1.00  0.00     0.328 A 
HETATM   28  O1  UNL     1      20.014   2.463  52.846  1.00  0.00    -0.246 OA
ENDBRANCH  21  22
ENDBRANCH  20  21
ENDBRANCH  19  20
ENDBRANCH   1  19
BRANCH  16  29
HETATM   29  N6  UNL     1      26.452   4.005  50.590  1.00  0.00    -0.385 N 
HETATM   30  H23 UNL     1      27.037   3.781  49.775  1.00  0.00     0.157 HD
HETATM   31  H24 UNL     1      26.715   4.953  50.937  1.00  0.00     0.157 HD
ENDBRANCH  16  29
TORSDOF 5
ENDMDL
MODEL 5
REMARK VINA RESULT:      -8.0      3.202      5.117
REMARK  5 active torsions:
REMARK  status: ('A' for Active; 'I' for Inactive)
REMARK    1  A    between atoms: N2_5  and  C4_6 
REMARK    2  A    between atoms: C4_6  and  C5_7 
REMARK    3  A    between atoms: C5_7  and  C6_8 
REMARK    4  A    between atoms: C6_8  and  C7_9 
REMARK    5  A    between atoms: C19_24  and  N6_25 
ROOT
HETATM    1  C7  UNL     1      23.041   3.851  51.942  1.00  0.00     0.101 C 
HETATM    2  N3  UNL     1      22.485   2.754  52.305  1.00  0.00    -0.237 NA
HETATM    3  C8  UNL     1      23.159   1.435  52.323  1.00  0.00     0.370 C 
HETATM    4  C9  UNL     1      22.113   0.501  52.773  1.00  0.00     0.032 C 
HETATM    5  C10 UNL     1      21.429  -0.460  53.443  1.00  0.00    -0.000 C 
HETATM    6  C11 UNL     1      21.834  -1.330  54.579  1.00  0.00    -0.000 C 
HETATM    7  C12 UNL     1      22.897  -1.613  55.345  1.00  0.00    -0.000 C 
HETATM    8  C13 UNL     1      24.311  -1.259  55.499  1.00  0.00    -0.002 C 
HETATM    9  C14 UNL     1      25.097  -0.487  54.717  1.00  0.00     0.003 C 
HETATM   10  C15 UNL     1      24.478   0.043  53.534  1.00  0.00     0.304 C 
HETATM   11  N4  UNL     1      24.270   1.413  53.264  1.00  0.00     0.138 NA
HETATM   12  C16 UNL     1      25.465   2.064  52.876  1.00  0.00     0.345 A 
HETATM   13  C17 UNL     1      25.430   2.974  51.729  1.00  0.00     0.069 A 
HETATM   14  C18 UNL     1      26.463   2.750  50.889  1.00  0.00     0.146 A 
HETATM   15  N5  UNL     1      27.195   1.680  51.475  1.00  0.00    -0.243 NA
HETATM   16  C19 UNL     1      26.657   1.270  52.594  1.00  0.00     0.137 A 
HETATM   17  N7  UNL     1      24.413   3.980  51.496  1.00  0.00    -0.345 N 
HETATM   18  H25 UNL     1      24.723   4.831  50.971  1.00  0.00     0.167 HD
ENDROOT
BRANCH   1  19
HETATM   19  C6  UNL     1      22.295   5.141  51.949  1.00  0.00     0.080 C 
BRANCH  19  20
HETATM   20  C5  UNL     1      21.834   5.539  50.580  1.00  0.00     0.028 C 
BRANCH  20  21
HETATM   21  C4  UNL     1      20.342   5.307  50.434  1.00  0.00     0.133 C 
BRANCH  21  22
HETATM   22  N2  UNL     1      20.067   3.878  50.223  1.00  0.00    -0.308 N 
HETATM   23  C3  UNL     1      20.449   3.039  49.259  1.00  0.00     0.113 A 
HETATM   24  C2  UNL     1      19.940   1.781  49.484  1.00  0.00     0.112 A 
HETATM   25  N1  UNL     1      19.226   1.887  50.634  1.00  0.00    -0.313 N 
HETATM   26  C1  UNL     1      18.513   0.770  51.241  1.00  0.00     0.160 C 
HETATM   27  C20 UNL     1      19.319   3.156  51.056  1.00  0.00     0.328 A 
HETATM   28  O1  UNL     1      18.761   3.575  52.104  1.00  0.00    -0.246 OA
ENDBRANCH  21  22
ENDBRANCH  20  21
ENDBRANCH  19  20
ENDBRANCH   1  19
BRANCH  16  29
HETATM   29  N6  UNL     1      27.611   0.216  52.915  1.00  0.00    -0.385 N 
HETATM   30  H23 UNL     1      27.751  -0.223  53.834  1.00  0.00     0.157 HD
HETATM   31  H24 UNL     1      28.270  -0.222  52.235  1.00  0.00     0.157 HD
ENDBRANCH  16  29
TORSDOF 5
ENDMDL
MODEL 6
REMARK VINA RESULT:      -7.9      3.268      9.058
REMARK  5 active torsions:
REMARK  status: ('A' for Active; 'I' for Inactive)
REMARK    1  A    between atoms: N2_5  and  C4_6 
REMARK    2  A    between atoms: C4_6  and  C5_7 
REMARK    3  A    between atoms: C5_7  and  C6_8 
REMARK    4  A    between atoms: C6_8  and  C7_9 
REMARK    5  A    between atoms: C19_24  and  N6_25 
ROOT
HETATM    1  C7  UNL     1      25.988   4.812  49.090  1.00  0.00     0.101 C 
HETATM    2  N3  UNL     1      27.248   4.925  48.885  1.00  0.00    -0.237 NA
HETATM    3  C8  UNL     1      27.888   6.059  48.178  1.00  0.00     0.370 C 
HETATM    4  C9  UNL     1      29.320   5.717  48.166  1.00  0.00     0.032 C 
HETATM    5  C10 UNL     1      30.669   5.765  48.302  1.00  0.00    -0.000 C 
HETATM    6  C11 UNL     1      31.560   6.844  48.804  1.00  0.00    -0.000 C 
HETATM    7  C12 UNL     1      31.514   8.112  49.237  1.00  0.00    -0.000 C 
HETATM    8  C13 UNL     1      30.562   9.208  49.444  1.00  0.00    -0.002 C 
HETATM    9  C14 UNL     1      29.257   9.291  49.108  1.00  0.00     0.003 C 
HETATM   10  C15 UNL     1      28.715   8.158  48.410  1.00  0.00     0.304 C 
HETATM   11  N4  UNL     1      27.691   7.314  48.891  1.00  0.00     0.138 NA
HETATM   12  C16 UNL     1      26.417   7.922  48.801  1.00  0.00     0.345 A 
HETATM   13  C17 UNL     1      25.297   7.133  48.283  1.00  0.00     0.069 A 
HETATM   14  C18 UNL     1      24.582   7.829  47.372  1.00  0.00     0.146 A 
HETATM   15  N5  UNL     1      25.231   9.092  47.275  1.00  0.00    -0.243 NA
HETATM   16  C19 UNL     1      26.268   9.174  48.066  1.00  0.00     0.137 A 
HETATM   17  N7  UNL     1      24.988   5.772  48.671  1.00  0.00    -0.345 N 
HETATM   18  H25 UNL     1      23.977   5.503  48.631  1.00  0.00     0.167 HD
ENDROOT
BRANCH   1  19
HETATM   19  C6  UNL     1      25.419   3.636  49.808  1.00  0.00     0.080 C 
BRANCH  19  20
HETATM   20  C5  UNL     1      26.474   2.828  50.501  1.00  0.00     0.028 C 
BRANCH  20  21
HETATM   21  C4  UNL     1      26.009   2.425  51.888  1.00  0.00     0.133 C 
BRANCH  21  22
HETATM   22  N2  UNL     1      26.732   1.227  52.339  1.00  0.00    -0.308 N 
HETATM   23  C3  UNL     1      26.408  -0.067  52.296  1.00  0.00     0.113 A 
HETATM   24  C2  UNL     1      27.409  -0.834  52.844  1.00  0.00     0.112 A 
HETATM   25  N1  UNL     1      28.366   0.051  53.228  1.00  0.00    -0.313 N 
HETATM   26  C1  UNL     1      29.616  -0.344  53.863  1.00  0.00     0.160 C 
HETATM   27  C20 UNL     1      27.933   1.280  52.913  1.00  0.00     0.328 A 
HETATM   28  O1  UNL     1      28.598   2.324  53.143  1.00  0.00    -0.246 OA
ENDBRANCH  21  22
ENDBRANCH  20  21
ENDBRANCH  19  20
ENDBRANCH   1  19
BRANCH  16  29
HETATM   29  N6  UNL     1      26.682  10.532  47.734  1.00  0.00    -0.385 N 
HETATM   30  H23 UNL     1      27.591  10.963  47.945  1.00  0.00     0.157 HD
HETATM   31  H24 UNL     1      26.091  11.232  47.235  1.00  0.00     0.157 HD
ENDBRANCH  16  29
TORSDOF 5
ENDMDL
MODEL 7
REMARK VINA RESULT:      -7.6      1.863      3.766
REMARK  5 active torsions:
REMARK  status: ('A' for Active; 'I' for Inactive)
REMARK    1  A    between atoms: N2_5  and  C4_6 
REMARK    2  A    between atoms: C4_6  and  C5_7 
REMARK    3  A    between atoms: C5_7  and  C6_8 
REMARK    4  A    between atoms: C6_8  and  C7_9 
REMARK    5  A    between atoms: C19_24  and  N6_25 
ROOT
HETATM    1  C7  UNL     1      24.124   4.378  50.185  1.00  0.00     0.101 C 
HETATM    2  N3  UNL     1      24.759   3.747  51.103  1.00  0.00    -0.237 NA
HETATM    3  C8  UNL     1      24.130   3.154  52.306  1.00  0.00     0.370 C 
HETATM    4  C9  UNL     1      25.258   2.582  53.059  1.00  0.00     0.032 C 
HETATM    5  C10 UNL     1      26.066   1.737  53.747  1.00  0.00    -0.000 C 
HETATM    6  C11 UNL     1      25.877   0.316  54.146  1.00  0.00    -0.000 C 
HETATM    7  C12 UNL     1      24.962  -0.662  54.102  1.00  0.00    -0.000 C 
HETATM    8  C13 UNL     1      23.585  -0.910  53.666  1.00  0.00    -0.002 C 
HETATM    9  C14 UNL     1      22.662  -0.046  53.191  1.00  0.00     0.003 C 
HETATM   10  C15 UNL     1      23.064   1.332  53.134  1.00  0.00     0.304 C 
HETATM   11  N4  UNL     1      23.190   2.099  51.955  1.00  0.00     0.138 NA
HETATM   12  C16 UNL     1      21.932   2.490  51.440  1.00  0.00     0.345 A 
HETATM   13  C17 UNL     1      21.755   3.874  50.994  1.00  0.00     0.069 A 
HETATM   14  C18 UNL     1      20.603   4.400  51.461  1.00  0.00     0.146 A 
HETATM   15  N5  UNL     1      20.004   3.362  52.230  1.00  0.00    -0.243 NA
HETATM   16  C19 UNL     1      20.730   2.275  52.238  1.00  0.00     0.137 A 
HETATM   17  N7  UNL     1      22.694   4.610  50.172  1.00  0.00    -0.345 N 
HETATM   18  H25 UNL     1      22.281   5.343  49.549  1.00  0.00     0.167 HD
ENDROOT
BRANCH   1  19
HETATM   19  C6  UNL     1      24.830   4.949  49.003  1.00  0.00     0.080 C 
BRANCH  19  20
HETATM   20  C5  UNL     1      26.067   5.701  49.388  1.00  0.00     0.028 C 
BRANCH  20  21
HETATM   21  C4  UNL     1      27.276   5.141  48.663  1.00  0.00     0.133 C 
BRANCH  21  22
HETATM   22  N2  UNL     1      28.109   6.235  48.140  1.00  0.00    -0.308 N 
HETATM   23  C3  UNL     1      27.785   7.434  47.654  1.00  0.00     0.113 A 
HETATM   24  C2  UNL     1      28.915   8.124  47.281  1.00  0.00     0.112 A 
HETATM   25  N1  UNL     1      29.950   7.291  47.560  1.00  0.00    -0.313 N 
HETATM   26  C1  UNL     1      31.345   7.634  47.316  1.00  0.00     0.160 C 
HETATM   27  C20 UNL     1      29.437   6.164  48.075  1.00  0.00     0.328 A 
HETATM   28  O1  UNL     1      30.146   5.188  48.437  1.00  0.00    -0.246 OA
ENDBRANCH  21  22
ENDBRANCH  20  21
ENDBRANCH  19  20
ENDBRANCH   1  19
BRANCH  16  29
HETATM   29  N6  UNL     1      19.868   1.451  53.077  1.00  0.00    -0.385 N 
HETATM   30  H23 UNL     1      19.178   0.762  52.753  1.00  0.00     0.157 HD
HETATM   31  H24 UNL     1      19.856   1.467  54.120  1.00  0.00     0.157 HD
ENDBRANCH  16  29
TORSDOF 5
ENDMDL
MODEL 8
REMARK VINA RESULT:      -7.4      4.150      8.050
REMARK  5 active torsions:
REMARK  status: ('A' for Active; 'I' for Inactive)
REMARK    1  A    between atoms: N2_5  and  C4_6 
REMARK    2  A    between atoms: C4_6  and  C5_7 
REMARK    3  A    between atoms: C5_7  and  C6_8 
REMARK    4  A    between atoms: C6_8  and  C7_9 
REMARK    5  A    between atoms: C19_24  and  N6_25 
ROOT
HETATM    1  C7  UNL     1      21.193   1.879  51.477  1.00  0.00     0.101 C 
HETATM    2  N3  UNL     1      22.434   2.201  51.525  1.00  0.00    -0.237 NA
HETATM    3  C8  UNL     1      23.354   1.845  52.630  1.00  0.00     0.370 C 
HETATM    4  C9  UNL     1      24.635   2.460  52.247  1.00  0.00     0.032 C 
HETATM    5  C10 UNL     1      25.946   2.663  51.964  1.00  0.00    -0.000 C 
HETATM    6  C11 UNL     1      27.107   1.734  52.002  1.00  0.00    -0.000 C 
HETATM    7  C12 UNL     1      27.418   0.473  52.335  1.00  0.00    -0.000 C 
HETATM    8  C13 UNL     1      26.808  -0.737  52.894  1.00  0.00    -0.002 C 
HETATM    9  C14 UNL     1      25.572  -0.922  53.407  1.00  0.00     0.003 C 
HETATM   10  C15 UNL     1      24.731   0.242  53.452  1.00  0.00     0.304 C 
HETATM   11  N4  UNL     1      23.519   0.402  52.746  1.00  0.00     0.138 NA
HETATM   12  C16 UNL     1      22.462  -0.330  53.335  1.00  0.00     0.345 A 
HETATM   13  C17 UNL     1      21.161   0.323  53.501  1.00  0.00     0.069 A 
HETATM   14  C18 UNL     1      20.657   0.112  54.736  1.00  0.00     0.146 A 
HETATM   15  N5  UNL     1      21.628  -0.685  55.405  1.00  0.00    -0.243 NA
HETATM   16  C19 UNL     1      22.656  -0.949  54.642  1.00  0.00     0.137 A 
HETATM   17  N7  UNL     1      20.493   1.116  52.489  1.00  0.00    -0.345 N 
HETATM   18  H25 UNL     1      19.447   1.114  52.523  1.00  0.00     0.167 HD
ENDROOT
BRANCH   1  19
HETATM   19  C6  UNL     1      20.331   2.278  50.329  1.00  0.00     0.080 C 
BRANCH  19  20
HETATM   20  C5  UNL     1      19.497   1.141  49.823  1.00  0.00     0.028 C 
BRANCH  20  21
HETATM   21  C4  UNL     1      18.031   1.533  49.785  1.00  0.00     0.133 C 
BRANCH  21  22
HETATM   22  N2  UNL     1      17.282   0.806  50.821  1.00  0.00    -0.308 N 
HETATM   23  C3  UNL     1      17.497  -0.377  51.399  1.00  0.00     0.113 A 
HETATM   24  C2  UNL     1      16.517  -0.646  52.326  1.00  0.00     0.112 A 
HETATM   25  N1  UNL     1      15.688   0.429  52.291  1.00  0.00    -0.313 N 
HETATM   26  C1  UNL     1      14.503   0.556  53.128  1.00  0.00     0.160 C 
HETATM   27  C20 UNL     1      16.171   1.285  51.379  1.00  0.00     0.328 A 
HETATM   28  O1  UNL     1      15.622   2.386  51.110  1.00  0.00    -0.246 OA
ENDBRANCH  21  22
ENDBRANCH  20  21
ENDBRANCH  19  20
ENDBRANCH   1  19
BRANCH  16  29
HETATM   29  N6  UNL     1      23.425  -1.745  55.591  1.00  0.00    -0.385 N 
HETATM   30  H23 UNL     1      23.271  -2.733  55.826  1.00  0.00     0.157 HD
HETATM   31  H24 UNL     1      24.234  -1.394  56.149  1.00  0.00     0.157 HD
ENDBRANCH  16  29
TORSDOF 5
ENDMDL
MODEL 9
REMARK VINA RESULT:      -7.4      2.315      3.121
REMARK  5 active torsions:
REMARK  status: ('A' for Active; 'I' for Inactive)
REMARK    1  A    between atoms: N2_5  and  C4_6 
REMARK    2  A    between atoms: C4_6  and  C5_7 
REMARK    3  A    between atoms: C5_7  and  C6_8 
REMARK    4  A    between atoms: C6_8  and  C7_9 
REMARK    5  A    between atoms: C19_24  and  N6_25 
ROOT
HETATM    1  C7  UNL     1      23.148   4.974  48.779  1.00  0.00     0.101 C 
HETATM    2  N3  UNL     1      22.503   3.902  49.057  1.00  0.00    -0.237 NA
HETATM    3  C8  UNL     1      23.120   2.656  49.568  1.00  0.00     0.370 C 
HETATM    4  C9  UNL     1      21.992   1.718  49.694  1.00  0.00     0.032 C 
HETATM    5  C10 UNL     1      21.101   0.814  50.173  1.00  0.00    -0.000 C 
HETATM    6  C11 UNL     1      21.001   0.153  51.502  1.00  0.00    -0.000 C 
HETATM    7  C12 UNL     1      21.650   0.069  52.671  1.00  0.00    -0.000 C 
HETATM    8  C13 UNL     1      22.867   0.551  53.332  1.00  0.00    -0.002 C 
HETATM    9  C14 UNL     1      23.900   1.260  52.827  1.00  0.00     0.003 C 
HETATM   10  C15 UNL     1      23.826   1.562  51.424  1.00  0.00     0.304 C 
HETATM   11  N4  UNL     1      23.737   2.858  50.871  1.00  0.00     0.138 NA
HETATM   12  C16 UNL     1      24.977   3.536  50.908  1.00  0.00     0.345 A 
HETATM   13  C17 UNL     1      25.416   4.264  49.714  1.00  0.00     0.069 A 
HETATM   14  C18 UNL     1      26.708   4.002  49.423  1.00  0.00     0.146 A 
HETATM   15  N5  UNL     1      27.139   3.089  50.425  1.00  0.00    -0.243 NA
HETATM   16  C19 UNL     1      26.186   2.806  51.275  1.00  0.00     0.137 A 
HETATM   17  N7  UNL     1      24.580   5.143  48.922  1.00  0.00    -0.345 N 
HETATM   18  H25 UNL     1      25.072   5.930  48.438  1.00  0.00     0.167 HD
ENDROOT
BRANCH   1  19
HETATM   19  C6  UNL     1      22.454   6.189  48.266  1.00  0.00     0.080 C 
BRANCH  19  20
HETATM   20  C5  UNL     1      23.416   7.258  47.846  1.00  0.00     0.028 C 
BRANCH  20  21
HETATM   21  C4  UNL     1      23.363   8.429  48.809  1.00  0.00     0.133 C 
BRANCH  21  22
HETATM   22  N2  UNL     1      24.651   9.139  48.821  1.00  0.00    -0.308 N 
HETATM   23  C3  UNL     1      25.052  10.249  48.200  1.00  0.00     0.113 A 
HETATM   24  C2  UNL     1      26.360  10.534  48.517  1.00  0.00     0.112 A 
HETATM   25  N1  UNL     1      26.744   9.544  49.364  1.00  0.00    -0.313 N 
HETATM   26  C1  UNL     1      28.076   9.462  49.949  1.00  0.00     0.160 C 
HETATM   27  C20 UNL     1      25.699   8.721  49.529  1.00  0.00     0.328 A 
HETATM   28  O1  UNL     1      25.738   7.698  50.262  1.00  0.00    -0.246 OA
ENDBRANCH  21  22
ENDBRANCH  20  21
ENDBRANCH  19  20
ENDBRANCH   1  19
BRANCH  16  29
HETATM   29  N6  UNL     1      26.929   1.887  52.129  1.00  0.00    -0.385 N 
HETATM   30  H23 UNL     1      27.215   2.052  53.102  1.00  0.00     0.157 HD
HETATM   31  H24 UNL     1      27.259   0.940  51.843  1.00  0.00     0.157 HD
ENDBRANCH  16  29
TORSDOF 5
ENDMDL
