MODEL 1
REMARK VINA RESULT:      -8.8      0.000      0.000
REMARK  5 active torsions:
REMARK  status: ('A' for Active; 'I' for Inactive)
REMARK    1  A    between atoms: N1_1  and  C1_2 
REMARK    2  A    between atoms: C1_2  and  N2_3 
REMARK    3  A    between atoms: C5_7  and  C6_8 
REMARK    4  A    between atoms: C12_17  and  C13_18 
REMARK    5  A    between atoms: C13_18  and  C14_19 
ROOT
HETATM    1  C6  UNL     1      25.336   3.674  50.057  1.00  0.00     0.089 A 
HETATM    2  C7  UNL     1      25.843   2.739  50.958  1.00  0.00     0.061 A 
HETATM    3  C8  UNL     1      25.096   1.680  51.497  1.00  0.00     0.056 A 
HETATM    4  N3  UNL     1      23.896   1.713  51.029  1.00  0.00    -0.068 NA
HETATM    5  C9  UNL     1      23.320   2.513  50.204  1.00  0.00     0.723 A 
HETATM    6  N4  UNL     1      24.019   3.527  49.687  1.00  0.00    -0.062 NA
HETATM    7  N5  UNL     1      22.054   1.916  50.209  1.00  0.00    -0.219 N 
HETATM    8  C10 UNL     1      20.853   1.829  50.975  1.00  0.00     0.165 C 
HETATM    9  C11 UNL     1      20.949   1.137  52.287  1.00  0.00    -0.004 C 
HETATM   10  C12 UNL     1      21.731   0.522  53.228  1.00  0.00    -0.075 C 
HETATM   11  C15 UNL     1      23.214   0.318  53.406  1.00  0.00     0.028 C 
HETATM   12  C16 UNL     1      24.531   0.262  53.366  1.00  0.00     0.005 C 
HETATM   13  C17 UNL     1      25.653   0.743  52.497  1.00  0.00     0.065 C 
HETATM   14  H8  UNL     1      22.213   1.445  49.272  1.00  0.00     0.178 HD
ENDROOT
BRANCH   1  15
HETATM   15  C5  UNL     1      26.104   4.793  49.546  1.00  0.00     0.006 A 
HETATM   16  C4  UNL     1      25.745   6.089  49.799  1.00  0.00     0.005 A 
HETATM   17  C3  UNL     1      24.743   6.694  50.464  1.00  0.00     0.032 A 
HETATM   18  C21 UNL     1      26.581   7.050  49.298  1.00  0.00     0.046 A 
HETATM   19  C2  UNL     1      24.918   8.098  50.404  1.00  0.00     0.094 A 
HETATM   20  N2  UNL     1      26.061   8.257  49.677  1.00  0.00    -0.330 N 
HETATM   21  C20 UNL     1      27.744   6.792  48.564  1.00  0.00     0.030 A 
HETATM   22  C19 UNL     1      28.028   5.463  48.357  1.00  0.00     0.003 A 
HETATM   23  C18 UNL     1      27.225   4.420  48.836  1.00  0.00     0.015 A 
BRANCH  20  24
HETATM   24  C1  UNL     1      26.648   9.530  49.323  1.00  0.00     0.396 C 
BRANCH  24  25
HETATM   25  N1  UNL     1      27.828   9.863  50.063  1.00  0.00     0.096 N 
HETATM   26  H1  UNL     1      28.430   8.990  50.057  1.00  0.00     0.314 HD
HETATM   27  H2  UNL     1      27.523   9.910  51.090  1.00  0.00     0.314 HD
ENDBRANCH  24  25
ENDBRANCH  20  24
ENDBRANCH   1  15
BRANCH  10  28
HETATM   28  C13 UNL     1      21.271  -0.074  54.511  1.00  0.00     0.065 C 
BRANCH  28  29
HETATM   29  C14 UNL     1      21.366  -1.586  54.509  1.00  0.00     0.226 C 
HETATM   30  F1  UNL     1      22.402  -2.041  55.286  1.00  0.00    -0.255 F 
ENDBRANCH  28  29
ENDBRANCH  10  28
TORSDOF 5
ENDMDL
MODEL 2
REMARK VINA RESULT:      -8.7      3.264      8.559
REMARK  5 active torsions:
REMARK  status: ('A' for Active; 'I' for Inactive)
REMARK    1  A    between atoms: N1_1  and  C1_2 
REMARK    2  A    between atoms: C1_2  and  N2_3 
REMARK    3  A    between atoms: C5_7  and  C6_8 
REMARK    4  A    between atoms: C12_17  and  C13_18 
REMARK    5  A    between atoms: C13_18  and  C14_19 
ROOT
HETATM    1  C6  UNL     1      23.198   1.549  52.821  1.00  0.00     0.089 A 
HETATM    2  C7  UNL     1      24.363   1.306  52.097  1.00  0.00     0.061 A 
HETATM    3  C8  UNL     1      25.198   2.313  51.588  1.00  0.00     0.056 A 
HETATM    4  N3  UNL     1      24.721   3.469  51.898  1.00  0.00    -0.068 NA
HETATM    5  C9  UNL     1      23.672   3.816  52.552  1.00  0.00     0.723 A 
HETATM    6  N4  UNL     1      22.867   2.866  53.039  1.00  0.00    -0.062 NA
HETATM    7  N5  UNL     1      23.833   5.203  52.456  1.00  0.00    -0.219 N 
HETATM    8  C10 UNL     1      23.645   6.299  51.562  1.00  0.00     0.165 C 
HETATM    9  C11 UNL     1      24.513   6.328  50.355  1.00  0.00    -0.004 C 
HETATM   10  C12 UNL     1      25.471   5.717  49.590  1.00  0.00    -0.075 C 
HETATM   11  C15 UNL     1      26.156   4.375  49.621  1.00  0.00     0.028 C 
HETATM   12  C16 UNL     1      26.618   3.158  49.830  1.00  0.00     0.005 C 
HETATM   13  C17 UNL     1      26.396   2.015  50.773  1.00  0.00     0.065 C 
HETATM   14  H8  UNL     1      24.190   5.284  53.451  1.00  0.00     0.178 HD
ENDROOT
BRANCH   1  15
HETATM   15  C5  UNL     1      22.317   0.500  53.298  1.00  0.00     0.006 A 
HETATM   16  C4  UNL     1      21.011   0.419  52.899  1.00  0.00     0.005 A 
HETATM   17  C3  UNL     1      20.208   1.139  52.094  1.00  0.00     0.032 A 
HETATM   18  C21 UNL     1      20.301  -0.646  53.387  1.00  0.00     0.046 A 
HETATM   19  C2  UNL     1      18.928   0.535  52.044  1.00  0.00     0.094 A 
HETATM   20  N2  UNL     1      19.044  -0.554  52.856  1.00  0.00    -0.330 N 
HETATM   21  C20 UNL     1      20.818  -1.624  54.245  1.00  0.00     0.030 A 
HETATM   22  C19 UNL     1      22.138  -1.463  54.594  1.00  0.00     0.003 A 
HETATM   23  C18 UNL     1      22.932  -0.403  54.138  1.00  0.00     0.015 A 
BRANCH  20  24
HETATM   24  C1  UNL     1      17.981  -1.489  53.146  1.00  0.00     0.396 C 
BRANCH  24  25
HETATM   25  N1  UNL     1      16.671  -0.909  53.167  1.00  0.00     0.096 N 
HETATM   26  H1  UNL     1      16.707  -0.140  53.896  1.00  0.00     0.314 HD
HETATM   27  H2  UNL     1      16.041  -1.632  53.645  1.00  0.00     0.314 HD
ENDBRANCH  24  25
ENDBRANCH  20  24
ENDBRANCH   1  15
BRANCH  10  28
HETATM   28  C13 UNL     1      26.069   6.241  48.333  1.00  0.00     0.065 C 
BRANCH  28  29
HETATM   29  C14 UNL     1      27.506   6.684  48.520  1.00  0.00     0.226 C 
HETATM   30  F1  UNL     1      28.381   5.928  47.781  1.00  0.00    -0.255 F 
ENDBRANCH  28  29
ENDBRANCH  10  28
TORSDOF 5
ENDMDL
MODEL 3
REMARK VINA RESULT:      -8.4      3.313      8.518
REMARK  5 active torsions:
REMARK  status: ('A' for Active; 'I' for Inactive)
REMARK    1  A    between atoms: N1_1  and  C1_2 
REMARK    2  A    between atoms: C1_2  and  N2_3 
REMARK    3  A    between atoms: C5_7  and  C6_8 
REMARK    4  A    between atoms: C12_17  and  C13_18 
REMARK    5  A    between atoms: C13_18  and  C14_19 
ROOT
HETATM    1  C6  UNL     1      23.876   3.252  50.807  1.00  0.00     0.089 A 
HETATM    2  C7  UNL     1      25.083   3.174  50.115  1.00  0.00     0.061 A 
HETATM    3  C8  UNL     1      25.930   4.270  49.884  1.00  0.00     0.056 A 
HETATM    4  N3  UNL     1      25.420   5.330  50.409  1.00  0.00    -0.068 NA
HETATM    5  C9  UNL     1      24.330   5.524  51.063  1.00  0.00     0.723 A 
HETATM    6  N4  UNL     1      23.515   4.490  51.285  1.00  0.00    -0.062 NA
HETATM    7  N5  UNL     1      24.476   6.899  51.278  1.00  0.00    -0.219 N 
HETATM    8  C10 UNL     1      24.322   8.162  50.633  1.00  0.00     0.165 C 
HETATM    9  C11 UNL     1      25.254   8.455  49.512  1.00  0.00    -0.004 C 
HETATM   10  C12 UNL     1      26.262   8.027  48.689  1.00  0.00    -0.075 C 
HETATM   11  C15 UNL     1      26.964   6.711  48.468  1.00  0.00     0.028 C 
HETATM   12  C16 UNL     1      27.432   5.479  48.434  1.00  0.00     0.005 C 
HETATM   13  C17 UNL     1      27.175   4.159  49.094  1.00  0.00     0.065 C 
HETATM   14  H8  UNL     1      24.777   6.764  52.286  1.00  0.00     0.178 HD
ENDROOT
BRANCH   1  15
HETATM   15  C5  UNL     1      22.985   2.122  50.995  1.00  0.00     0.006 A 
HETATM   16  C4  UNL     1      23.145   1.243  52.030  1.00  0.00     0.005 A 
HETATM   17  C3  UNL     1      24.016   1.107  53.048  1.00  0.00     0.032 A 
HETATM   18  C21 UNL     1      22.209   0.247  52.121  1.00  0.00     0.046 A 
HETATM   19  C2  UNL     1      23.649  -0.009  53.837  1.00  0.00     0.094 A 
HETATM   20  N2  UNL     1      22.534  -0.497  53.221  1.00  0.00    -0.330 N 
HETATM   21  C20 UNL     1      21.133   0.082  51.241  1.00  0.00     0.030 A 
HETATM   22  C19 UNL     1      21.050   1.011  50.230  1.00  0.00     0.003 A 
HETATM   23  C18 UNL     1      21.966   2.058  50.070  1.00  0.00     0.015 A 
BRANCH  20  24
HETATM   24  C1  UNL     1      21.793  -1.663  53.648  1.00  0.00     0.396 C 
BRANCH  24  25
HETATM   25  N1  UNL     1      20.670  -1.374  54.488  1.00  0.00     0.096 N 
HETATM   26  H1  UNL     1      21.040  -0.752  55.263  1.00  0.00     0.314 HD
HETATM   27  H2  UNL     1      20.464  -2.282  55.019  1.00  0.00     0.314 HD
ENDBRANCH  24  25
ENDBRANCH  20  24
ENDBRANCH   1  15
BRANCH  10  28
HETATM   28  C13 UNL     1      26.921   8.812  47.611  1.00  0.00     0.065 C 
BRANCH  28  29
HETATM   29  C14 UNL     1      28.341   9.200  47.967  1.00  0.00     0.226 C 
HETATM   30  F1  UNL     1      28.461   9.581  49.280  1.00  0.00    -0.255 F 
ENDBRANCH  28  29
ENDBRANCH  10  28
TORSDOF 5
ENDMDL
MODEL 4
REMARK VINA RESULT:      -8.3      1.181      2.091
REMARK  5 active torsions:
REMARK  status: ('A' for Active; 'I' for Inactive)
REMARK    1  A    between atoms: N1_1  and  C1_2 
REMARK    2  A    between atoms: C1_2  and  N2_3 
REMARK    3  A    between atoms: C5_7  and  C6_8 
REMARK    4  A    between atoms: C12_17  and  C13_18 
REMARK    5  A    between atoms: C13_18  and  C14_19 
ROOT
HETATM    1  C6  UNL     1      24.707   4.062  50.340  1.00  0.00     0.089 A 
HETATM    2  C7  UNL     1      25.288   3.158  51.227  1.00  0.00     0.061 A 
HETATM    3  C8  UNL     1      24.756   1.892  51.521  1.00  0.00     0.056 A 
HETATM    4  N3  UNL     1      23.671   1.711  50.850  1.00  0.00    -0.068 NA
HETATM    5  C9  UNL     1      23.046   2.460  50.014  1.00  0.00     0.723 A 
HETATM    6  N4  UNL     1      23.540   3.668  49.728  1.00  0.00    -0.062 NA
HETATM    7  N5  UNL     1      21.983   1.592  49.735  1.00  0.00    -0.219 N 
HETATM    8  C10 UNL     1      20.740   1.129  50.261  1.00  0.00     0.165 C 
HETATM    9  C11 UNL     1      20.806   0.308  51.498  1.00  0.00    -0.004 C 
HETATM   10  C12 UNL     1      21.565  -0.231  52.503  1.00  0.00    -0.075 C 
HETATM   11  C15 UNL     1      23.008  -0.110  52.924  1.00  0.00     0.028 C 
HETATM   12  C16 UNL     1      24.287   0.144  53.116  1.00  0.00     0.005 C 
HETATM   13  C17 UNL     1      25.371   0.983  52.513  1.00  0.00     0.065 C 
HETATM   14  H8  UNL     1      22.395   1.301  48.802  1.00  0.00     0.178 HD
ENDROOT
BRANCH   1  15
HETATM   15  C5  UNL     1      25.239   5.387  50.083  1.00  0.00     0.006 A 
HETATM   16  C4  UNL     1      26.411   5.573  49.401  1.00  0.00     0.005 A 
HETATM   17  C3  UNL     1      27.332   4.768  48.840  1.00  0.00     0.032 A 
HETATM   18  C21 UNL     1      26.778   6.874  49.185  1.00  0.00     0.046 A 
HETATM   19  C2  UNL     1      28.340   5.556  48.234  1.00  0.00     0.094 A 
HETATM   20  N2  UNL     1      27.948   6.839  48.478  1.00  0.00    -0.330 N 
HETATM   21  C20 UNL     1      26.047   7.990  49.611  1.00  0.00     0.030 A 
HETATM   22  C19 UNL     1      24.884   7.710  50.288  1.00  0.00     0.003 A 
HETATM   23  C18 UNL     1      24.439   6.408  50.549  1.00  0.00     0.015 A 
BRANCH  20  24
HETATM   24  C1  UNL     1      28.674   8.020  48.069  1.00  0.00     0.396 C 
BRANCH  24  25
HETATM   25  N1  UNL     1      29.594   8.517  49.046  1.00  0.00     0.096 N 
HETATM   26  H1  UNL     1      29.883   7.678  49.626  1.00  0.00     0.314 HD
HETATM   27  H2  UNL     1      29.002   9.071  49.747  1.00  0.00     0.314 HD
ENDBRANCH  24  25
ENDBRANCH  20  24
ENDBRANCH   1  15
BRANCH  10  28
HETATM   28  C13 UNL     1      21.079  -1.084  53.621  1.00  0.00     0.065 C 
BRANCH  28  29
HETATM   29  C14 UNL     1      21.359  -0.469  54.977  1.00  0.00     0.226 C 
HETATM   30  F1  UNL     1      20.585   0.639  55.213  1.00  0.00    -0.255 F 
ENDBRANCH  28  29
ENDBRANCH  10  28
TORSDOF 5
ENDMDL
MODEL 5
REMARK VINA RESULT:      -8.3      4.156      8.650
REMARK  5 active torsions:
REMARK  status: ('A' for Active; 'I' for Inactive)
REMARK    1  A    between atoms: N1_1  and  C1_2 
REMARK    2  A    between atoms: C1_2  and  N2_3 
REMARK    3  A    between atoms: C5_7  and  C6_8 
REMARK    4  A    between atoms: C12_17  and  C13_18 
REMARK    5  A    between atoms: C13_18  and  C14_19 
ROOT
HETATM    1  C6  UNL     1      21.271   0.568  52.097  1.00  0.00     0.089 A 
HETATM    2  C7  UNL     1      21.772  -0.157  53.177  1.00  0.00     0.061 A 
HETATM    3  C8  UNL     1      23.077  -0.024  53.677  1.00  0.00     0.056 A 
HETATM    4  N3  UNL     1      23.716   0.860  52.990  1.00  0.00    -0.068 NA
HETATM    5  C9  UNL     1      23.366   1.584  51.988  1.00  0.00     0.723 A 
HETATM    6  N4  UNL     1      22.128   1.463  51.501  1.00  0.00    -0.062 NA
HETATM    7  N5  UNL     1      24.578   2.261  51.807  1.00  0.00    -0.219 N 
HETATM    8  C10 UNL     1      25.882   2.106  51.249  1.00  0.00     0.165 C 
HETATM    9  C11 UNL     1      26.776   1.121  51.913  1.00  0.00    -0.004 C 
HETATM   10  C12 UNL     1      26.947   0.160  52.873  1.00  0.00    -0.075 C 
HETATM   11  C15 UNL     1      26.034  -0.537  53.850  1.00  0.00     0.028 C 
HETATM   12  C16 UNL     1      25.068  -1.019  54.607  1.00  0.00     0.005 C 
HETATM   13  C17 UNL     1      23.590  -0.854  54.788  1.00  0.00     0.065 C 
HETATM   14  H8  UNL     1      24.215   3.144  52.268  1.00  0.00     0.178 HD
ENDROOT
BRANCH   1  15
HETATM   15  C5  UNL     1      19.937   0.384  51.558  1.00  0.00     0.006 A 
HETATM   16  C4  UNL     1      18.995  -0.366  52.206  1.00  0.00     0.005 A 
HETATM   17  C3  UNL     1      18.958  -1.085  53.344  1.00  0.00     0.032 A 
HETATM   18  C21 UNL     1      17.761  -0.421  51.614  1.00  0.00     0.046 A 
HETATM   19  C2  UNL     1      17.663  -1.632  53.514  1.00  0.00     0.094 A 
HETATM   20  N2  UNL     1      16.973  -1.192  52.423  1.00  0.00    -0.330 N 
HETATM   21  C20 UNL     1      17.421   0.225  50.420  1.00  0.00     0.030 A 
HETATM   22  C19 UNL     1      18.428   0.957  49.837  1.00  0.00     0.003 A 
HETATM   23  C18 UNL     1      19.715   1.064  50.379  1.00  0.00     0.015 A 
BRANCH  20  24
HETATM   24  C1  UNL     1      15.592  -1.508  52.131  1.00  0.00     0.396 C 
BRANCH  24  25
HETATM   25  N1  UNL     1      14.643  -0.850  52.978  1.00  0.00     0.096 N 
HETATM   26  H1  UNL     1      15.210  -0.398  53.752  1.00  0.00     0.314 HD
HETATM   27  H2  UNL     1      14.137  -1.632  53.509  1.00  0.00     0.314 HD
ENDBRANCH  24  25
ENDBRANCH  20  24
ENDBRANCH   1  15
BRANCH  10  28
HETATM   28  C13 UNL     1      28.193  -0.601  53.155  1.00  0.00     0.065 C 
BRANCH  28  29
HETATM   29  C14 UNL     1      29.245   0.251  53.836  1.00  0.00     0.226 C 
HETATM   30  F1  UNL     1      30.519  -0.125  53.491  1.00  0.00    -0.255 F 
ENDBRANCH  28  29
ENDBRANCH  10  28
TORSDOF 5
ENDMDL
MODEL 6
REMARK VINA RESULT:      -8.3      4.055      9.120
REMARK  5 active torsions:
REMARK  status: ('A' for Active; 'I' for Inactive)
REMARK    1  A    between atoms: N1_1  and  C1_2 
REMARK    2  A    between atoms: C1_2  and  N2_3 
REMARK    3  A    between atoms: C5_7  and  C6_8 
REMARK    4  A    between atoms: C12_17  and  C13_18 
REMARK    5  A    between atoms: C13_18  and  C14_19 
ROOT
HETATM    1  C6  UNL     1      26.014   4.467  49.705  1.00  0.00     0.089 A 
HETATM    2  C7  UNL     1      25.665   5.811  49.819  1.00  0.00     0.061 A 
HETATM    3  C8  UNL     1      26.444   6.871  49.328  1.00  0.00     0.056 A 
HETATM    4  N3  UNL     1      27.506   6.404  48.767  1.00  0.00    -0.068 NA
HETATM    5  C9  UNL     1      27.932   5.203  48.603  1.00  0.00     0.723 A 
HETATM    6  N4  UNL     1      27.200   4.186  49.068  1.00  0.00    -0.062 NA
HETATM    7  N5  UNL     1      29.124   5.509  47.937  1.00  0.00    -0.219 N 
HETATM    8  C10 UNL     1      30.459   5.957  48.168  1.00  0.00     0.165 C 
HETATM    9  C11 UNL     1      30.617   7.355  48.649  1.00  0.00    -0.004 C 
HETATM   10  C12 UNL     1      30.031   8.521  49.064  1.00  0.00    -0.075 C 
HETATM   11  C15 UNL     1      28.616   8.949  49.363  1.00  0.00     0.028 C 
HETATM   12  C16 UNL     1      27.324   9.104  49.574  1.00  0.00     0.005 C 
HETATM   13  C17 UNL     1      26.069   8.289  49.520  1.00  0.00     0.065 C 
HETATM   14  H8  UNL     1      28.726   5.245  46.990  1.00  0.00     0.178 HD
ENDROOT
BRANCH   1  15
HETATM   15  C5  UNL     1      25.224   3.384  50.261  1.00  0.00     0.006 A 
HETATM   16  C4  UNL     1      25.731   2.535  51.206  1.00  0.00     0.005 A 
HETATM   17  C3  UNL     1      26.911   2.396  51.838  1.00  0.00     0.032 A 
HETATM   18  C21 UNL     1      24.867   1.585  51.682  1.00  0.00     0.046 A 
HETATM   19  C2  UNL     1      26.830   1.325  52.760  1.00  0.00     0.094 A 
HETATM   20  N2  UNL     1      25.554   0.865  52.620  1.00  0.00    -0.330 N 
HETATM   21  C20 UNL     1      23.538   1.436  51.267  1.00  0.00     0.030 A 
HETATM   22  C19 UNL     1      23.114   2.332  50.315  1.00  0.00     0.003 A 
HETATM   23  C18 UNL     1      23.934   3.332  49.778  1.00  0.00     0.015 A 
BRANCH  20  24
HETATM   24  C1  UNL     1      24.990  -0.252  53.345  1.00  0.00     0.396 C 
BRANCH  24  25
HETATM   25  N1  UNL     1      25.945  -1.016  54.090  1.00  0.00     0.096 N 
HETATM   26  H1  UNL     1      26.427  -1.645  53.385  1.00  0.00     0.314 HD
HETATM   27  H2  UNL     1      25.373  -1.723  54.656  1.00  0.00     0.314 HD
ENDBRANCH  24  25
ENDBRANCH  20  24
ENDBRANCH   1  15
BRANCH  10  28
HETATM   28  C13 UNL     1      30.730   9.769  49.472  1.00  0.00     0.065 C 
BRANCH  28  29
HETATM   29  C14 UNL     1      30.448  10.921  48.530  1.00  0.00     0.226 C 
HETATM   30  F1  UNL     1      30.661  12.140  49.123  1.00  0.00    -0.255 F 
ENDBRANCH  28  29
ENDBRANCH  10  28
TORSDOF 5
ENDMDL
MODEL 7
REMARK VINA RESULT:      -8.0      5.390      8.317
REMARK  5 active torsions:
REMARK  status: ('A' for Active; 'I' for Inactive)
REMARK    1  A    between atoms: N1_1  and  C1_2 
REMARK    2  A    between atoms: C1_2  and  N2_3 
REMARK    3  A    between atoms: C5_7  and  C6_8 
REMARK    4  A    between atoms: C12_17  and  C13_18 
REMARK    5  A    between atoms: C13_18  and  C14_19 
ROOT
HETATM    1  C6  UNL     1      20.123   1.175  52.076  1.00  0.00     0.089 A 
HETATM    2  C7  UNL     1      19.207   0.129  52.170  1.00  0.00     0.061 A 
HETATM    3  C8  UNL     1      17.824   0.275  51.974  1.00  0.00     0.056 A 
HETATM    4  N3  UNL     1      17.553   1.503  51.697  1.00  0.00    -0.068 NA
HETATM    5  C9  UNL     1      18.300   2.542  51.583  1.00  0.00     0.723 A 
HETATM    6  N4  UNL     1      19.617   2.417  51.771  1.00  0.00    -0.062 NA
HETATM    7  N5  UNL     1      17.297   3.471  51.287  1.00  0.00    -0.219 N 
HETATM    8  C10 UNL     1      16.279   4.263  51.898  1.00  0.00     0.165 C 
HETATM    9  C11 UNL     1      15.129   3.528  52.487  1.00  0.00    -0.004 C 
HETATM   10  C12 UNL     1      14.543   2.329  52.796  1.00  0.00    -0.075 C 
HETATM   11  C15 UNL     1      14.978   0.887  52.723  1.00  0.00     0.028 C 
HETATM   12  C16 UNL     1      15.559  -0.289  52.583  1.00  0.00     0.005 C 
HETATM   13  C17 UNL     1      16.876  -0.848  52.141  1.00  0.00     0.065 C 
HETATM   14  H8  UNL     1      17.535   3.480  50.254  1.00  0.00     0.178 HD
ENDROOT
BRANCH   1  15
HETATM   15  C5  UNL     1      21.543   1.022  52.331  1.00  0.00     0.006 A 
HETATM   16  C4  UNL     1      22.012   0.227  53.340  1.00  0.00     0.005 A 
HETATM   17  C3  UNL     1      21.455  -0.542  54.294  1.00  0.00     0.032 A 
HETATM   18  C21 UNL     1      23.375   0.132  53.443  1.00  0.00     0.046 A 
HETATM   19  C2  UNL     1      22.475  -1.166  55.052  1.00  0.00     0.094 A 
HETATM   20  N2  UNL     1      23.630  -0.716  54.486  1.00  0.00    -0.330 N 
HETATM   21  C20 UNL     1      24.286   0.783  52.603  1.00  0.00     0.030 A 
HETATM   22  C19 UNL     1      23.726   1.561  51.617  1.00  0.00     0.003 A 
HETATM   23  C18 UNL     1      22.344   1.709  51.444  1.00  0.00     0.015 A 
BRANCH  20  24
HETATM   24  C1  UNL     1      24.962  -1.061  54.930  1.00  0.00     0.396 C 
BRANCH  24  25
HETATM   25  N1  UNL     1      25.068  -1.321  56.335  1.00  0.00     0.096 N 
HETATM   26  H1  UNL     1      25.230  -0.378  56.792  1.00  0.00     0.314 HD
HETATM   27  H2  UNL     1      26.019  -1.794  56.471  1.00  0.00     0.314 HD
ENDBRANCH  24  25
ENDBRANCH  20  24
ENDBRANCH   1  15
BRANCH  10  28
HETATM   28  C13 UNL     1      13.224   2.129  53.452  1.00  0.00     0.065 C 
BRANCH  28  29
HETATM   29  C14 UNL     1      12.443   3.421  53.578  1.00  0.00     0.226 C 
HETATM   30  F1  UNL     1      12.835   4.160  54.665  1.00  0.00    -0.255 F 
ENDBRANCH  28  29
ENDBRANCH  10  28
TORSDOF 5
ENDMDL
MODEL 8
REMARK VINA RESULT:      -7.9      5.146      8.034
REMARK  5 active torsions:
REMARK  status: ('A' for Active; 'I' for Inactive)
REMARK    1  A    between atoms: N1_1  and  C1_2 
REMARK    2  A    between atoms: C1_2  and  N2_3 
REMARK    3  A    between atoms: C5_7  and  C6_8 
REMARK    4  A    between atoms: C12_17  and  C13_18 
REMARK    5  A    between atoms: C13_18  and  C14_19 
ROOT
HETATM    1  C6  UNL     1      20.279   0.276  52.847  1.00  0.00     0.089 A 
HETATM    2  C7  UNL     1      19.154  -0.547  52.856  1.00  0.00     0.061 A 
HETATM    3  C8  UNL     1      17.897  -0.168  52.356  1.00  0.00     0.056 A 
HETATM    4  N3  UNL     1      17.958   1.034  51.898  1.00  0.00    -0.068 NA
HETATM    5  C9  UNL     1      18.924   1.880  51.835  1.00  0.00     0.723 A 
HETATM    6  N4  UNL     1      20.123   1.532  52.310  1.00  0.00    -0.062 NA
HETATM    7  N5  UNL     1      18.221   2.931  51.234  1.00  0.00    -0.219 N 
HETATM    8  C10 UNL     1      17.307   3.987  51.527  1.00  0.00     0.165 C 
HETATM    9  C11 UNL     1      15.935   3.584  51.934  1.00  0.00    -0.004 C 
HETATM   10  C12 UNL     1      15.053   2.580  52.237  1.00  0.00    -0.075 C 
HETATM   11  C15 UNL     1      15.167   1.088  52.414  1.00  0.00     0.028 C 
HETATM   12  C16 UNL     1      15.491  -0.186  52.527  1.00  0.00     0.005 C 
HETATM   13  C17 UNL     1      16.712  -1.049  52.437  1.00  0.00     0.065 C 
HETATM   14  H8  UNL     1      18.643   2.739  50.280  1.00  0.00     0.178 HD
ENDROOT
BRANCH   1  15
HETATM   15  C5  UNL     1      21.558  -0.109  53.412  1.00  0.00     0.006 A 
HETATM   16  C4  UNL     1      22.739   0.370  52.916  1.00  0.00     0.005 A 
HETATM   17  C3  UNL     1      23.093   1.196  51.914  1.00  0.00     0.032 A 
HETATM   18  C21 UNL     1      23.872  -0.035  53.569  1.00  0.00     0.046 A 
HETATM   19  C2  UNL     1      24.501   1.344  51.901  1.00  0.00     0.094 A 
HETATM   20  N2  UNL     1      24.925   0.566  52.938  1.00  0.00    -0.330 N 
HETATM   21  C20 UNL     1      23.890  -0.888  54.680  1.00  0.00     0.030 A 
HETATM   22  C19 UNL     1      22.659  -1.321  55.111  1.00  0.00     0.003 A 
HETATM   23  C18 UNL     1      21.454  -0.952  54.498  1.00  0.00     0.015 A 
BRANCH  20  24
HETATM   24  C1  UNL     1      26.306   0.374  53.320  1.00  0.00     0.396 C 
BRANCH  24  25
HETATM   25  N1  UNL     1      26.785   1.305  54.296  1.00  0.00     0.096 N 
HETATM   26  H1  UNL     1      25.941   1.875  54.592  1.00  0.00     0.314 HD
HETATM   27  H2  UNL     1      27.355   2.030  53.750  1.00  0.00     0.314 HD
ENDBRANCH  24  25
ENDBRANCH  20  24
ENDBRANCH   1  15
BRANCH  10  28
HETATM   28  C13 UNL     1      13.624   2.740  52.616  1.00  0.00     0.065 C 
BRANCH  28  29
HETATM   29  C14 UNL     1      13.277   4.173  52.962  1.00  0.00     0.226 C 
HETATM   30  F1  UNL     1      13.693   4.517  54.224  1.00  0.00    -0.255 F 
ENDBRANCH  28  29
ENDBRANCH  10  28
TORSDOF 5
ENDMDL
MODEL 9
REMARK VINA RESULT:      -7.7      3.283      8.222
REMARK  5 active torsions:
REMARK  status: ('A' for Active; 'I' for Inactive)
REMARK    1  A    between atoms: N1_1  and  C1_2 
REMARK    2  A    between atoms: C1_2  and  N2_3 
REMARK    3  A    between atoms: C5_7  and  C6_8 
REMARK    4  A    between atoms: C12_17  and  C13_18 
REMARK    5  A    between atoms: C13_18  and  C14_19 
ROOT
HETATM    1  C6  UNL     1      24.055   2.994  51.969  1.00  0.00     0.089 A 
HETATM    2  C7  UNL     1      25.147   3.103  51.111  1.00  0.00     0.061 A 
HETATM    3  C8  UNL     1      25.546   4.299  50.492  1.00  0.00     0.056 A 
HETATM    4  N3  UNL     1      24.755   5.253  50.843  1.00  0.00    -0.068 NA
HETATM    5  C9  UNL     1      23.729   5.275  51.617  1.00  0.00     0.723 A 
HETATM    6  N4  UNL     1      23.338   4.143  52.209  1.00  0.00    -0.062 NA
HETATM    7  N5  UNL     1      23.416   6.633  51.485  1.00  0.00    -0.219 N 
HETATM    8  C10 UNL     1      22.783   7.562  50.606  1.00  0.00     0.165 C 
HETATM    9  C11 UNL     1      23.453   7.808  49.302  1.00  0.00    -0.004 C 
HETATM   10  C12 UNL     1      24.467   7.501  48.434  1.00  0.00    -0.075 C 
HETATM   11  C15 UNL     1      25.552   6.455  48.398  1.00  0.00     0.028 C 
HETATM   12  C16 UNL     1      26.406   5.465  48.563  1.00  0.00     0.005 C 
HETATM   13  C17 UNL     1      26.676   4.362  49.540  1.00  0.00     0.065 C 
HETATM   14  H8  UNL     1      23.836   6.877  52.427  1.00  0.00     0.178 HD
ENDROOT
BRANCH   1  15
HETATM   15  C5  UNL     1      23.624   1.742  52.563  1.00  0.00     0.006 A 
HETATM   16  C4  UNL     1      22.300   1.413  52.667  1.00  0.00     0.005 A 
HETATM   17  C3  UNL     1      21.136   2.005  52.343  1.00  0.00     0.032 A 
HETATM   18  C21 UNL     1      22.031   0.182  53.205  1.00  0.00     0.046 A 
HETATM   19  C2  UNL     1      20.061   1.143  52.673  1.00  0.00     0.094 A 
HETATM   20  N2  UNL     1      20.670   0.042  53.198  1.00  0.00    -0.330 N 
HETATM   21  C20 UNL     1      23.001  -0.727  53.642  1.00  0.00     0.030 A 
HETATM   22  C19 UNL     1      24.304  -0.313  53.500  1.00  0.00     0.003 A 
HETATM   23  C18 UNL     1      24.663   0.928  52.959  1.00  0.00     0.015 A 
BRANCH  20  24
HETATM   24  C1  UNL     1      19.982  -1.123  53.707  1.00  0.00     0.396 C 
BRANCH  24  25
HETATM   25  N1  UNL     1      18.554  -1.048  53.629  1.00  0.00     0.096 N 
HETATM   26  H1  UNL     1      18.304  -0.040  53.846  1.00  0.00     0.314 HD
HETATM   27  H2  UNL     1      18.188  -1.553  54.500  1.00  0.00     0.314 HD
ENDBRANCH  24  25
ENDBRANCH  20  24
ENDBRANCH   1  15
BRANCH  10  28
HETATM   28  C13 UNL     1      24.717   8.125  47.107  1.00  0.00     0.065 C 
BRANCH  28  29
HETATM   29  C14 UNL     1      23.667   7.741  46.084  1.00  0.00     0.226 C 
HETATM   30  F1  UNL     1      23.107   6.517  46.350  1.00  0.00    -0.255 F 
ENDBRANCH  28  29
ENDBRANCH  10  28
TORSDOF 5
ENDMDL
