MODEL 1
REMARK VINA RESULT:      -9.4      0.000      0.000
REMARK  6 active torsions:
REMARK  status: ('A' for Active; 'I' for Inactive)
REMARK    1  A    between atoms: O1_2  and  C2_3 
REMARK    2  A    between atoms: C5_6  and  N1_7 
REMARK    3  A    between atoms: C9_12  and  N3_13 
REMARK    4  A    between atoms: N3_13  and  C10_14 
REMARK    5  A    between atoms: N5_23  and  C16_24 
REMARK    6  A    between atoms: C19_27  and  O2_28 
ROOT
HETATM    1  N1  UNL     1      25.764   3.996  49.631  1.00  0.00    -0.295 N 
HETATM    2  C6  UNL     1      24.510   4.055  48.918  1.00  0.00     0.178 C 
HETATM    3  C7  UNL     1      23.451   3.251  49.591  1.00  0.00     0.025 A 
HETATM    4  C8  UNL     1      22.201   3.464  49.051  1.00  0.00     0.149 A 
HETATM    5  N2  UNL     1      21.175   2.755  49.543  1.00  0.00    -0.074 NA
HETATM    6  C9  UNL     1      21.429   1.874  50.540  1.00  0.00     0.729 A 
HETATM    7  N4  UNL     1      22.662   1.681  51.055  1.00  0.00    -0.044 NA
HETATM    8  C15 UNL     1      23.724   2.363  50.602  1.00  0.00     0.162 A 
HETATM    9  N5  UNL     1      25.037   2.226  51.185  1.00  0.00    -0.278 N 
HETATM   10  C21 UNL     1      26.027   3.062  50.665  1.00  0.00     0.331 C 
HETATM   11  O3  UNL     1      27.200   3.065  51.050  1.00  0.00    -0.246 OA
ENDROOT
BRANCH   6  12
HETATM   12  N3  UNL     1      20.468   1.041  51.192  1.00  0.00    -0.182 N 
HETATM   13  H9  UNL     1      19.484   0.925  50.889  1.00  0.00     0.185 HD
BRANCH  12  14
HETATM   14  C10 UNL     1      21.031   0.386  52.311  1.00  0.00     0.091 C 
HETATM   15  S1  UNL     1      20.576   0.839  53.806  1.00  0.00    -0.068 SA
HETATM   16  C11 UNL     1      21.104  -0.159  54.987  1.00  0.00     0.065 C 
HETATM   17  C12 UNL     1      22.130  -0.902  54.612  1.00  0.00     0.135 C 
HETATM   18  F1  UNL     1      22.750  -1.219  55.783  1.00  0.00    -0.205 F 
HETATM   19  C13 UNL     1      22.532  -1.303  53.284  1.00  0.00     0.046 C 
HETATM   20  C14 UNL     1      22.003  -0.686  52.224  1.00  0.00     0.041 C 
ENDBRANCH  12  14
ENDBRANCH   6  12
BRANCH   9  21
HETATM   21  C16 UNL     1      25.256   1.282  52.224  1.00  0.00     0.099 C 
HETATM   22  C17 UNL     1      26.460   0.413  51.845  1.00  0.00     0.028 C 
HETATM   23  C18 UNL     1      26.553  -0.423  53.134  1.00  0.00     0.034 C 
HETATM   24  C19 UNL     1      26.195   0.551  54.233  1.00  0.00     0.120 C 
HETATM   25  C20 UNL     1      25.691   1.822  53.538  1.00  0.00     0.057 C 
BRANCH  24  26
HETATM   26  O2  UNL     1      27.353   0.830  54.951  1.00  0.00    -0.396 OA
HETATM   27  H18 UNL     1      27.684   1.758  54.772  1.00  0.00     0.210 HD
ENDBRANCH  24  26
ENDBRANCH   9  21
BRANCH   1  28
HETATM   28  C5  UNL     1      26.664   5.018  49.168  1.00  0.00     0.039 A 
HETATM   29  C4  UNL     1      27.876   4.998  48.514  1.00  0.00     0.032 A 
HETATM   30  C3  UNL     1      28.473   6.198  48.199  1.00  0.00     0.039 A 
HETATM   31  C2  UNL     1      27.922   7.432  48.503  1.00  0.00     0.068 A 
HETATM   32  C23 UNL     1      26.709   7.439  49.159  1.00  0.00     0.039 A 
HETATM   33  C22 UNL     1      26.063   6.247  49.500  1.00  0.00     0.032 A 
BRANCH  31  34
HETATM   34  O1  UNL     1      28.673   8.518  48.104  1.00  0.00    -0.356 OA
HETATM   35  C1  UNL     1      29.780   9.050  48.801  1.00  0.00     0.210 C 
ENDBRANCH  31  34
ENDBRANCH   1  28
TORSDOF 6
ENDMDL
MODEL 2
REMARK VINA RESULT:      -9.1      4.005      8.323
REMARK  6 active torsions:
REMARK  status: ('A' for Active; 'I' for Inactive)
REMARK    1  A    between atoms: O1_2  and  C2_3 
REMARK    2  A    between atoms: C5_6  and  N1_7 
REMARK    3  A    between atoms: C9_12  and  N3_13 
REMARK    4  A    between atoms: N3_13  and  C10_14 
REMARK    5  A    between atoms: N5_23  and  C16_24 
REMARK    6  A    between atoms: C19_27  and  O2_28 
ROOT
HETATM    1  N1  UNL     1      23.379   1.053  52.495  1.00  0.00    -0.295 N 
HETATM    2  C6  UNL     1      22.949   2.096  51.594  1.00  0.00     0.178 C 
HETATM    3  C7  UNL     1      24.093   2.690  50.846  1.00  0.00     0.025 A 
HETATM    4  C8  UNL     1      23.684   3.532  49.834  1.00  0.00     0.149 A 
HETATM    5  N2  UNL     1      24.628   4.165  49.123  1.00  0.00    -0.074 NA
HETATM    6  C9  UNL     1      25.924   3.938  49.442  1.00  0.00     0.729 A 
HETATM    7  N4  UNL     1      26.304   3.109  50.438  1.00  0.00    -0.044 NA
HETATM    8  C15 UNL     1      25.402   2.450  51.180  1.00  0.00     0.162 A 
HETATM    9  N5  UNL     1      25.785   1.504  52.201  1.00  0.00    -0.278 N 
HETATM   10  C21 UNL     1      24.738   0.831  52.834  1.00  0.00     0.331 C 
HETATM   11  O3  UNL     1      24.896  -0.004  53.729  1.00  0.00    -0.246 OA
ENDROOT
BRANCH   6  12
HETATM   12  N3  UNL     1      27.063   4.512  48.796  1.00  0.00    -0.182 N 
HETATM   13  H9  UNL     1      27.783   3.974  48.281  1.00  0.00     0.185 HD
BRANCH  12  14
HETATM   14  C10 UNL     1      27.085   5.918  48.944  1.00  0.00     0.091 C 
HETATM   15  S1  UNL     1      28.203   6.781  48.138  1.00  0.00    -0.068 SA
HETATM   16  C11 UNL     1      27.959   8.396  48.199  1.00  0.00     0.065 C 
HETATM   17  C12 UNL     1      27.180   8.761  49.201  1.00  0.00     0.135 C 
HETATM   18  F1  UNL     1      27.524  10.060  49.427  1.00  0.00    -0.205 F 
HETATM   19  C13 UNL     1      26.188   7.992  49.916  1.00  0.00     0.046 C 
HETATM   20  C14 UNL     1      26.165   6.664  49.779  1.00  0.00     0.041 C 
ENDBRANCH  12  14
ENDBRANCH   6  12
BRANCH   9  21
HETATM   21  C16 UNL     1      27.159   1.306  52.505  1.00  0.00     0.099 C 
HETATM   22  C17 UNL     1      27.494   2.098  53.774  1.00  0.00     0.028 C 
HETATM   23  C18 UNL     1      28.955   1.646  53.945  1.00  0.00     0.034 C 
HETATM   24  C19 UNL     1      28.947   0.197  53.517  1.00  0.00     0.120 C 
HETATM   25  C20 UNL     1      27.566  -0.066  52.905  1.00  0.00     0.057 C 
BRANCH  24  26
HETATM   26  O2  UNL     1      29.119  -0.585  54.654  1.00  0.00    -0.396 OA
HETATM   27  H18 UNL     1      28.782  -0.122  55.475  1.00  0.00     0.210 HD
ENDBRANCH  24  26
ENDBRANCH   9  21
BRANCH   1  28
HETATM   28  C5  UNL     1      22.257   0.278  52.954  1.00  0.00     0.039 A 
HETATM   29  C4  UNL     1      22.086  -0.653  53.954  1.00  0.00     0.032 A 
HETATM   30  C3  UNL     1      20.836  -1.202  54.133  1.00  0.00     0.039 A 
HETATM   31  C2  UNL     1      19.734  -0.870  53.362  1.00  0.00     0.068 A 
HETATM   32  C23 UNL     1      19.919   0.063  52.364  1.00  0.00     0.039 A 
HETATM   33  C22 UNL     1      21.169   0.649  52.142  1.00  0.00     0.032 A 
BRANCH  31  34
HETATM   34  O1  UNL     1      18.570  -1.529  53.697  1.00  0.00    -0.356 OA
HETATM   35  C1  UNL     1      17.373  -1.509  52.951  1.00  0.00     0.210 C 
ENDBRANCH  31  34
ENDBRANCH   1  28
TORSDOF 6
ENDMDL
MODEL 3
REMARK VINA RESULT:      -9.1      2.307      2.735
REMARK  6 active torsions:
REMARK  status: ('A' for Active; 'I' for Inactive)
REMARK    1  A    between atoms: O1_2  and  C2_3 
REMARK    2  A    between atoms: C5_6  and  N1_7 
REMARK    3  A    between atoms: C9_12  and  N3_13 
REMARK    4  A    between atoms: N3_13  and  C10_14 
REMARK    5  A    between atoms: N5_23  and  C16_24 
REMARK    6  A    between atoms: C19_27  and  O2_28 
ROOT
HETATM    1  N1  UNL     1      25.654   3.654  49.831  1.00  0.00    -0.295 N 
HETATM    2  C6  UNL     1      24.410   3.578  49.102  1.00  0.00     0.178 C 
HETATM    3  C7  UNL     1      23.414   2.713  49.796  1.00  0.00     0.025 A 
HETATM    4  C8  UNL     1      22.158   2.797  49.233  1.00  0.00     0.149 A 
HETATM    5  N2  UNL     1      21.189   2.023  49.742  1.00  0.00    -0.074 NA
HETATM    6  C9  UNL     1      21.503   1.208  50.777  1.00  0.00     0.729 A 
HETATM    7  N4  UNL     1      22.740   1.141  51.314  1.00  0.00    -0.044 NA
HETATM    8  C15 UNL     1      23.746   1.893  50.845  1.00  0.00     0.162 A 
HETATM    9  N5  UNL     1      25.058   1.892  51.447  1.00  0.00    -0.278 N 
HETATM   10  C21 UNL     1      25.981   2.788  50.904  1.00  0.00     0.331 C 
HETATM   11  O3  UNL     1      27.143   2.907  51.302  1.00  0.00    -0.246 OA
ENDROOT
BRANCH   6  12
HETATM   12  N3  UNL     1      20.607   0.322  51.453  1.00  0.00    -0.182 N 
HETATM   13  H9  UNL     1      20.892  -0.543  51.946  1.00  0.00     0.185 HD
BRANCH  12  14
HETATM   14  C10 UNL     1      19.271   0.777  51.368  1.00  0.00     0.091 C 
HETATM   15  S1  UNL     1      18.917   2.288  51.853  1.00  0.00    -0.068 SA
HETATM   16  C11 UNL     1      17.402   2.766  51.469  1.00  0.00     0.065 C 
HETATM   17  C12 UNL     1      16.591   1.754  51.220  1.00  0.00     0.135 C 
HETATM   18  F1  UNL     1      15.350   2.260  51.466  1.00  0.00    -0.205 F 
HETATM   19  C13 UNL     1      16.909   0.412  50.789  1.00  0.00     0.046 C 
HETATM   20  C14 UNL     1      18.169  -0.021  50.868  1.00  0.00     0.041 C 
ENDBRANCH  12  14
ENDBRANCH   6  12
BRANCH   9  21
HETATM   21  C16 UNL     1      25.341   1.012  52.527  1.00  0.00     0.099 C 
HETATM   22  C17 UNL     1      26.445   0.044  52.087  1.00  0.00     0.028 C 
HETATM   23  C18 UNL     1      26.637  -0.702  53.420  1.00  0.00     0.034 C 
HETATM   24  C19 UNL     1      26.461   0.368  54.472  1.00  0.00     0.120 C 
HETATM   25  C20 UNL     1      25.952   1.616  53.740  1.00  0.00     0.057 C 
BRANCH  24  26
HETATM   26  O2  UNL     1      27.707   0.623  55.035  1.00  0.00    -0.396 OA
HETATM   27  H18 UNL     1      27.734   1.520  55.478  1.00  0.00     0.210 HD
ENDBRANCH  24  26
ENDBRANCH   9  21
BRANCH   1  28
HETATM   28  C5  UNL     1      26.471   4.731  49.336  1.00  0.00     0.039 A 
HETATM   29  C4  UNL     1      27.658   4.786  48.639  1.00  0.00     0.032 A 
HETATM   30  C3  UNL     1      28.166   6.020  48.303  1.00  0.00     0.039 A 
HETATM   31  C2  UNL     1      27.549   7.218  48.627  1.00  0.00     0.068 A 
HETATM   32  C23 UNL     1      26.363   7.149  49.326  1.00  0.00     0.039 A 
HETATM   33  C22 UNL     1      25.806   5.920  49.690  1.00  0.00     0.032 A 
BRANCH  31  34
HETATM   34  O1  UNL     1      28.215   8.348  48.202  1.00  0.00    -0.356 OA
HETATM   35  C1  UNL     1      28.997   9.194  49.018  1.00  0.00     0.210 C 
ENDBRANCH  31  34
ENDBRANCH   1  28
TORSDOF 6
ENDMDL
MODEL 4
REMARK VINA RESULT:      -9.0      3.988      8.458
REMARK  6 active torsions:
REMARK  status: ('A' for Active; 'I' for Inactive)
REMARK    1  A    between atoms: O1_2  and  C2_3 
REMARK    2  A    between atoms: C5_6  and  N1_7 
REMARK    3  A    between atoms: C9_12  and  N3_13 
REMARK    4  A    between atoms: N3_13  and  C10_14 
REMARK    5  A    between atoms: N5_23  and  C16_24 
REMARK    6  A    between atoms: C19_27  and  O2_28 
ROOT
HETATM    1  N1  UNL     1      22.468   0.772  52.887  1.00  0.00    -0.295 N 
HETATM    2  C6  UNL     1      22.081   2.007  52.246  1.00  0.00     0.178 C 
HETATM    3  C7  UNL     1      23.247   2.702  51.632  1.00  0.00     0.025 A 
HETATM    4  C8  UNL     1      22.872   3.764  50.838  1.00  0.00     0.149 A 
HETATM    5  N2  UNL     1      23.841   4.499  50.272  1.00  0.00    -0.074 NA
HETATM    6  C9  UNL     1      25.127   4.152  50.516  1.00  0.00     0.729 A 
HETATM    7  N4  UNL     1      25.474   3.107  51.298  1.00  0.00    -0.044 NA
HETATM    8  C15 UNL     1      24.546   2.339  51.888  1.00  0.00     0.162 A 
HETATM    9  N5  UNL     1      24.890   1.174  52.668  1.00  0.00    -0.278 N 
HETATM   10  C21 UNL     1      23.816   0.423  53.150  1.00  0.00     0.331 C 
HETATM   11  O3  UNL     1      23.941  -0.596  53.836  1.00  0.00    -0.246 OA
ENDROOT
BRANCH   6  12
HETATM   12  N3  UNL     1      26.288   4.806  49.998  1.00  0.00    -0.182 N 
HETATM   13  H9  UNL     1      27.235   4.387  49.961  1.00  0.00     0.185 HD
BRANCH  12  14
HETATM   14  C10 UNL     1      25.983   6.106  49.535  1.00  0.00     0.091 C 
HETATM   15  S1  UNL     1      25.281   7.165  50.550  1.00  0.00    -0.068 SA
HETATM   16  C11 UNL     1      25.216   8.691  49.971  1.00  0.00     0.065 C 
HETATM   17  C12 UNL     1      25.345   8.749  48.658  1.00  0.00     0.135 C 
HETATM   18  F1  UNL     1      24.742   9.923  48.321  1.00  0.00    -0.205 F 
HETATM   19  C13 UNL     1      25.969   7.807  47.758  1.00  0.00     0.046 C 
HETATM   20  C14 UNL     1      26.258   6.578  48.192  1.00  0.00     0.041 C 
ENDBRANCH  12  14
ENDBRANCH   6  12
BRANCH   9  21
HETATM   21  C16 UNL     1      26.255   0.856  52.903  1.00  0.00     0.099 C 
HETATM   22  C17 UNL     1      26.454   0.653  54.409  1.00  0.00     0.028 C 
HETATM   23  C18 UNL     1      27.933   0.227  54.387  1.00  0.00     0.034 C 
HETATM   24  C19 UNL     1      28.060  -0.607  53.133  1.00  0.00     0.120 C 
HETATM   25  C20 UNL     1      26.741  -0.443  52.369  1.00  0.00     0.057 C 
BRANCH  24  26
HETATM   26  O2  UNL     1      28.224  -1.934  53.517  1.00  0.00    -0.396 OA
HETATM   27  H18 UNL     1      28.914  -2.027  54.237  1.00  0.00     0.210 HD
ENDBRANCH  24  26
ENDBRANCH   9  21
BRANCH   1  28
HETATM   28  C5  UNL     1      21.314  -0.037  53.178  1.00  0.00     0.039 A 
HETATM   29  C4  UNL     1      21.070  -1.072  54.053  1.00  0.00     0.032 A 
HETATM   30  C3  UNL     1      19.810  -1.624  54.083  1.00  0.00     0.039 A 
HETATM   31  C2  UNL     1      18.765  -1.195  53.280  1.00  0.00     0.068 A 
HETATM   32  C23 UNL     1      19.022  -0.160  52.408  1.00  0.00     0.039 A 
HETATM   33  C22 UNL     1      20.286   0.434  52.340  1.00  0.00     0.032 A 
BRANCH  31  34
HETATM   34  O1  UNL     1      17.578  -1.875  53.459  1.00  0.00    -0.356 OA
HETATM   35  C1  UNL     1      17.443  -3.277  53.556  1.00  0.00     0.210 C 
ENDBRANCH  31  34
ENDBRANCH   1  28
TORSDOF 6
ENDMDL
MODEL 5
REMARK VINA RESULT:      -8.7      4.589      7.176
REMARK  6 active torsions:
REMARK  status: ('A' for Active; 'I' for Inactive)
REMARK    1  A    between atoms: O1_2  and  C2_3 
REMARK    2  A    between atoms: C5_6  and  N1_7 
REMARK    3  A    between atoms: C9_12  and  N3_13 
REMARK    4  A    between atoms: N3_13  and  C10_14 
REMARK    5  A    between atoms: N5_23  and  C16_24 
REMARK    6  A    between atoms: C19_27  and  O2_28 
ROOT
HETATM    1  N1  UNL     1      22.850   0.946  52.539  1.00  0.00    -0.295 N 
HETATM    2  C6  UNL     1      21.890   0.367  53.450  1.00  0.00     0.178 C 
HETATM    3  C7  UNL     1      20.579   0.117  52.788  1.00  0.00     0.025 A 
HETATM    4  C8  UNL     1      19.723  -0.625  53.574  1.00  0.00     0.149 A 
HETATM    5  N2  UNL     1      18.492  -0.871  53.103  1.00  0.00    -0.074 NA
HETATM    6  C9  UNL     1      18.165  -0.375  51.886  1.00  0.00     0.729 A 
HETATM    7  N4  UNL     1      19.019   0.350  51.132  1.00  0.00    -0.044 NA
HETATM    8  C15 UNL     1      20.262   0.625  51.553  1.00  0.00     0.162 A 
HETATM    9  N5  UNL     1      21.216   1.336  50.736  1.00  0.00    -0.278 N 
HETATM   10  C21 UNL     1      22.497   1.474  51.272  1.00  0.00     0.331 C 
HETATM   11  O3  UNL     1      23.424   2.058  50.702  1.00  0.00    -0.246 OA
ENDROOT
BRANCH   6  12
HETATM   12  N3  UNL     1      16.911  -0.539  51.219  1.00  0.00    -0.182 N 
HETATM   13  H9  UNL     1      16.758  -1.142  50.390  1.00  0.00     0.185 HD
BRANCH  12  14
HETATM   14  C10 UNL     1      15.896   0.227  51.835  1.00  0.00     0.091 C 
HETATM   15  S1  UNL     1      15.821   1.825  51.543  1.00  0.00    -0.068 SA
HETATM   16  C11 UNL     1      14.464   2.536  52.110  1.00  0.00     0.065 C 
HETATM   17  C12 UNL     1      13.866   1.827  53.050  1.00  0.00     0.135 C 
HETATM   18  F1  UNL     1      13.148   2.750  53.751  1.00  0.00    -0.205 F 
HETATM   19  C13 UNL     1      13.934   0.408  53.308  1.00  0.00     0.046 C 
HETATM   20  C14 UNL     1      14.892  -0.319  52.728  1.00  0.00     0.041 C 
ENDBRANCH  12  14
ENDBRANCH   6  12
BRANCH   9  21
HETATM   21  C16 UNL     1      20.822   1.844  49.468  1.00  0.00     0.099 C 
HETATM   22  C17 UNL     1      20.684   3.366  49.577  1.00  0.00     0.028 C 
HETATM   23  C18 UNL     1      20.369   3.672  48.102  1.00  0.00     0.034 C 
HETATM   24  C19 UNL     1      21.224   2.693  47.330  1.00  0.00     0.120 C 
HETATM   25  C20 UNL     1      21.809   1.722  48.363  1.00  0.00     0.057 C 
BRANCH  24  26
HETATM   26  O2  UNL     1      22.248   3.409  46.719  1.00  0.00    -0.396 OA
HETATM   27  H18 UNL     1      23.095   2.878  46.676  1.00  0.00     0.210 HD
ENDBRANCH  24  26
ENDBRANCH   9  21
BRANCH   1  28
HETATM   28  C5  UNL     1      24.179   0.875  53.084  1.00  0.00     0.039 A 
HETATM   29  C4  UNL     1      25.166   1.808  53.318  1.00  0.00     0.032 A 
HETATM   30  C3  UNL     1      26.348   1.386  53.884  1.00  0.00     0.039 A 
HETATM   31  C2  UNL     1      26.604   0.071  54.234  1.00  0.00     0.068 A 
HETATM   32  C23 UNL     1      25.610  -0.853  53.994  1.00  0.00     0.039 A 
HETATM   33  C22 UNL     1      24.392  -0.475  53.422  1.00  0.00     0.032 A 
BRANCH  31  34
HETATM   34  O1  UNL     1      27.848  -0.151  54.788  1.00  0.00    -0.356 OA
HETATM   35  C1  UNL     1      28.993   0.647  54.578  1.00  0.00     0.210 C 
ENDBRANCH  31  34
ENDBRANCH   1  28
TORSDOF 6
ENDMDL
MODEL 6
REMARK VINA RESULT:      -8.6      2.395      2.828
REMARK  6 active torsions:
REMARK  status: ('A' for Active; 'I' for Inactive)
REMARK    1  A    between atoms: O1_2  and  C2_3 
REMARK    2  A    between atoms: C5_6  and  N1_7 
REMARK    3  A    between atoms: C9_12  and  N3_13 
REMARK    4  A    between atoms: N3_13  and  C10_14 
REMARK    5  A    between atoms: N5_23  and  C16_24 
REMARK    6  A    between atoms: C19_27  and  O2_28 
ROOT
HETATM    1  N1  UNL     1      25.711   4.391  49.814  1.00  0.00    -0.295 N 
HETATM    2  C6  UNL     1      24.386   4.806  49.417  1.00  0.00     0.178 C 
HETATM    3  C7  UNL     1      23.340   4.269  50.334  1.00  0.00     0.025 A 
HETATM    4  C8  UNL     1      22.100   4.823  50.102  1.00  0.00     0.149 A 
HETATM    5  N2  UNL     1      21.067   4.380  50.833  1.00  0.00    -0.074 NA
HETATM    6  C9  UNL     1      21.306   3.416  51.754  1.00  0.00     0.729 A 
HETATM    7  N4  UNL     1      22.530   2.886  51.965  1.00  0.00    -0.044 NA
HETATM    8  C15 UNL     1      23.598   3.293  51.263  1.00  0.00     0.162 A 
HETATM    9  N5  UNL     1      24.928   2.794  51.521  1.00  0.00    -0.278 N 
HETATM   10  C21 UNL     1      25.953   3.372  50.769  1.00  0.00     0.331 C 
HETATM   11  O3  UNL     1      27.142   3.054  50.866  1.00  0.00    -0.246 OA
ENDROOT
BRANCH   6  12
HETATM   12  N3  UNL     1      20.340   2.827  52.627  1.00  0.00    -0.182 N 
HETATM   13  H9  UNL     1      20.354   2.903  53.660  1.00  0.00     0.185 HD
BRANCH  12  14
HETATM   14  C10 UNL     1      19.351   2.124  51.902  1.00  0.00     0.091 C 
HETATM   15  S1  UNL     1      19.574   0.545  51.585  1.00  0.00    -0.068 SA
HETATM   16  C11 UNL     1      18.256  -0.198  50.969  1.00  0.00     0.065 C 
HETATM   17  C12 UNL     1      17.388   0.648  50.444  1.00  0.00     0.135 C 
HETATM   18  F1  UNL     1      16.695  -0.107  49.546  1.00  0.00    -0.205 F 
HETATM   19  C13 UNL     1      17.191   2.051  50.727  1.00  0.00     0.046 C 
HETATM   20  C14 UNL     1      18.123   2.719  51.411  1.00  0.00     0.041 C 
ENDBRANCH  12  14
ENDBRANCH   6  12
BRANCH   9  21
HETATM   21  C16 UNL     1      25.127   1.776  52.492  1.00  0.00     0.099 C 
HETATM   22  C17 UNL     1      26.064   0.717  51.900  1.00  0.00     0.028 C 
HETATM   23  C18 UNL     1      26.202  -0.183  53.141  1.00  0.00     0.034 C 
HETATM   24  C19 UNL     1      26.223   0.786  54.301  1.00  0.00     0.120 C 
HETATM   25  C20 UNL     1      25.867   2.161  53.722  1.00  0.00     0.057 C 
BRANCH  24  26
HETATM   26  O2  UNL     1      27.514   0.808  54.816  1.00  0.00    -0.396 OA
HETATM   27  H18 UNL     1      28.170   1.173  54.154  1.00  0.00     0.210 HD
ENDBRANCH  24  26
ENDBRANCH   9  21
BRANCH   1  28
HETATM   28  C5  UNL     1      26.714   5.168  49.137  1.00  0.00     0.039 A 
HETATM   29  C4  UNL     1      27.932   4.868  48.568  1.00  0.00     0.032 A 
HETATM   30  C3  UNL     1      28.648   5.881  47.971  1.00  0.00     0.039 A 
HETATM   31  C2  UNL     1      28.211   7.194  47.909  1.00  0.00     0.068 A 
HETATM   32  C23 UNL     1      26.992   7.483  48.483  1.00  0.00     0.039 A 
HETATM   33  C22 UNL     1      26.228   6.488  49.101  1.00  0.00     0.032 A 
BRANCH  31  34
HETATM   34  O1  UNL     1      29.071   8.063  47.270  1.00  0.00    -0.356 OA
HETATM   35  C1  UNL     1      30.051   7.698  46.322  1.00  0.00     0.210 C 
ENDBRANCH  31  34
ENDBRANCH   1  28
TORSDOF 6
ENDMDL
MODEL 7
REMARK VINA RESULT:      -8.6      4.651      8.167
REMARK  6 active torsions:
REMARK  status: ('A' for Active; 'I' for Inactive)
REMARK    1  A    between atoms: O1_2  and  C2_3 
REMARK    2  A    between atoms: C5_6  and  N1_7 
REMARK    3  A    between atoms: C9_12  and  N3_13 
REMARK    4  A    between atoms: N3_13  and  C10_14 
REMARK    5  A    between atoms: N5_23  and  C16_24 
REMARK    6  A    between atoms: C19_27  and  O2_28 
ROOT
HETATM    1  N1  UNL     1      25.684   2.532  51.031  1.00  0.00    -0.295 N 
HETATM    2  C6  UNL     1      26.562   3.264  50.149  1.00  0.00     0.178 C 
HETATM    3  C7  UNL     1      25.916   4.501  49.625  1.00  0.00     0.025 A 
HETATM    4  C8  UNL     1      26.803   5.319  48.958  1.00  0.00     0.149 A 
HETATM    5  N2  UNL     1      26.325   6.439  48.397  1.00  0.00    -0.074 NA
HETATM    6  C9  UNL     1      25.001   6.698  48.521  1.00  0.00     0.729 A 
HETATM    7  N4  UNL     1      24.149   5.883  49.180  1.00  0.00    -0.044 NA
HETATM    8  C15 UNL     1      24.573   4.751  49.759  1.00  0.00     0.162 A 
HETATM    9  N5  UNL     1      23.696   3.901  50.529  1.00  0.00    -0.278 N 
HETATM   10  C21 UNL     1      24.297   2.801  51.145  1.00  0.00     0.331 C 
HETATM   11  O3  UNL     1      23.686   1.977  51.832  1.00  0.00    -0.246 OA
ENDROOT
BRANCH   6  12
HETATM   12  N3  UNL     1      24.314   7.839  48.002  1.00  0.00    -0.182 N 
HETATM   13  H9  UNL     1      23.990   8.642  48.570  1.00  0.00     0.185 HD
BRANCH  12  14
HETATM   14  C10 UNL     1      24.132   7.738  46.604  1.00  0.00     0.091 C 
HETATM   15  S1  UNL     1      25.180   8.488  45.612  1.00  0.00    -0.068 SA
HETATM   16  C11 UNL     1      25.004   8.085  44.038  1.00  0.00     0.065 C 
HETATM   17  C12 UNL     1      23.818   7.569  43.769  1.00  0.00     0.135 C 
HETATM   18  F1  UNL     1      23.650   7.809  42.439  1.00  0.00    -0.205 F 
HETATM   19  C13 UNL     1      22.889   6.903  44.652  1.00  0.00     0.046 C 
HETATM   20  C14 UNL     1      23.057   6.997  45.973  1.00  0.00     0.041 C 
ENDBRANCH  12  14
ENDBRANCH   6  12
BRANCH   9  21
HETATM   21  C16 UNL     1      22.313   4.210  50.623  1.00  0.00     0.099 C 
HETATM   22  C17 UNL     1      21.524   3.151  49.845  1.00  0.00     0.028 C 
HETATM   23  C18 UNL     1      20.102   3.633  50.182  1.00  0.00     0.034 C 
HETATM   24  C19 UNL     1      20.201   4.107  51.614  1.00  0.00     0.120 C 
HETATM   25  C20 UNL     1      21.692   4.102  51.969  1.00  0.00     0.057 C 
BRANCH  24  26
HETATM   26  O2  UNL     1      19.519   3.196  52.413  1.00  0.00    -0.396 OA
HETATM   27  H18 UNL     1      19.590   3.431  53.384  1.00  0.00     0.210 HD
ENDBRANCH  24  26
ENDBRANCH   9  21
BRANCH   1  28
HETATM   28  C5  UNL     1      26.416   1.542  51.775  1.00  0.00     0.039 A 
HETATM   29  C4  UNL     1      26.423   0.165  51.782  1.00  0.00     0.032 A 
HETATM   30  C3  UNL     1      27.286  -0.484  52.635  1.00  0.00     0.039 A 
HETATM   31  C2  UNL     1      28.154   0.172  53.493  1.00  0.00     0.068 A 
HETATM   32  C23 UNL     1      28.137   1.550  53.478  1.00  0.00     0.039 A 
HETATM   33  C22 UNL     1      27.279   2.255  52.629  1.00  0.00     0.032 A 
BRANCH  31  34
HETATM   34  O1  UNL     1      28.939  -0.655  54.269  1.00  0.00    -0.356 OA
HETATM   35  C1  UNL     1      30.048  -1.400  53.812  1.00  0.00     0.210 C 
ENDBRANCH  31  34
ENDBRANCH   1  28
TORSDOF 6
ENDMDL
MODEL 8
REMARK VINA RESULT:      -8.6      3.619      6.722
REMARK  6 active torsions:
REMARK  status: ('A' for Active; 'I' for Inactive)
REMARK    1  A    between atoms: O1_2  and  C2_3 
REMARK    2  A    between atoms: C5_6  and  N1_7 
REMARK    3  A    between atoms: C9_12  and  N3_13 
REMARK    4  A    between atoms: N3_13  and  C10_14 
REMARK    5  A    between atoms: N5_23  and  C16_24 
REMARK    6  A    between atoms: C19_27  and  O2_28 
ROOT
HETATM    1  N1  UNL     1      23.824   1.434  52.571  1.00  0.00    -0.295 N 
HETATM    2  C6  UNL     1      22.752   0.708  53.211  1.00  0.00     0.178 C 
HETATM    3  C7  UNL     1      21.477   0.814  52.447  1.00  0.00     0.025 A 
HETATM    4  C8  UNL     1      20.504  -0.039  52.921  1.00  0.00     0.149 A 
HETATM    5  N2  UNL     1      19.295   0.003  52.343  1.00  0.00    -0.074 NA
HETATM    6  C9  UNL     1      19.104   0.882  51.330  1.00  0.00     0.729 A 
HETATM    7  N4  UNL     1      20.072   1.710  50.880  1.00  0.00    -0.044 NA
HETATM    8  C15 UNL     1      21.299   1.708  51.421  1.00  0.00     0.162 A 
HETATM    9  N5  UNL     1      22.369   2.532  50.911  1.00  0.00    -0.278 N 
HETATM   10  C21 UNL     1      23.614   2.362  51.520  1.00  0.00     0.331 C 
HETATM   11  O3  UNL     1      24.628   2.992  51.204  1.00  0.00    -0.246 OA
ENDROOT
BRANCH   6  12
HETATM   12  N3  UNL     1      17.894   1.065  50.590  1.00  0.00    -0.182 N 
HETATM   13  H9  UNL     1      17.721   0.692  49.640  1.00  0.00     0.185 HD
BRANCH  12  14
HETATM   14  C10 UNL     1      16.953   1.823  51.323  1.00  0.00     0.091 C 
HETATM   15  S1  UNL     1      17.211   3.414  51.538  1.00  0.00    -0.068 SA
HETATM   16  C11 UNL     1      15.934   4.209  52.176  1.00  0.00     0.065 C 
HETATM   17  C12 UNL     1      15.085   3.407  52.793  1.00  0.00     0.135 C 
HETATM   18  F1  UNL     1      14.449   4.223  53.680  1.00  0.00    -0.205 F 
HETATM   19  C13 UNL     1      14.858   1.994  52.601  1.00  0.00     0.046 C 
HETATM   20  C14 UNL     1      15.745   1.275  51.910  1.00  0.00     0.041 C 
ENDBRANCH  12  14
ENDBRANCH   6  12
BRANCH   9  21
HETATM   21  C16 UNL     1      22.117   3.444  49.851  1.00  0.00     0.099 C 
HETATM   22  C17 UNL     1      21.881   4.834  50.453  1.00  0.00     0.028 C 
HETATM   23  C18 UNL     1      21.745   5.629  49.142  1.00  0.00     0.034 C 
HETATM   24  C19 UNL     1      22.747   4.984  48.212  1.00  0.00     0.120 C 
HETATM   25  C20 UNL     1      23.246   3.720  48.923  1.00  0.00     0.057 C 
BRANCH  24  26
HETATM   26  O2  UNL     1      23.801   5.874  48.035  1.00  0.00    -0.396 OA
HETATM   27  H18 UNL     1      23.482   6.823  48.013  1.00  0.00     0.210 HD
ENDBRANCH  24  26
ENDBRANCH   9  21
BRANCH   1  28
HETATM   28  C5  UNL     1      25.097   1.059  53.124  1.00  0.00     0.039 A 
HETATM   29  C4  UNL     1      25.999   1.687  53.955  1.00  0.00     0.032 A 
HETATM   30  C3  UNL     1      27.146   1.012  54.310  1.00  0.00     0.039 A 
HETATM   31  C2  UNL     1      27.447  -0.269  53.877  1.00  0.00     0.068 A 
HETATM   32  C23 UNL     1      26.537  -0.886  53.045  1.00  0.00     0.039 A 
HETATM   33  C22 UNL     1      25.358  -0.243  52.657  1.00  0.00     0.032 A 
BRANCH  31  34
HETATM   34  O1  UNL     1      28.644  -0.773  54.343  1.00  0.00    -0.356 OA
HETATM   35  C1  UNL     1      29.827  -0.906  53.585  1.00  0.00     0.210 C 
ENDBRANCH  31  34
ENDBRANCH   1  28
TORSDOF 6
ENDMDL
MODEL 9
REMARK VINA RESULT:      -8.5      4.675      8.449
REMARK  6 active torsions:
REMARK  status: ('A' for Active; 'I' for Inactive)
REMARK    1  A    between atoms: O1_2  and  C2_3 
REMARK    2  A    between atoms: C5_6  and  N1_7 
REMARK    3  A    between atoms: C9_12  and  N3_13 
REMARK    4  A    between atoms: N3_13  and  C10_14 
REMARK    5  A    between atoms: N5_23  and  C16_24 
REMARK    6  A    between atoms: C19_27  and  O2_28 
ROOT
HETATM    1  N1  UNL     1      25.667   2.433  51.027  1.00  0.00    -0.295 N 
HETATM    2  C6  UNL     1      26.559   3.145  50.142  1.00  0.00     0.178 C 
HETATM    3  C7  UNL     1      25.923   4.371  49.583  1.00  0.00     0.025 A 
HETATM    4  C8  UNL     1      26.820   5.173  48.911  1.00  0.00     0.149 A 
HETATM    5  N2  UNL     1      26.352   6.282  48.320  1.00  0.00    -0.074 NA
HETATM    6  C9  UNL     1      25.028   6.545  48.420  1.00  0.00     0.729 A 
HETATM    7  N4  UNL     1      24.165   5.746  49.084  1.00  0.00    -0.044 NA
HETATM    8  C15 UNL     1      24.579   4.626  49.693  1.00  0.00     0.162 A 
HETATM    9  N5  UNL     1      23.689   3.794  50.469  1.00  0.00    -0.278 N 
HETATM   10  C21 UNL     1      24.279   2.707  51.116  1.00  0.00     0.331 C 
HETATM   11  O3  UNL     1      23.657   1.899  51.813  1.00  0.00    -0.246 OA
ENDROOT
BRANCH   6  12
HETATM   12  N3  UNL     1      24.350   7.676  47.867  1.00  0.00    -0.182 N 
HETATM   13  H9  UNL     1      23.344   7.699  47.620  1.00  0.00     0.185 HD
BRANCH  12  14
HETATM   14  C10 UNL     1      25.228   8.771  47.700  1.00  0.00     0.091 C 
HETATM   15  S1  UNL     1      25.839   9.079  46.224  1.00  0.00    -0.068 SA
HETATM   16  C11 UNL     1      26.628  10.506  46.121  1.00  0.00     0.065 C 
HETATM   17  C12 UNL     1      27.005  10.971  47.298  1.00  0.00     0.135 C 
HETATM   18  F1  UNL     1      28.054  11.791  47.006  1.00  0.00    -0.205 F 
HETATM   19  C13 UNL     1      26.461  10.697  48.608  1.00  0.00     0.046 C 
HETATM   20  C14 UNL     1      25.632   9.662  48.770  1.00  0.00     0.041 C 
ENDBRANCH  12  14
ENDBRANCH   6  12
BRANCH   9  21
HETATM   21  C16 UNL     1      22.305   4.109  50.537  1.00  0.00     0.099 C 
HETATM   22  C17 UNL     1      21.520   2.994  49.836  1.00  0.00     0.028 C 
HETATM   23  C18 UNL     1      20.096   3.498  50.134  1.00  0.00     0.034 C 
HETATM   24  C19 UNL     1      20.191   4.075  51.528  1.00  0.00     0.120 C 
HETATM   25  C20 UNL     1      21.682   4.097  51.886  1.00  0.00     0.057 C 
BRANCH  24  26
HETATM   26  O2  UNL     1      19.508   3.223  52.390  1.00  0.00    -0.396 OA
HETATM   27  H18 UNL     1      19.203   2.392  51.922  1.00  0.00     0.210 HD
ENDBRANCH  24  26
ENDBRANCH   9  21
BRANCH   1  28
HETATM   28  C5  UNL     1      26.386   1.458  51.803  1.00  0.00     0.039 A 
HETATM   29  C4  UNL     1      26.324   0.086  51.906  1.00  0.00     0.032 A 
HETATM   30  C3  UNL     1      27.197  -0.549  52.759  1.00  0.00     0.039 A 
HETATM   31  C2  UNL     1      28.142   0.115  53.525  1.00  0.00     0.068 A 
HETATM   32  C23 UNL     1      28.193   1.488  53.414  1.00  0.00     0.039 A 
HETATM   33  C22 UNL     1      27.328   2.179  52.561  1.00  0.00     0.032 A 
BRANCH  31  34
HETATM   34  O1  UNL     1      28.924  -0.698  54.318  1.00  0.00    -0.356 OA
HETATM   35  C1  UNL     1      30.124  -1.324  53.918  1.00  0.00     0.210 C 
ENDBRANCH  31  34
ENDBRANCH   1  28
TORSDOF 6
ENDMDL
