MODEL 1
REMARK VINA RESULT:      -8.8      0.000      0.000
REMARK  1 active torsions:
REMARK  status: ('A' for Active; 'I' for Inactive)
REMARK    1  A    between atoms: C4_4  and  C5_5 
ROOT
HETATM    1  C5  UNL     1      24.886   0.027  53.166  1.00  0.00     0.056 A 
HETATM    2  N1  UNL     1      23.970  -0.584  53.927  1.00  0.00    -0.245 NA
HETATM    3  C6  UNL     1      22.672  -0.407  53.992  1.00  0.00     0.234 A 
HETATM    4  N2  UNL     1      22.213   0.536  53.156  1.00  0.00    -0.234 NA
HETATM    5  C7  UNL     1      23.108   1.176  52.369  1.00  0.00     0.112 A 
HETATM    6  S1  UNL     1      22.660   2.424  51.209  1.00  0.00    -0.073 SA
HETATM    7  C8  UNL     1      24.363   2.693  50.626  1.00  0.00    -0.008 A 
HETATM    8  C9  UNL     1      25.138   1.796  51.375  1.00  0.00    -0.030 A 
HETATM    9  C10 UNL     1      24.451   1.017  52.278  1.00  0.00     0.032 A 
HETATM   10  C11 UNL     1      26.486   2.023  50.862  1.00  0.00     0.041 C 
HETATM   11  C12 UNL     1      26.494   3.505  50.452  1.00  0.00     0.010 C 
HETATM   12  C13 UNL     1      25.185   3.507  49.678  1.00  0.00     0.047 C 
ENDROOT
BRANCH   1  13
HETATM   13  C4  UNL     1      26.328  -0.353  53.326  1.00  0.00     0.066 C 
HETATM   14  C3  UNL     1      26.947   0.123  54.594  1.00  0.00     0.040 C 
HETATM   15  C2  UNL     1      28.209   0.929  54.375  1.00  0.00    -0.026 C 
HETATM   16  C1  UNL     1      29.408   0.540  53.902  1.00  0.00    -0.002 C 
HETATM   17  C16 UNL     1      29.881  -0.787  53.450  1.00  0.00     0.024 C 
HETATM   18  C15 UNL     1      29.245  -1.937  53.193  1.00  0.00     0.134 C 
HETATM   19  O1  UNL     1      27.887  -2.205  53.291  1.00  0.00    -0.362 OA
HETATM   20  C14 UNL     1      26.660  -1.716  52.850  1.00  0.00     0.185 C 
ENDBRANCH   1  13
TORSDOF 1
ENDMDL
MODEL 2
REMARK VINA RESULT:      -8.4      2.213      4.082
REMARK  1 active torsions:
REMARK  status: ('A' for Active; 'I' for Inactive)
REMARK    1  A    between atoms: C4_4  and  C5_5 
ROOT
HETATM    1  C5  UNL     1      24.384   2.307  52.473  1.00  0.00     0.056 A 
HETATM    2  N1  UNL     1      24.496   3.468  51.815  1.00  0.00    -0.245 NA
HETATM    3  C6  UNL     1      23.568   4.254  51.326  1.00  0.00     0.234 A 
HETATM    4  N2  UNL     1      22.319   3.807  51.528  1.00  0.00    -0.234 NA
HETATM    5  C7  UNL     1      22.164   2.638  52.189  1.00  0.00     0.112 A 
HETATM    6  S1  UNL     1      20.591   1.930  52.547  1.00  0.00    -0.073 SA
HETATM    7  C8  UNL     1      21.282   0.483  53.413  1.00  0.00    -0.008 A 
HETATM    8  C9  UNL     1      22.670   0.668  53.353  1.00  0.00    -0.030 A 
HETATM    9  C10 UNL     1      23.099   1.805  52.706  1.00  0.00     0.032 A 
HETATM   10  C11 UNL     1      23.184  -0.492  54.076  1.00  0.00     0.041 C 
HETATM   11  C12 UNL     1      22.144  -1.596  53.814  1.00  0.00     0.010 C 
HETATM   12  C13 UNL     1      20.900  -0.778  54.120  1.00  0.00     0.047 C 
ENDROOT
BRANCH   1  13
HETATM   13  C4  UNL     1      25.633   1.591  52.892  1.00  0.00     0.066 C 
HETATM   14  C3  UNL     1      26.378   0.956  51.770  1.00  0.00     0.040 C 
HETATM   15  C2  UNL     1      26.642  -0.517  51.989  1.00  0.00    -0.026 C 
HETATM   16  C1  UNL     1      27.432  -1.125  52.894  1.00  0.00    -0.002 C 
HETATM   17  C16 UNL     1      28.291  -0.560  53.958  1.00  0.00     0.024 C 
HETATM   18  C15 UNL     1      28.409   0.673  54.468  1.00  0.00     0.134 C 
HETATM   19  O1  UNL     1      27.712   1.818  54.110  1.00  0.00    -0.362 OA
HETATM   20  C14 UNL     1      26.408   2.277  53.952  1.00  0.00     0.185 C 
ENDBRANCH   1  13
TORSDOF 1
ENDMDL
MODEL 3
REMARK VINA RESULT:      -8.4      1.750      3.385
REMARK  1 active torsions:
REMARK  status: ('A' for Active; 'I' for Inactive)
REMARK    1  A    between atoms: C4_4  and  C5_5 
ROOT
HETATM    1  C5  UNL     1      26.274   1.377  51.872  1.00  0.00     0.056 A 
HETATM    2  N1  UNL     1      26.829   2.287  51.062  1.00  0.00    -0.245 NA
HETATM    3  C6  UNL     1      26.291   3.319  50.458  1.00  0.00     0.234 A 
HETATM    4  N2  UNL     1      24.981   3.468  50.706  1.00  0.00    -0.234 NA
HETATM    5  C7  UNL     1      24.383   2.569  51.520  1.00  0.00     0.112 A 
HETATM    6  S1  UNL     1      22.678   2.640  51.955  1.00  0.00    -0.073 SA
HETATM    7  C8  UNL     1      22.742   1.164  53.020  1.00  0.00    -0.008 A 
HETATM    8  C9  UNL     1      24.077   0.738  52.951  1.00  0.00    -0.030 A 
HETATM    9  C10 UNL     1      24.909   1.495  52.158  1.00  0.00     0.032 A 
HETATM   10  C11 UNL     1      24.093  -0.425  53.833  1.00  0.00     0.041 C 
HETATM   11  C12 UNL     1      22.677  -1.014  53.714  1.00  0.00     0.010 C 
HETATM   12  C13 UNL     1      21.904   0.283  53.890  1.00  0.00     0.047 C 
ENDROOT
BRANCH   1  13
HETATM   13  C4  UNL     1      27.128   0.264  52.400  1.00  0.00     0.066 C 
HETATM   14  C3  UNL     1      27.662   0.501  53.770  1.00  0.00     0.040 C 
HETATM   15  C2  UNL     1      29.167   0.368  53.854  1.00  0.00    -0.026 C 
HETATM   16  C1  UNL     1      29.945  -0.721  53.709  1.00  0.00    -0.002 C 
HETATM   17  C16 UNL     1      29.589  -2.129  53.426  1.00  0.00     0.024 C 
HETATM   18  C15 UNL     1      28.446  -2.716  53.048  1.00  0.00     0.134 C 
HETATM   19  O1  UNL     1      27.215  -2.121  52.808  1.00  0.00    -0.362 OA
HETATM   20  C14 UNL     1      26.645  -1.095  52.059  1.00  0.00     0.185 C 
ENDBRANCH   1  13
TORSDOF 1
ENDMDL
MODEL 4
REMARK VINA RESULT:      -7.9      1.700      2.372
REMARK  1 active torsions:
REMARK  status: ('A' for Active; 'I' for Inactive)
REMARK    1  A    between atoms: C4_4  and  C5_5 
ROOT
HETATM    1  C5  UNL     1      24.315  -0.036  53.701  1.00  0.00     0.056 A 
HETATM    2  N1  UNL     1      23.913  -0.855  54.681  1.00  0.00    -0.245 NA
HETATM    3  C6  UNL     1      22.711  -1.291  54.977  1.00  0.00     0.234 A 
HETATM    4  N2  UNL     1      21.754  -0.832  54.157  1.00  0.00    -0.234 NA
HETATM    5  C7  UNL     1      22.120  -0.003  53.155  1.00  0.00     0.112 A 
HETATM    6  S1  UNL     1      20.984   0.667  51.987  1.00  0.00    -0.073 SA
HETATM    7  C8  UNL     1      22.256   1.585  51.062  1.00  0.00    -0.008 A 
HETATM    8  C9  UNL     1      23.454   1.298  51.732  1.00  0.00    -0.030 A 
HETATM    9  C10 UNL     1      23.348   0.464  52.822  1.00  0.00     0.032 A 
HETATM   10  C11 UNL     1      24.447   2.027  50.949  1.00  0.00     0.041 C 
HETATM   11  C12 UNL     1      23.683   3.245  50.403  1.00  0.00     0.010 C 
HETATM   12  C13 UNL     1      22.456   2.504  49.899  1.00  0.00     0.047 C 
ENDROOT
BRANCH   1  13
HETATM   13  C4  UNL     1      25.767   0.330  53.617  1.00  0.00     0.066 C 
HETATM   14  C3  UNL     1      26.502  -0.340  52.509  1.00  0.00     0.040 C 
HETATM   15  C2  UNL     1      27.735  -1.083  52.976  1.00  0.00    -0.026 C 
HETATM   16  C1  UNL     1      28.885  -0.607  53.489  1.00  0.00    -0.002 C 
HETATM   17  C16 UNL     1      29.317   0.782  53.759  1.00  0.00     0.024 C 
HETATM   18  C15 UNL     1      28.663   1.951  53.763  1.00  0.00     0.134 C 
HETATM   19  O1  UNL     1      27.321   2.182  53.495  1.00  0.00    -0.362 OA
HETATM   20  C14 UNL     1      26.057   1.757  53.893  1.00  0.00     0.185 C 
ENDBRANCH   1  13
TORSDOF 1
ENDMDL
MODEL 5
REMARK VINA RESULT:      -7.8      3.032      5.563
REMARK  1 active torsions:
REMARK  status: ('A' for Active; 'I' for Inactive)
REMARK    1  A    between atoms: C4_4  and  C5_5 
ROOT
HETATM    1  C5  UNL     1      22.656   2.694  52.081  1.00  0.00     0.056 A 
HETATM    2  N1  UNL     1      21.339   2.899  52.199  1.00  0.00    -0.245 NA
HETATM    3  C6  UNL     1      20.413   2.148  52.747  1.00  0.00     0.234 A 
HETATM    4  N2  UNL     1      20.883   1.002  53.262  1.00  0.00    -0.234 NA
HETATM    5  C7  UNL     1      22.209   0.758  53.162  1.00  0.00     0.112 A 
HETATM    6  S1  UNL     1      22.978  -0.691  53.804  1.00  0.00    -0.073 SA
HETATM    7  C8  UNL     1      24.653  -0.207  53.277  1.00  0.00    -0.008 A 
HETATM    8  C9  UNL     1      24.479   1.034  52.649  1.00  0.00    -0.030 A 
HETATM    9  C10 UNL     1      23.188   1.511  52.605  1.00  0.00     0.032 A 
HETATM   10  C11 UNL     1      25.840   1.398  52.265  1.00  0.00     0.041 C 
HETATM   11  C12 UNL     1      26.537   0.051  52.007  1.00  0.00     0.010 C 
HETATM   12  C13 UNL     1      26.079  -0.658  53.271  1.00  0.00     0.047 C 
ENDROOT
BRANCH   1  13
HETATM   13  C4  UNL     1      23.485   3.718  51.364  1.00  0.00     0.066 C 
HETATM   14  C3  UNL     1      23.607   3.489  49.898  1.00  0.00     0.040 C 
HETATM   15  C2  UNL     1      25.041   3.436  49.421  1.00  0.00    -0.026 C 
HETATM   16  C1  UNL     1      25.969   4.411  49.373  1.00  0.00    -0.002 C 
HETATM   17  C16 UNL     1      25.891   5.836  49.765  1.00  0.00     0.024 C 
HETATM   18  C15 UNL     1      24.976   6.540  50.443  1.00  0.00     0.134 C 
HETATM   19  O1  UNL     1      23.782   6.092  50.991  1.00  0.00    -0.362 OA
HETATM   20  C14 UNL     1      23.295   5.107  51.845  1.00  0.00     0.185 C 
ENDBRANCH   1  13
TORSDOF 1
ENDMDL
MODEL 6
REMARK VINA RESULT:      -7.5      2.767      4.894
REMARK  1 active torsions:
REMARK  status: ('A' for Active; 'I' for Inactive)
REMARK    1  A    between atoms: C4_4  and  C5_5 
ROOT
HETATM    1  C5  UNL     1      24.989   0.692  53.342  1.00  0.00     0.056 A 
HETATM    2  N1  UNL     1      25.979   0.300  54.153  1.00  0.00    -0.245 NA
HETATM    3  C6  UNL     1      25.974  -0.579  55.127  1.00  0.00     0.234 A 
HETATM    4  N2  UNL     1      24.782  -1.162  55.322  1.00  0.00    -0.234 NA
HETATM    5  C7  UNL     1      23.756  -0.793  54.522  1.00  0.00     0.112 A 
HETATM    6  S1  UNL     1      22.139  -1.480  54.642  1.00  0.00    -0.073 SA
HETATM    7  C8  UNL     1      21.463  -0.489  53.272  1.00  0.00    -0.008 A 
HETATM    8  C9  UNL     1      22.543   0.290  52.835  1.00  0.00    -0.030 A 
HETATM    9  C10 UNL     1      23.729   0.107  53.510  1.00  0.00     0.032 A 
HETATM   10  C11 UNL     1      21.971   1.047  51.725  1.00  0.00     0.041 C 
HETATM   11  C12 UNL     1      20.490   1.220  52.106  1.00  0.00     0.010 C 
HETATM   12  C13 UNL     1      20.213  -0.223  52.496  1.00  0.00     0.047 C 
ENDROOT
BRANCH   1  13
HETATM   13  C4  UNL     1      25.269   1.757  52.324  1.00  0.00     0.066 C 
HETATM   14  C3  UNL     1      24.876   3.128  52.750  1.00  0.00     0.040 C 
HETATM   15  C2  UNL     1      23.956   3.817  51.767  1.00  0.00    -0.026 C 
HETATM   16  C1  UNL     1      24.201   4.247  50.515  1.00  0.00    -0.002 C 
HETATM   17  C16 UNL     1      25.434   4.190  49.700  1.00  0.00     0.024 C 
HETATM   18  C15 UNL     1      26.599   3.548  49.863  1.00  0.00     0.134 C 
HETATM   19  O1  UNL     1      26.980   2.717  50.906  1.00  0.00    -0.362 OA
HETATM   20  C14 UNL     1      26.547   1.587  51.593  1.00  0.00     0.185 C 
ENDBRANCH   1  13
TORSDOF 1
ENDMDL
MODEL 7
REMARK VINA RESULT:      -7.3      3.435      6.701
REMARK  1 active torsions:
REMARK  status: ('A' for Active; 'I' for Inactive)
REMARK    1  A    between atoms: C4_4  and  C5_5 
ROOT
HETATM    1  C5  UNL     1      24.351   2.064  51.586  1.00  0.00     0.056 A 
HETATM    2  N1  UNL     1      25.549   2.504  51.183  1.00  0.00    -0.245 NA
HETATM    3  C6  UNL     1      26.752   2.128  51.545  1.00  0.00     0.234 A 
HETATM    4  N2  UNL     1      26.759   1.150  52.462  1.00  0.00    -0.234 NA
HETATM    5  C7  UNL     1      25.569   0.678  52.895  1.00  0.00     0.112 A 
HETATM    6  S1  UNL     1      25.413  -0.616  54.081  1.00  0.00    -0.073 SA
HETATM    7  C8  UNL     1      23.592  -0.614  54.053  1.00  0.00    -0.008 A 
HETATM    8  C9  UNL     1      23.255   0.386  53.130  1.00  0.00    -0.030 A 
HETATM    9  C10 UNL     1      24.312   1.042  52.542  1.00  0.00     0.032 A 
HETATM   10  C11 UNL     1      21.796   0.339  53.117  1.00  0.00     0.041 C 
HETATM   11  C12 UNL     1      21.416  -0.107  54.539  1.00  0.00     0.010 C 
HETATM   12  C13 UNL     1      22.389  -1.269  54.653  1.00  0.00     0.047 C 
ENDROOT
BRANCH   1  13
HETATM   13  C4  UNL     1      23.118   2.708  51.024  1.00  0.00     0.066 C 
HETATM   14  C3  UNL     1      22.672   3.921  51.764  1.00  0.00     0.040 C 
HETATM   15  C2  UNL     1      21.230   3.848  52.214  1.00  0.00    -0.026 C 
HETATM   16  C1  UNL     1      20.099   3.843  51.483  1.00  0.00    -0.002 C 
HETATM   17  C16 UNL     1      19.897   3.909  50.019  1.00  0.00     0.024 C 
HETATM   18  C15 UNL     1      20.739   3.805  48.983  1.00  0.00     0.134 C 
HETATM   19  O1  UNL     1      22.111   3.596  49.011  1.00  0.00    -0.362 OA
HETATM   20  C14 UNL     1      23.054   2.723  49.544  1.00  0.00     0.185 C 
ENDBRANCH   1  13
TORSDOF 1
ENDMDL
MODEL 8
REMARK VINA RESULT:      -7.2      3.272      6.047
REMARK  1 active torsions:
REMARK  status: ('A' for Active; 'I' for Inactive)
REMARK    1  A    between atoms: C4_4  and  C5_5 
ROOT
HETATM    1  C5  UNL     1      22.026   0.477  52.980  1.00  0.00     0.056 A 
HETATM    2  N1  UNL     1      21.154  -0.302  53.632  1.00  0.00    -0.245 NA
HETATM    3  C6  UNL     1      21.361  -1.219  54.546  1.00  0.00     0.234 A 
HETATM    4  N2  UNL     1      22.654  -1.384  54.862  1.00  0.00    -0.234 NA
HETATM    5  C7  UNL     1      23.566  -0.616  54.225  1.00  0.00     0.112 A 
HETATM    6  S1  UNL     1      25.296  -0.703  54.542  1.00  0.00    -0.073 SA
HETATM    7  C8  UNL     1      25.726   0.598  53.342  1.00  0.00    -0.008 A 
HETATM    8  C9  UNL     1      24.496   0.992  52.796  1.00  0.00    -0.030 A 
HETATM    9  C10 UNL     1      23.385   0.338  53.279  1.00  0.00     0.032 A 
HETATM   10  C11 UNL     1      24.878   2.048  51.863  1.00  0.00     0.041 C 
HETATM   11  C12 UNL     1      26.286   1.648  51.391  1.00  0.00     0.010 C 
HETATM   12  C13 UNL     1      26.880   1.347  52.757  1.00  0.00     0.047 C 
ENDROOT
BRANCH   1  13
HETATM   13  C4  UNL     1      21.509   1.428  51.942  1.00  0.00     0.066 C 
HETATM   14  C3  UNL     1      21.311   0.817  50.599  1.00  0.00     0.040 C 
HETATM   15  C2  UNL     1      22.032   1.558  49.494  1.00  0.00    -0.026 C 
HETATM   16  C1  UNL     1      21.812   2.790  48.997  1.00  0.00    -0.002 C 
HETATM   17  C16 UNL     1      20.805   3.810  49.361  1.00  0.00     0.024 C 
HETATM   18  C15 UNL     1      19.947   3.912  50.385  1.00  0.00     0.134 C 
HETATM   19  O1  UNL     1      19.765   3.031  51.441  1.00  0.00    -0.362 OA
HETATM   20  C14 UNL     1      20.490   2.383  52.437  1.00  0.00     0.185 C 
ENDBRANCH   1  13
TORSDOF 1
ENDMDL
MODEL 9
REMARK VINA RESULT:      -7.2      2.758      4.358
REMARK  1 active torsions:
REMARK  status: ('A' for Active; 'I' for Inactive)
REMARK    1  A    between atoms: C4_4  and  C5_5 
ROOT
HETATM    1  C5  UNL     1      25.159   2.899  51.019  1.00  0.00     0.056 A 
HETATM    2  N1  UNL     1      26.021   3.793  50.518  1.00  0.00    -0.245 NA
HETATM    3  C6  UNL     1      25.854   4.689  49.575  1.00  0.00     0.234 A 
HETATM    4  N2  UNL     1      24.622   4.693  49.045  1.00  0.00    -0.234 NA
HETATM    5  C7  UNL     1      23.723   3.805  49.524  1.00  0.00     0.112 A 
HETATM    6  S1  UNL     1      22.063   3.699  48.944  1.00  0.00    -0.073 SA
HETATM    7  C8  UNL     1      21.604   2.347  50.074  1.00  0.00    -0.008 A 
HETATM    8  C9  UNL     1      22.771   2.090  50.807  1.00  0.00    -0.030 A 
HETATM    9  C10 UNL     1      23.862   2.870  50.495  1.00  0.00     0.032 A 
HETATM   10  C11 UNL     1      22.358   1.024  51.715  1.00  0.00     0.041 C 
HETATM   11  C12 UNL     1      21.281   0.252  50.932  1.00  0.00     0.010 C 
HETATM   12  C13 UNL     1      20.472   1.452  50.466  1.00  0.00     0.047 C 
ENDROOT
BRANCH   1  13
HETATM   13  C4  UNL     1      25.634   1.956  52.084  1.00  0.00     0.066 C 
HETATM   14  C3  UNL     1      26.829   1.156  51.701  1.00  0.00     0.040 C 
HETATM   15  C2  UNL     1      26.625  -0.335  51.860  1.00  0.00    -0.026 C 
HETATM   16  C1  UNL     1      26.458  -1.066  52.978  1.00  0.00    -0.002 C 
HETATM   17  C16 UNL     1      26.422  -0.659  54.400  1.00  0.00     0.024 C 
HETATM   18  C15 UNL     1      26.355   0.537  54.999  1.00  0.00     0.134 C 
HETATM   19  O1  UNL     1      26.297   1.790  54.406  1.00  0.00    -0.362 OA
HETATM   20  C14 UNL     1      25.562   2.499  53.461  1.00  0.00     0.185 C 
ENDBRANCH   1  13
TORSDOF 1
ENDMDL
