MODEL 1
REMARK VINA RESULT:      -7.9      0.000      0.000
REMARK  4 active torsions:
REMARK  status: ('A' for Active; 'I' for Inactive)
REMARK    1  A    between atoms: N1_2  and  N2_3 
REMARK    2  A    between atoms: N2_3  and  C1_4 
REMARK    3  A    between atoms: C6_11  and  N5_12 
REMARK    4  A    between atoms: N5_12  and  C7_13 
ROOT
HETATM    1  C1  UNL     1      21.112  -0.071  53.416  1.00  0.00     0.053 A 
HETATM    2  C2  UNL     1      20.127  -0.169  52.465  1.00  0.00     0.033 A 
HETATM    3  C3  UNL     1      20.320   0.444  51.245  1.00  0.00     0.035 A 
HETATM    4  C4  UNL     1      21.470   1.153  50.952  1.00  0.00     0.072 A 
HETATM    5  N3  UNL     1      21.686   1.756  49.764  1.00  0.00    -0.241 NA
HETATM    6  C5  UNL     1      22.843   2.421  49.560  1.00  0.00     0.236 A 
HETATM    7  N4  UNL     1      23.833   2.538  50.473  1.00  0.00    -0.224 NA
HETATM    8  C6  UNL     1      23.690   1.961  51.691  1.00  0.00     0.142 A 
HETATM    9  C13 UNL     1      22.487   1.273  51.891  1.00  0.00     0.041 A 
HETATM   10  C14 UNL     1      22.240   0.643  53.083  1.00  0.00     0.048 A 
ENDROOT
BRANCH   8  11
HETATM   11  N5  UNL     1      24.605   1.945  52.781  1.00  0.00    -0.340 N 
HETATM   12  H5  UNL     1      24.082   2.486  53.507  1.00  0.00     0.167 HD
BRANCH  11  13
HETATM   13  C7  UNL     1      25.881   1.393  52.997  1.00  0.00     0.033 A 
HETATM   14  C8  UNL     1      26.961   2.054  53.496  1.00  0.00     0.031 A 
HETATM   15  C9  UNL     1      28.160   1.386  53.679  1.00  0.00     0.021 A 
HETATM   16  C10 UNL     1      28.268   0.040  53.355  1.00  0.00     0.011 A 
HETATM   17 BR1  UNL     1      29.852  -0.999  53.562  1.00  0.00    -0.051 Br
HETATM   18  C11 UNL     1      27.175  -0.640  52.847  1.00  0.00     0.021 A 
HETATM   19  C12 UNL     1      25.991   0.039  52.672  1.00  0.00     0.031 A 
ENDBRANCH  11  13
ENDBRANCH   8  11
BRANCH   1  20
HETATM   20  N2  UNL     1      20.877  -0.708  54.658  1.00  0.00    -0.254 N 
HETATM   21  H1  UNL     1      20.152  -0.189  55.177  1.00  0.00     0.191 HD
BRANCH  20  22
HETATM   22  N1  UNL     1      21.552  -1.844  55.053  1.00  0.00    -0.014 NA
HETATM   23  O1  UNL     1      22.671  -1.747  55.635  1.00  0.00    -0.042 OA
ENDBRANCH  20  22
ENDBRANCH   1  20
TORSDOF 4
ENDMDL
MODEL 2
REMARK VINA RESULT:      -7.8      3.653      5.625
REMARK  4 active torsions:
REMARK  status: ('A' for Active; 'I' for Inactive)
REMARK    1  A    between atoms: N1_2  and  N2_3 
REMARK    2  A    between atoms: N2_3  and  C1_4 
REMARK    3  A    between atoms: C6_11  and  N5_12 
REMARK    4  A    between atoms: N5_12  and  C7_13 
ROOT
HETATM    1  C1  UNL     1      24.482  -0.298  53.646  1.00  0.00     0.053 A 
HETATM    2  C2  UNL     1      25.067  -0.698  54.822  1.00  0.00     0.033 A 
HETATM    3  C3  UNL     1      26.314  -0.203  55.144  1.00  0.00     0.035 A 
HETATM    4  C4  UNL     1      26.991   0.677  54.320  1.00  0.00     0.072 A 
HETATM    5  N3  UNL     1      28.207   1.180  54.615  1.00  0.00    -0.241 NA
HETATM    6  C5  UNL     1      28.794   2.041  53.757  1.00  0.00     0.236 A 
HETATM    7  N4  UNL     1      28.248   2.454  52.591  1.00  0.00    -0.224 NA
HETATM    8  C6  UNL     1      27.028   1.993  52.224  1.00  0.00     0.142 A 
HETATM    9  C13 UNL     1      26.430   1.101  53.122  1.00  0.00     0.041 A 
HETATM   10  C14 UNL     1      25.190   0.578  52.856  1.00  0.00     0.048 A 
ENDROOT
BRANCH   8  11
HETATM   11  N5  UNL     1      26.270   2.309  51.062  1.00  0.00    -0.340 N 
HETATM   12  H5  UNL     1      25.949   1.363  50.753  1.00  0.00     0.167 HD
BRANCH  11  13
HETATM   13  C7  UNL     1      25.933   3.498  50.390  1.00  0.00     0.033 A 
HETATM   14  C8  UNL     1      24.781   4.204  50.549  1.00  0.00     0.031 A 
HETATM   15  C9  UNL     1      24.580   5.374  49.837  1.00  0.00     0.021 A 
HETATM   16  C10 UNL     1      25.552   5.834  48.957  1.00  0.00     0.011 A 
HETATM   17 BR1  UNL     1      25.407   7.428  47.922  1.00  0.00    -0.051 Br
HETATM   18  C11 UNL     1      26.726   5.122  48.789  1.00  0.00     0.021 A 
HETATM   19  C12 UNL     1      26.909   3.961  49.504  1.00  0.00     0.031 A 
ENDBRANCH  11  13
ENDBRANCH   8  11
BRANCH   1  20
HETATM   20  N2  UNL     1      23.205  -0.830  53.346  1.00  0.00    -0.254 N 
HETATM   21  H1  UNL     1      23.213  -1.220  52.392  1.00  0.00     0.191 HD
BRANCH  20  22
HETATM   22  N1  UNL     1      22.154  -0.793  54.239  1.00  0.00    -0.014 NA
HETATM   23  O1  UNL     1      21.780  -1.851  54.823  1.00  0.00    -0.042 OA
ENDBRANCH  20  22
ENDBRANCH   1  20
TORSDOF 4
ENDMDL
MODEL 3
REMARK VINA RESULT:      -7.6      3.705      4.723
REMARK  4 active torsions:
REMARK  status: ('A' for Active; 'I' for Inactive)
REMARK    1  A    between atoms: N1_2  and  N2_3 
REMARK    2  A    between atoms: N2_3  and  C1_4 
REMARK    3  A    between atoms: C6_11  and  N5_12 
REMARK    4  A    between atoms: N5_12  and  C7_13 
ROOT
HETATM    1  C1  UNL     1      24.962  -0.288  54.233  1.00  0.00     0.053 A 
HETATM    2  C2  UNL     1      23.844  -1.009  54.569  1.00  0.00     0.033 A 
HETATM    3  C3  UNL     1      22.693  -0.833  53.828  1.00  0.00     0.035 A 
HETATM    4  C4  UNL     1      22.633   0.045  52.762  1.00  0.00     0.072 A 
HETATM    5  N3  UNL     1      21.523   0.230  52.017  1.00  0.00    -0.241 NA
HETATM    6  C5  UNL     1      21.554   1.102  50.988  1.00  0.00     0.236 A 
HETATM    7  N4  UNL     1      22.637   1.828  50.629  1.00  0.00    -0.224 NA
HETATM    8  C6  UNL     1      23.790   1.699  51.329  1.00  0.00     0.142 A 
HETATM    9  C13 UNL     1      23.746   0.791  52.393  1.00  0.00     0.041 A 
HETATM   10  C14 UNL     1      24.858   0.574  53.165  1.00  0.00     0.048 A 
ENDROOT
BRANCH   8  11
HETATM   11  N5  UNL     1      25.039   2.346  51.113  1.00  0.00    -0.340 N 
HETATM   12  H5  UNL     1      25.699   1.706  51.613  1.00  0.00     0.167 HD
BRANCH  11  13
HETATM   13  C7  UNL     1      25.451   3.507  50.434  1.00  0.00     0.033 A 
HETATM   14  C8  UNL     1      24.830   4.716  50.473  1.00  0.00     0.031 A 
HETATM   15  C9  UNL     1      25.352   5.788  49.771  1.00  0.00     0.021 A 
HETATM   16  C10 UNL     1      26.513   5.637  49.023  1.00  0.00     0.011 A 
HETATM   17 BR1  UNL     1      27.340   7.027  48.016  1.00  0.00    -0.051 Br
HETATM   18  C11 UNL     1      27.152   4.410  48.977  1.00  0.00     0.021 A 
HETATM   19  C12 UNL     1      26.619   3.355  49.682  1.00  0.00     0.031 A 
ENDBRANCH  11  13
ENDBRANCH   8  11
BRANCH   1  20
HETATM   20  N2  UNL     1      26.122  -0.490  55.018  1.00  0.00    -0.254 N 
HETATM   21  H1  UNL     1      25.849  -0.860  55.941  1.00  0.00     0.191 HD
BRANCH  20  22
HETATM   22  N1  UNL     1      27.392  -0.210  54.559  1.00  0.00    -0.014 NA
HETATM   23  O1  UNL     1      28.050  -1.091  53.934  1.00  0.00    -0.042 OA
ENDBRANCH  20  22
ENDBRANCH   1  20
TORSDOF 4
ENDMDL
MODEL 4
REMARK VINA RESULT:      -7.5      3.422      5.300
REMARK  4 active torsions:
REMARK  status: ('A' for Active; 'I' for Inactive)
REMARK    1  A    between atoms: N1_2  and  N2_3 
REMARK    2  A    between atoms: N2_3  and  C1_4 
REMARK    3  A    between atoms: C6_11  and  N5_12 
REMARK    4  A    between atoms: N5_12  and  C7_13 
ROOT
HETATM    1  C1  UNL     1      25.158  -0.571  54.509  1.00  0.00     0.053 A 
HETATM    2  C2  UNL     1      24.539  -1.283  55.506  1.00  0.00     0.033 A 
HETATM    3  C3  UNL     1      23.165  -1.414  55.472  1.00  0.00     0.035 A 
HETATM    4  C4  UNL     1      22.398  -0.851  54.470  1.00  0.00     0.072 A 
HETATM    5  N3  UNL     1      21.056  -0.970  54.410  1.00  0.00    -0.241 NA
HETATM    6  C5  UNL     1      20.384  -0.394  53.390  1.00  0.00     0.236 A 
HETATM    7  N4  UNL     1      20.961   0.314  52.394  1.00  0.00    -0.224 NA
HETATM    8  C6  UNL     1      22.306   0.479  52.384  1.00  0.00     0.142 A 
HETATM    9  C13 UNL     1      22.992  -0.123  53.446  1.00  0.00     0.041 A 
HETATM   10  C14 UNL     1      24.357  -0.028  53.532  1.00  0.00     0.048 A 
ENDROOT
BRANCH   8  11
HETATM   11  N5  UNL     1      23.112   1.164  51.431  1.00  0.00    -0.340 N 
HETATM   12  H5  UNL     1      23.471   0.373  50.849  1.00  0.00     0.167 HD
BRANCH  11  13
HETATM   13  C7  UNL     1      23.431   2.512  51.187  1.00  0.00     0.033 A 
HETATM   14  C8  UNL     1      24.000   3.003  50.053  1.00  0.00     0.031 A 
HETATM   15  C9  UNL     1      24.246   4.360  49.932  1.00  0.00     0.021 A 
HETATM   16  C10 UNL     1      23.914   5.227  50.965  1.00  0.00     0.011 A 
HETATM   17 BR1  UNL     1      24.192   7.112  50.927  1.00  0.00    -0.051 Br
HETATM   18  C11 UNL     1      23.335   4.736  52.122  1.00  0.00     0.021 A 
HETATM   19  C12 UNL     1      23.098   3.385  52.226  1.00  0.00     0.031 A 
ENDBRANCH  11  13
ENDBRANCH   8  11
BRANCH   1  20
HETATM   20  N2  UNL     1      26.567  -0.453  54.580  1.00  0.00    -0.254 N 
HETATM   21  H1  UNL     1      26.998  -1.360  54.342  1.00  0.00     0.191 HD
BRANCH  20  22
HETATM   22  N1  UNL     1      27.201   0.722  54.924  1.00  0.00    -0.014 NA
HETATM   23  O1  UNL     1      28.454   0.742  55.094  1.00  0.00    -0.042 OA
ENDBRANCH  20  22
ENDBRANCH   1  20
TORSDOF 4
ENDMDL
MODEL 5
REMARK VINA RESULT:      -7.3      2.731      4.423
REMARK  4 active torsions:
REMARK  status: ('A' for Active; 'I' for Inactive)
REMARK    1  A    between atoms: N1_2  and  N2_3 
REMARK    2  A    between atoms: N2_3  and  C1_4 
REMARK    3  A    between atoms: C6_11  and  N5_12 
REMARK    4  A    between atoms: N5_12  and  C7_13 
ROOT
HETATM    1  C1  UNL     1      24.646   3.383  49.974  1.00  0.00     0.053 A 
HETATM    2  C2  UNL     1      23.771   3.373  48.916  1.00  0.00     0.033 A 
HETATM    3  C3  UNL     1      22.679   2.531  48.967  1.00  0.00     0.035 A 
HETATM    4  C4  UNL     1      22.441   1.699  50.045  1.00  0.00     0.072 A 
HETATM    5  N3  UNL     1      21.378   0.872  50.122  1.00  0.00    -0.241 NA
HETATM    6  C5  UNL     1      21.218   0.099  51.217  1.00  0.00     0.236 A 
HETATM    7  N4  UNL     1      22.060   0.083  52.275  1.00  0.00    -0.224 NA
HETATM    8  C6  UNL     1      23.152   0.885  52.272  1.00  0.00     0.142 A 
HETATM    9  C13 UNL     1      23.306   1.683  51.132  1.00  0.00     0.041 A 
HETATM   10  C14 UNL     1      24.371   2.540  51.026  1.00  0.00     0.048 A 
ENDROOT
BRANCH   8  11
HETATM   11  N5  UNL     1      24.146   1.038  53.279  1.00  0.00    -0.340 N 
HETATM   12  H5  UNL     1      23.625   1.568  54.015  1.00  0.00     0.167 HD
BRANCH  11  13
HETATM   13  C7  UNL     1      25.489   0.639  53.417  1.00  0.00     0.033 A 
HETATM   14  C8  UNL     1      26.455   1.317  54.092  1.00  0.00     0.031 A 
HETATM   15  C9  UNL     1      27.739   0.804  54.168  1.00  0.00     0.021 A 
HETATM   16  C10 UNL     1      28.047  -0.405  53.557  1.00  0.00     0.011 A 
HETATM   17 BR1  UNL     1      29.766  -1.226  53.589  1.00  0.00    -0.051 Br
HETATM   18  C11 UNL     1      27.069  -1.101  52.869  1.00  0.00     0.021 A 
HETATM   19  C12 UNL     1      25.799  -0.577  52.803  1.00  0.00     0.031 A 
ENDBRANCH  11  13
ENDBRANCH   8  11
BRANCH   1  20
HETATM   20  N2  UNL     1      25.757   4.255  49.885  1.00  0.00    -0.254 N 
HETATM   21  H1  UNL     1      25.446   5.223  50.059  1.00  0.00     0.191 HD
BRANCH  20  22
HETATM   22  N1  UNL     1      27.031   3.812  49.600  1.00  0.00    -0.014 NA
HETATM   23  O1  UNL     1      27.708   4.370  48.688  1.00  0.00    -0.042 OA
ENDBRANCH  20  22
ENDBRANCH   1  20
TORSDOF 4
ENDMDL
MODEL 6
REMARK VINA RESULT:      -7.3      4.260      5.603
REMARK  4 active torsions:
REMARK  status: ('A' for Active; 'I' for Inactive)
REMARK    1  A    between atoms: N1_2  and  N2_3 
REMARK    2  A    between atoms: N2_3  and  C1_4 
REMARK    3  A    between atoms: C6_11  and  N5_12 
REMARK    4  A    between atoms: N5_12  and  C7_13 
ROOT
HETATM    1  C1  UNL     1      25.699   2.009  53.392  1.00  0.00     0.053 A 
HETATM    2  C2  UNL     1      25.053   0.808  53.551  1.00  0.00     0.033 A 
HETATM    3  C3  UNL     1      24.006   0.502  52.706  1.00  0.00     0.035 A 
HETATM    4  C4  UNL     1      23.589   1.364  51.710  1.00  0.00     0.072 A 
HETATM    5  N3  UNL     1      22.573   1.085  50.867  1.00  0.00    -0.241 NA
HETATM    6  C5  UNL     1      22.235   1.982  49.917  1.00  0.00     0.236 A 
HETATM    7  N4  UNL     1      22.848   3.173  49.733  1.00  0.00    -0.224 NA
HETATM    8  C6  UNL     1      23.877   3.527  50.540  1.00  0.00     0.142 A 
HETATM    9  C13 UNL     1      24.218   2.588  51.521  1.00  0.00     0.041 A 
HETATM   10  C14 UNL     1      25.251   2.837  52.388  1.00  0.00     0.048 A 
ENDROOT
BRANCH   8  11
HETATM   11  N5  UNL     1      24.666   4.711  50.510  1.00  0.00    -0.340 N 
HETATM   12  H5  UNL     1      24.200   5.296  51.242  1.00  0.00     0.167 HD
BRANCH  11  13
HETATM   13  C7  UNL     1      25.792   5.135  49.781  1.00  0.00     0.033 A 
HETATM   14  C8  UNL     1      26.757   4.328  49.264  1.00  0.00     0.031 A 
HETATM   15  C9  UNL     1      27.808   4.873  48.547  1.00  0.00     0.021 A 
HETATM   16  C10 UNL     1      27.883   6.246  48.351  1.00  0.00     0.011 A 
HETATM   17 BR1  UNL     1      29.268   7.126  47.382  1.00  0.00    -0.051 Br
HETATM   18  C11 UNL     1      26.906   7.075  48.873  1.00  0.00     0.021 A 
HETATM   19  C12 UNL     1      25.869   6.516  49.583  1.00  0.00     0.031 A 
ENDBRANCH  11  13
ENDBRANCH   8  11
BRANCH   1  20
HETATM   20  N2  UNL     1      26.765   2.292  54.280  1.00  0.00    -0.254 N 
HETATM   21  H1  UNL     1      26.381   2.570  55.196  1.00  0.00     0.191 HD
BRANCH  20  22
HETATM   22  N1  UNL     1      28.089   2.196  53.909  1.00  0.00    -0.014 NA
HETATM   23  O1  UNL     1      28.455   2.567  52.756  1.00  0.00    -0.042 OA
ENDBRANCH  20  22
ENDBRANCH   1  20
TORSDOF 4
ENDMDL
MODEL 7
REMARK VINA RESULT:      -7.3      3.418      4.741
REMARK  4 active torsions:
REMARK  status: ('A' for Active; 'I' for Inactive)
REMARK    1  A    between atoms: N1_2  and  N2_3 
REMARK    2  A    between atoms: N2_3  and  C1_4 
REMARK    3  A    between atoms: C6_11  and  N5_12 
REMARK    4  A    between atoms: N5_12  and  C7_13 
ROOT
HETATM    1  C1  UNL     1      21.725   0.083  53.789  1.00  0.00     0.053 A 
HETATM    2  C2  UNL     1      22.003  -0.817  54.788  1.00  0.00     0.033 A 
HETATM    3  C3  UNL     1      23.318  -1.158  55.027  1.00  0.00     0.035 A 
HETATM    4  C4  UNL     1      24.361  -0.625  54.292  1.00  0.00     0.072 A 
HETATM    5  N3  UNL     1      25.655  -0.938  54.509  1.00  0.00    -0.241 NA
HETATM    6  C5  UNL     1      26.612  -0.364  53.749  1.00  0.00     0.236 A 
HETATM    7  N4  UNL     1      26.375   0.524  52.758  1.00  0.00    -0.224 NA
HETATM    8  C6  UNL     1      25.100   0.888  52.478  1.00  0.00     0.142 A 
HETATM    9  C13 UNL     1      24.117   0.287  53.273  1.00  0.00     0.041 A 
HETATM   10  C14 UNL     1      22.793   0.589  53.083  1.00  0.00     0.048 A 
ENDROOT
BRANCH   8  11
HETATM   11  N5  UNL     1      24.632   1.811  51.500  1.00  0.00    -0.340 N 
HETATM   12  H5  UNL     1      23.628   1.531  51.406  1.00  0.00     0.167 HD
BRANCH  11  13
HETATM   13  C7  UNL     1      25.211   2.870  50.777  1.00  0.00     0.033 A 
HETATM   14  C8  UNL     1      26.362   2.806  50.055  1.00  0.00     0.031 A 
HETATM   15  C9  UNL     1      26.815   3.921  49.371  1.00  0.00     0.021 A 
HETATM   16  C10 UNL     1      26.098   5.110  49.417  1.00  0.00     0.011 A 
HETATM   17 BR1  UNL     1      26.603   6.714  48.521  1.00  0.00    -0.051 Br
HETATM   18  C11 UNL     1      24.926   5.184  50.150  1.00  0.00     0.021 A 
HETATM   19  C12 UNL     1      24.491   4.066  50.823  1.00  0.00     0.031 A 
ENDBRANCH  11  13
ENDBRANCH   8  11
BRANCH   1  20
HETATM   20  N2  UNL     1      20.365   0.406  53.570  1.00  0.00    -0.254 N 
HETATM   21  H1  UNL     1      20.022   0.987  54.350  1.00  0.00     0.191 HD
BRANCH  20  22
HETATM   22  N1  UNL     1      19.665  -0.029  52.464  1.00  0.00    -0.014 NA
HETATM   23  O1  UNL     1      18.471  -0.428  52.585  1.00  0.00    -0.042 OA
ENDBRANCH  20  22
ENDBRANCH   1  20
TORSDOF 4
ENDMDL
MODEL 8
REMARK VINA RESULT:      -7.2      3.919      6.275
REMARK  4 active torsions:
REMARK  status: ('A' for Active; 'I' for Inactive)
REMARK    1  A    between atoms: N1_2  and  N2_3 
REMARK    2  A    between atoms: N2_3  and  C1_4 
REMARK    3  A    between atoms: C6_11  and  N5_12 
REMARK    4  A    between atoms: N5_12  and  C7_13 
ROOT
HETATM    1  C1  UNL     1      26.358   1.743  53.854  1.00  0.00     0.053 A 
HETATM    2  C2  UNL     1      26.452   0.430  54.243  1.00  0.00     0.033 A 
HETATM    3  C3  UNL     1      25.372  -0.403  54.035  1.00  0.00     0.035 A 
HETATM    4  C4  UNL     1      24.202   0.044  53.451  1.00  0.00     0.072 A 
HETATM    5  N3  UNL     1      23.134  -0.751  53.230  1.00  0.00    -0.241 NA
HETATM    6  C5  UNL     1      22.033  -0.234  52.646  1.00  0.00     0.236 A 
HETATM    7  N4  UNL     1      21.905   1.052  52.251  1.00  0.00    -0.224 NA
HETATM    8  C6  UNL     1      22.934   1.914  52.439  1.00  0.00     0.142 A 
HETATM    9  C13 UNL     1      24.071   1.366  53.045  1.00  0.00     0.041 A 
HETATM   10  C14 UNL     1      25.176   2.145  53.276  1.00  0.00     0.048 A 
ENDROOT
BRANCH   8  11
HETATM   11  N5  UNL     1      23.019   3.290  52.085  1.00  0.00    -0.340 N 
HETATM   12  H5  UNL     1      23.044   3.750  53.024  1.00  0.00     0.167 HD
BRANCH  11  13
HETATM   13  C7  UNL     1      23.078   4.001  50.873  1.00  0.00     0.033 A 
HETATM   14  C8  UNL     1      24.155   4.075  50.044  1.00  0.00     0.031 A 
HETATM   15  C9  UNL     1      24.076   4.797  48.866  1.00  0.00     0.021 A 
HETATM   16  C10 UNL     1      22.898   5.449  48.522  1.00  0.00     0.011 A 
HETATM   17 BR1  UNL     1      22.651   6.470  46.932  1.00  0.00    -0.051 Br
HETATM   18  C11 UNL     1      21.798   5.379  49.359  1.00  0.00     0.021 A 
HETATM   19  C12 UNL     1      21.894   4.657  50.526  1.00  0.00     0.031 A 
ENDBRANCH  11  13
ENDBRANCH   8  11
BRANCH   1  20
HETATM   20  N2  UNL     1      27.484   2.568  54.087  1.00  0.00    -0.254 N 
HETATM   21  H1  UNL     1      27.171   3.542  54.220  1.00  0.00     0.191 HD
BRANCH  20  22
HETATM   22  N1  UNL     1      28.773   2.081  54.114  1.00  0.00    -0.014 NA
HETATM   23  O1  UNL     1      29.565   2.428  55.038  1.00  0.00    -0.042 OA
ENDBRANCH  20  22
ENDBRANCH   1  20
TORSDOF 4
ENDMDL
MODEL 9
REMARK VINA RESULT:      -7.1      3.918      5.529
REMARK  4 active torsions:
REMARK  status: ('A' for Active; 'I' for Inactive)
REMARK    1  A    between atoms: N1_2  and  N2_3 
REMARK    2  A    between atoms: N2_3  and  C1_4 
REMARK    3  A    between atoms: C6_11  and  N5_12 
REMARK    4  A    between atoms: N5_12  and  C7_13 
ROOT
HETATM    1  C1  UNL     1      26.250   0.480  54.206  1.00  0.00     0.053 A 
HETATM    2  C2  UNL     1      25.562  -0.472  54.916  1.00  0.00     0.033 A 
HETATM    3  C3  UNL     1      24.274  -0.784  54.532  1.00  0.00     0.035 A 
HETATM    4  C4  UNL     1      23.657  -0.168  53.459  1.00  0.00     0.072 A 
HETATM    5  N3  UNL     1      22.402  -0.459  53.060  1.00  0.00    -0.241 NA
HETATM    6  C5  UNL     1      21.879   0.186  51.995  1.00  0.00     0.236 A 
HETATM    7  N4  UNL     1      22.527   1.128  51.274  1.00  0.00    -0.224 NA
HETATM    8  C6  UNL     1      23.792   1.477  51.613  1.00  0.00     0.142 A 
HETATM    9  C13 UNL     1      24.323   0.801  52.718  1.00  0.00     0.041 A 
HETATM   10  C14 UNL     1      25.599   1.068  53.145  1.00  0.00     0.048 A 
ENDROOT
BRANCH   8  11
HETATM   11  N5  UNL     1      24.654   2.420  50.986  1.00  0.00    -0.340 N 
HETATM   12  H5  UNL     1      25.393   1.798  50.584  1.00  0.00     0.167 HD
BRANCH  11  13
HETATM   13  C7  UNL     1      24.654   3.819  50.838  1.00  0.00     0.033 A 
HETATM   14  C8  UNL     1      23.847   4.690  51.501  1.00  0.00     0.031 A 
HETATM   15  C9  UNL     1      23.962   6.051  51.276  1.00  0.00     0.021 A 
HETATM   16  C10 UNL     1      24.902   6.535  50.375  1.00  0.00     0.011 A 
HETATM   17 BR1  UNL     1      25.170   8.379  49.976  1.00  0.00    -0.051 Br
HETATM   18  C11 UNL     1      25.727   5.655  49.696  1.00  0.00     0.021 A 
HETATM   19  C12 UNL     1      25.599   4.306  49.932  1.00  0.00     0.031 A 
ENDBRANCH  11  13
ENDBRANCH   8  11
BRANCH   1  20
HETATM   20  N2  UNL     1      27.567   0.778  54.631  1.00  0.00    -0.254 N 
HETATM   21  H1  UNL     1      27.712   1.798  54.604  1.00  0.00     0.191 HD
BRANCH  20  22
HETATM   22  N1  UNL     1      28.468  -0.197  55.005  1.00  0.00    -0.014 NA
HETATM   23  O1  UNL     1      29.365  -0.576  54.198  1.00  0.00    -0.042 OA
ENDBRANCH  20  22
ENDBRANCH   1  20
TORSDOF 4
ENDMDL
