MODEL 1
REMARK VINA RESULT:      -8.0      0.000      0.000
REMARK  5 active torsions:
REMARK  status: ('A' for Active; 'I' for Inactive)
REMARK    1  A    between atoms: N1_1  and  C1_2 
REMARK    2  A    between atoms: C4_6  and  N3_7 
REMARK    3  A    between atoms: N3_7  and  C5_8 
REMARK    4  A    between atoms: C5_8  and  C6_9 
REMARK    5  A    between atoms: C12_15  and  C13_16 
ROOT
HETATM    1  C1  UNL     1      25.132   2.405  53.187  1.00  0.00     0.327 C 
HETATM    2  N2  UNL     1      24.617   3.753  53.451  1.00  0.00    -0.370 N 
HETATM    3  C2  UNL     1      23.526   4.293  52.691  1.00  0.00     0.083 C 
HETATM    4  C3  UNL     1      23.431   3.942  51.408  1.00  0.00     0.026 C 
HETATM    5  C4  UNL     1      24.485   3.023  50.928  1.00  0.00     0.257 C 
HETATM    6  C12 UNL     1      24.591   1.876  51.887  1.00  0.00     0.105 C 
HETATM    7  H4  UNL     1      25.062   4.311  54.207  1.00  0.00     0.161 HD
ENDROOT
BRANCH   5   8
HETATM    8  N3  UNL     1      25.781   3.649  50.885  1.00  0.00     0.096 N 
HETATM    9  H8  UNL     1      26.360   3.432  51.715  1.00  0.00     0.317 HD
BRANCH   8  10
HETATM   10  C5  UNL     1      26.501   3.450  49.652  1.00  0.00     0.309 C 
BRANCH  10  11
HETATM   11  C6  UNL     1      26.750   4.779  49.038  1.00  0.00    -0.030 A 
HETATM   12  C7  UNL     1      28.049   5.043  48.584  1.00  0.00     0.009 A 
HETATM   13  C8  UNL     1      28.470   6.217  47.992  1.00  0.00     0.001 A 
HETATM   14  C9  UNL     1      27.534   7.217  47.831  1.00  0.00     0.000 A 
HETATM   15  C10 UNL     1      26.243   6.993  48.266  1.00  0.00     0.001 A 
HETATM   16  C11 UNL     1      25.852   5.810  48.855  1.00  0.00     0.009 A 
ENDBRANCH  10  11
ENDBRANCH   8  10
ENDBRANCH   5   8
BRANCH   6  17
HETATM   17  C13 UNL     1      23.336   1.114  52.028  1.00  0.00    -0.055 C 
HETATM   18  C14 UNL     1      23.009   0.477  53.091  1.00  0.00     0.004 C 
HETATM   19  C15 UNL     1      21.795   0.379  53.546  1.00  0.00     0.037 A 
HETATM   20  C16 UNL     1      20.432   0.273  53.960  1.00  0.00     0.180 A 
HETATM   21  N4  UNL     1      20.778   0.342  52.558  1.00  0.00    -0.376 N 
HETATM   22  C17 UNL     1      21.111   0.410  51.166  1.00  0.00     0.127 C 
HETATM   23  C18 UNL     1      22.407   1.085  50.874  1.00  0.00     0.055 C 
ENDBRANCH   6  17
BRANCH   1  24
HETATM   24  N1  UNL     1      26.583   2.495  53.069  1.00  0.00     0.102 N 
HETATM   25  H1  UNL     1      26.973   2.152  53.990  1.00  0.00     0.315 HD
HETATM   26  H2  UNL     1      26.830   3.492  52.926  1.00  0.00     0.315 HD
ENDBRANCH   1  24
TORSDOF 5
ENDMDL
MODEL 2
REMARK VINA RESULT:      -7.7      1.377      1.935
REMARK  5 active torsions:
REMARK  status: ('A' for Active; 'I' for Inactive)
REMARK    1  A    between atoms: N1_1  and  C1_2 
REMARK    2  A    between atoms: C4_6  and  N3_7 
REMARK    3  A    between atoms: N3_7  and  C5_8 
REMARK    4  A    between atoms: C5_8  and  C6_9 
REMARK    5  A    between atoms: C12_15  and  C13_16 
ROOT
HETATM    1  C1  UNL     1      23.175   4.819  51.728  1.00  0.00     0.327 C 
HETATM    2  N2  UNL     1      22.923   4.974  50.291  1.00  0.00    -0.370 N 
HETATM    3  C2  UNL     1      22.917   3.839  49.412  1.00  0.00     0.083 C 
HETATM    4  C3  UNL     1      23.751   2.837  49.689  1.00  0.00     0.026 C 
HETATM    5  C4  UNL     1      24.590   3.031  50.891  1.00  0.00     0.257 C 
HETATM    6  C12 UNL     1      23.706   3.445  52.028  1.00  0.00     0.105 C 
HETATM    7  H4  UNL     1      22.747   5.929  49.922  1.00  0.00     0.161 HD
ENDROOT
BRANCH   5   8
HETATM    8  N3  UNL     1      25.562   4.079  50.719  1.00  0.00     0.096 N 
HETATM    9  H8  UNL     1      25.971   4.398  51.613  1.00  0.00     0.317 HD
BRANCH   8  10
HETATM   10  C5  UNL     1      26.570   3.803  49.726  1.00  0.00     0.309 C 
BRANCH  10  11
HETATM   11  C6  UNL     1      26.862   5.062  48.994  1.00  0.00    -0.030 A 
HETATM   12  C7  UNL     1      28.175   5.255  48.546  1.00  0.00     0.009 A 
HETATM   13  C8  UNL     1      28.634   6.358  47.854  1.00  0.00     0.001 A 
HETATM   14  C9  UNL     1      27.724   7.357  47.579  1.00  0.00     0.000 A 
HETATM   15  C10 UNL     1      26.420   7.202  48.004  1.00  0.00     0.001 A 
HETATM   16  C11 UNL     1      25.991   6.088  48.695  1.00  0.00     0.009 A 
ENDBRANCH  10  11
ENDBRANCH   8  10
ENDBRANCH   5   8
BRANCH   6  17
HETATM   17  C13 UNL     1      22.658   2.456  52.345  1.00  0.00    -0.055 C 
HETATM   18  C14 UNL     1      22.900   1.224  52.599  1.00  0.00     0.004 C 
HETATM   19  C15 UNL     1      22.250   0.511  53.470  1.00  0.00     0.037 A 
HETATM   20  C16 UNL     1      21.462  -0.225  54.407  1.00  0.00     0.180 A 
HETATM   21  N4  UNL     1      20.877   0.834  53.616  1.00  0.00    -0.376 N 
HETATM   22  C17 UNL     1      20.287   1.883  52.836  1.00  0.00     0.127 C 
HETATM   23  C18 UNL     1      21.251   2.919  52.369  1.00  0.00     0.055 C 
ENDBRANCH   6  17
BRANCH   1  24
HETATM   24  N1  UNL     1      24.194   5.791  52.111  1.00  0.00     0.102 N 
HETATM   25  H1  UNL     1      24.772   5.327  52.865  1.00  0.00     0.315 HD
HETATM   26  H2  UNL     1      23.712   6.624  52.494  1.00  0.00     0.315 HD
ENDBRANCH   1  24
TORSDOF 5
ENDMDL
MODEL 3
REMARK VINA RESULT:      -7.7      1.806      3.093
REMARK  5 active torsions:
REMARK  status: ('A' for Active; 'I' for Inactive)
REMARK    1  A    between atoms: N1_1  and  C1_2 
REMARK    2  A    between atoms: C4_6  and  N3_7 
REMARK    3  A    between atoms: N3_7  and  C5_8 
REMARK    4  A    between atoms: C5_8  and  C6_9 
REMARK    5  A    between atoms: C12_15  and  C13_16 
ROOT
HETATM    1  C1  UNL     1      23.648   3.586  52.809  1.00  0.00     0.327 C 
HETATM    2  N2  UNL     1      22.447   3.535  51.969  1.00  0.00    -0.370 N 
HETATM    3  C2  UNL     1      22.417   2.757  50.763  1.00  0.00     0.083 C 
HETATM    4  C3  UNL     1      23.547   2.656  50.063  1.00  0.00     0.026 C 
HETATM    5  C4  UNL     1      24.706   3.375  50.633  1.00  0.00     0.257 C 
HETATM    6  C12 UNL     1      24.830   3.008  52.081  1.00  0.00     0.105 C 
HETATM    7  H4  UNL     1      21.613   4.079  52.268  1.00  0.00     0.161 HD
ENDROOT
BRANCH   5   8
HETATM    8  N3  UNL     1      24.547   4.805  50.579  1.00  0.00     0.096 N 
HETATM    9  H8  UNL     1      25.189   5.305  51.217  1.00  0.00     0.317 HD
BRANCH   8  10
HETATM   10  C5  UNL     1      24.559   5.359  49.248  1.00  0.00     0.309 C 
BRANCH  10  11
HETATM   11  C6  UNL     1      25.971   5.594  48.853  1.00  0.00    -0.030 A 
HETATM   12  C7  UNL     1      26.300   6.867  48.370  1.00  0.00     0.009 A 
HETATM   13  C8  UNL     1      27.553   7.270  47.954  1.00  0.00     0.001 A 
HETATM   14  C9  UNL     1      28.571   6.342  48.020  1.00  0.00     0.000 A 
HETATM   15  C10 UNL     1      28.286   5.076  48.491  1.00  0.00     0.001 A 
HETATM   16  C11 UNL     1      27.023   4.702  48.899  1.00  0.00     0.009 A 
ENDBRANCH  10  11
ENDBRANCH   8  10
ENDBRANCH   5   8
BRANCH   6  17
HETATM   17  C13 UNL     1      25.021   1.563  52.305  1.00  0.00    -0.055 C 
HETATM   18  C14 UNL     1      25.924   0.868  51.720  1.00  0.00     0.004 C 
HETATM   19  C15 UNL     1      26.576  -0.110  52.276  1.00  0.00     0.037 A 
HETATM   20  C16 UNL     1      27.217  -1.203  52.935  1.00  0.00     0.180 A 
HETATM   21  N4  UNL     1      25.843  -0.866  53.225  1.00  0.00    -0.376 N 
HETATM   22  C17 UNL     1      24.478  -0.539  53.521  1.00  0.00     0.127 C 
HETATM   23  C18 UNL     1      24.114   0.882  53.259  1.00  0.00     0.055 C 
ENDBRANCH   6  17
BRANCH   1  24
HETATM   24  N1  UNL     1      23.935   4.988  53.096  1.00  0.00     0.102 N 
HETATM   25  H1  UNL     1      23.904   5.083  54.148  1.00  0.00     0.315 HD
HETATM   26  H2  UNL     1      23.188   5.561  52.664  1.00  0.00     0.315 HD
ENDBRANCH   1  24
TORSDOF 5
ENDMDL
MODEL 4
REMARK VINA RESULT:      -7.5      2.807      5.353
REMARK  5 active torsions:
REMARK  status: ('A' for Active; 'I' for Inactive)
REMARK    1  A    between atoms: N1_1  and  C1_2 
REMARK    2  A    between atoms: C4_6  and  N3_7 
REMARK    3  A    between atoms: N3_7  and  C5_8 
REMARK    4  A    between atoms: C5_8  and  C6_9 
REMARK    5  A    between atoms: C12_15  and  C13_16 
ROOT
HETATM    1  C1  UNL     1      23.714   4.998  51.424  1.00  0.00     0.327 C 
HETATM    2  N2  UNL     1      24.975   5.384  50.780  1.00  0.00    -0.370 N 
HETATM    3  C2  UNL     1      25.643   4.500  49.867  1.00  0.00     0.083 C 
HETATM    4  C3  UNL     1      25.555   3.190  50.097  1.00  0.00     0.026 C 
HETATM    5  C4  UNL     1      24.766   2.812  51.288  1.00  0.00     0.257 C 
HETATM    6  C12 UNL     1      23.451   3.530  51.236  1.00  0.00     0.105 C 
HETATM    7  H4  UNL     1      25.375   6.317  51.000  1.00  0.00     0.161 HD
ENDROOT
BRANCH   5   8
HETATM    8  N3  UNL     1      25.403   3.205  52.518  1.00  0.00     0.096 N 
HETATM    9  H8  UNL     1      25.068   4.118  52.871  1.00  0.00     0.317 HD
BRANCH   8  10
HETATM   10  C5  UNL     1      25.404   2.191  53.543  1.00  0.00     0.309 C 
BRANCH  10  11
HETATM   11  C6  UNL     1      26.729   1.519  53.534  1.00  0.00    -0.030 A 
HETATM   12  C7  UNL     1      26.742   0.126  53.388  1.00  0.00     0.009 A 
HETATM   13  C8  UNL     1      27.871  -0.668  53.359  1.00  0.00     0.001 A 
HETATM   14  C9  UNL     1      29.092  -0.039  53.485  1.00  0.00     0.000 A 
HETATM   15  C10 UNL     1      29.119   1.334  53.630  1.00  0.00     0.001 A 
HETATM   16  C11 UNL     1      27.973   2.101  53.656  1.00  0.00     0.009 A 
ENDBRANCH  10  11
ENDBRANCH   8  10
ENDBRANCH   5   8
BRANCH   6  17
HETATM   17  C13 UNL     1      22.659   3.214  50.032  1.00  0.00    -0.055 C 
HETATM   18  C14 UNL     1      22.157   4.104  49.259  1.00  0.00     0.004 C 
HETATM   19  C15 UNL     1      22.067   3.993  47.968  1.00  0.00     0.037 A 
HETATM   20  C16 UNL     1      21.957   3.780  46.559  1.00  0.00     0.180 A 
HETATM   21  N4  UNL     1      21.853   2.676  47.486  1.00  0.00    -0.376 N 
HETATM   22  C17 UNL     1      21.749   1.574  48.397  1.00  0.00     0.127 C 
HETATM   23  C18 UNL     1      22.435   1.787  49.703  1.00  0.00     0.055 C 
ENDBRANCH   6  17
BRANCH   1  24
HETATM   24  N1  UNL     1      23.845   5.255  52.854  1.00  0.00     0.102 N 
HETATM   25  H1  UNL     1      24.477   4.495  53.230  1.00  0.00     0.315 HD
HETATM   26  H2  UNL     1      22.903   5.177  53.279  1.00  0.00     0.315 HD
ENDBRANCH   1  24
TORSDOF 5
ENDMDL
MODEL 5
REMARK VINA RESULT:      -7.5      2.710      4.387
REMARK  5 active torsions:
REMARK  status: ('A' for Active; 'I' for Inactive)
REMARK    1  A    between atoms: N1_1  and  C1_2 
REMARK    2  A    between atoms: C4_6  and  N3_7 
REMARK    3  A    between atoms: N3_7  and  C5_8 
REMARK    4  A    between atoms: C5_8  and  C6_9 
REMARK    5  A    between atoms: C12_15  and  C13_16 
ROOT
HETATM    1  C1  UNL     1      22.770   4.177  52.327  1.00  0.00     0.327 C 
HETATM    2  N2  UNL     1      22.926   4.320  50.876  1.00  0.00    -0.370 N 
HETATM    3  C2  UNL     1      23.012   3.170  50.022  1.00  0.00     0.083 C 
HETATM    4  C3  UNL     1      23.614   2.083  50.505  1.00  0.00     0.026 C 
HETATM    5  C4  UNL     1      24.124   2.209  51.886  1.00  0.00     0.257 C 
HETATM    6  C12 UNL     1      23.030   2.758  52.751  1.00  0.00     0.105 C 
HETATM    7  H4  UNL     1      22.972   5.279  50.478  1.00  0.00     0.161 HD
ENDROOT
BRANCH   5   8
HETATM    8  N3  UNL     1      25.229   3.127  51.983  1.00  0.00     0.096 N 
HETATM    9  H8  UNL     1      25.404   3.446  52.951  1.00  0.00     0.317 HD
BRANCH   8  10
HETATM   10  C5  UNL     1      26.435   2.684  51.328  1.00  0.00     0.309 C 
BRANCH  10  11
HETATM   11  C6  UNL     1      27.099   1.684  52.202  1.00  0.00    -0.030 A 
HETATM   12  C7  UNL     1      28.040   2.161  53.124  1.00  0.00     0.009 A 
HETATM   13  C8  UNL     1      28.758   1.386  54.013  1.00  0.00     0.001 A 
HETATM   14  C9  UNL     1      28.531   0.026  53.995  1.00  0.00     0.000 A 
HETATM   15  C10 UNL     1      27.610  -0.481  53.100  1.00  0.00     0.001 A 
HETATM   16  C11 UNL     1      26.908   0.318  52.223  1.00  0.00     0.009 A 
ENDBRANCH  10  11
ENDBRANCH   8  10
ENDBRANCH   5   8
BRANCH   6  17
HETATM   17  C13 UNL     1      21.823   1.911  52.774  1.00  0.00    -0.055 C 
HETATM   18  C14 UNL     1      20.650   2.339  52.487  1.00  0.00     0.004 C 
HETATM   19  C15 UNL     1      19.747   1.647  51.858  1.00  0.00     0.037 A 
HETATM   20  C16 UNL     1      18.788   0.811  51.208  1.00  0.00     0.180 A 
HETATM   21  N4  UNL     1      19.765   0.252  52.113  1.00  0.00    -0.376 N 
HETATM   22  C17 UNL     1      20.731  -0.313  53.010  1.00  0.00     0.127 C 
HETATM   23  C18 UNL     1      21.980   0.487  53.154  1.00  0.00     0.055 C 
ENDBRANCH   6  17
BRANCH   1  24
HETATM   24  N1  UNL     1      23.764   5.029  52.971  1.00  0.00     0.102 N 
HETATM   25  H1  UNL     1      23.495   6.023  52.732  1.00  0.00     0.315 HD
HETATM   26  H2  UNL     1      24.690   4.803  52.564  1.00  0.00     0.315 HD
ENDBRANCH   1  24
TORSDOF 5
ENDMDL
MODEL 6
REMARK VINA RESULT:      -7.4      2.489      6.283
REMARK  5 active torsions:
REMARK  status: ('A' for Active; 'I' for Inactive)
REMARK    1  A    between atoms: N1_1  and  C1_2 
REMARK    2  A    between atoms: C4_6  and  N3_7 
REMARK    3  A    between atoms: N3_7  and  C5_8 
REMARK    4  A    between atoms: C5_8  and  C6_9 
REMARK    5  A    between atoms: C12_15  and  C13_16 
ROOT
HETATM    1  C1  UNL     1      22.775   2.324  50.622  1.00  0.00     0.327 C 
HETATM    2  N2  UNL     1      22.434   3.028  51.862  1.00  0.00    -0.370 N 
HETATM    3  C2  UNL     1      23.442   3.686  52.644  1.00  0.00     0.083 C 
HETATM    4  C3  UNL     1      24.657   3.139  52.674  1.00  0.00     0.026 C 
HETATM    5  C4  UNL     1      24.809   1.901  51.881  1.00  0.00     0.257 C 
HETATM    6  C12 UNL     1      24.264   2.145  50.507  1.00  0.00     0.105 C 
HETATM    7  H4  UNL     1      21.439   3.041  52.163  1.00  0.00     0.161 HD
ENDROOT
BRANCH   5   8
HETATM    8  N3  UNL     1      24.064   0.800  52.434  1.00  0.00     0.096 N 
HETATM    9  H8  UNL     1      23.957   0.014  51.770  1.00  0.00     0.317 HD
BRANCH   8  10
HETATM   10  C5  UNL     1      24.517   0.361  53.730  1.00  0.00     0.309 C 
BRANCH  10  11
HETATM   11  C6  UNL     1      25.905  -0.151  53.591  1.00  0.00    -0.030 A 
HETATM   12  C7  UNL     1      26.892   0.448  54.384  1.00  0.00     0.009 A 
HETATM   13  C8  UNL     1      28.231   0.110  54.391  1.00  0.00     0.001 A 
HETATM   14  C9  UNL     1      28.633  -0.903  53.546  1.00  0.00     0.000 A 
HETATM   15  C10 UNL     1      27.688  -1.517  52.750  1.00  0.00     0.001 A 
HETATM   16  C11 UNL     1      26.357  -1.158  52.764  1.00  0.00     0.009 A 
ENDBRANCH  10  11
ENDBRANCH   8  10
ENDBRANCH   5   8
BRANCH   6  17
HETATM   17  C13 UNL     1      24.944   3.242  49.793  1.00  0.00    -0.055 C 
HETATM   18  C14 UNL     1      24.326   4.223  49.246  1.00  0.00     0.004 C 
HETATM   19  C15 UNL     1      24.766   5.445  49.217  1.00  0.00     0.037 A 
HETATM   20  C16 UNL     1      25.334   6.756  49.181  1.00  0.00     0.180 A 
HETATM   21  N4  UNL     1      26.176   5.581  49.137  1.00  0.00    -0.376 N 
HETATM   22  C17 UNL     1      27.019   4.423  49.093  1.00  0.00     0.127 C 
HETATM   23  C18 UNL     1      26.423   3.203  49.706  1.00  0.00     0.055 C 
ENDBRANCH   6  17
BRANCH   1  24
HETATM   24  N1  UNL     1      22.164   1.000  50.676  1.00  0.00     0.102 N 
HETATM   25  H1  UNL     1      21.655   0.876  49.758  1.00  0.00     0.315 HD
HETATM   26  H2  UNL     1      21.489   0.992  51.461  1.00  0.00     0.315 HD
ENDBRANCH   1  24
TORSDOF 5
ENDMDL
MODEL 7
REMARK VINA RESULT:      -7.3      1.827      7.299
REMARK  5 active torsions:
REMARK  status: ('A' for Active; 'I' for Inactive)
REMARK    1  A    between atoms: N1_1  and  C1_2 
REMARK    2  A    between atoms: C4_6  and  N3_7 
REMARK    3  A    between atoms: N3_7  and  C5_8 
REMARK    4  A    between atoms: C5_8  and  C6_9 
REMARK    5  A    between atoms: C12_15  and  C13_16 
ROOT
HETATM    1  C1  UNL     1      22.853   3.048  49.770  1.00  0.00     0.327 C 
HETATM    2  N2  UNL     1      22.196   3.549  50.982  1.00  0.00    -0.370 N 
HETATM    3  C2  UNL     1      22.962   4.032  52.096  1.00  0.00     0.083 C 
HETATM    4  C3  UNL     1      24.133   3.445  52.344  1.00  0.00     0.026 C 
HETATM    5  C4  UNL     1      24.496   2.351  51.419  1.00  0.00     0.257 C 
HETATM    6  C12 UNL     1      24.322   2.838  50.012  1.00  0.00     0.105 C 
HETATM    7  H4  UNL     1      21.157   3.546  51.016  1.00  0.00     0.161 HD
ENDROOT
BRANCH   5   8
HETATM    8  N3  UNL     1      23.643   1.200  51.567  1.00  0.00     0.096 N 
HETATM    9  H8  UNL     1      23.643   0.590  50.732  1.00  0.00     0.317 HD
BRANCH   8  10
HETATM   10  C5  UNL     1      23.847   0.457  52.786  1.00  0.00     0.309 C 
BRANCH  10  11
HETATM   11  C6  UNL     1      22.550  -0.143  53.189  1.00  0.00    -0.030 A 
HETATM   12  C7  UNL     1      21.397   0.333  52.552  1.00  0.00     0.009 A 
HETATM   13  C8  UNL     1      20.108  -0.100  52.795  1.00  0.00     0.001 A 
HETATM   14  C9  UNL     1      19.939  -1.085  53.744  1.00  0.00     0.000 A 
HETATM   15  C10 UNL     1      21.052  -1.579  54.393  1.00  0.00     0.001 A 
HETATM   16  C11 UNL     1      22.328  -1.127  54.130  1.00  0.00     0.009 A 
ENDBRANCH  10  11
ENDBRANCH   8  10
ENDBRANCH   5   8
BRANCH   6  17
HETATM   17  C13 UNL     1      25.154   4.014  49.693  1.00  0.00    -0.055 C 
HETATM   18  C14 UNL     1      26.414   4.075  49.919  1.00  0.00     0.004 C 
HETATM   19  C15 UNL     1      27.272   4.671  49.147  1.00  0.00     0.037 A 
HETATM   20  C16 UNL     1      28.151   5.388  48.278  1.00  0.00     0.180 A 
HETATM   21  N4  UNL     1      26.787   5.823  48.477  1.00  0.00    -0.376 N 
HETATM   22  C17 UNL     1      25.436   6.264  48.668  1.00  0.00     0.127 C 
HETATM   23  C18 UNL     1      24.490   5.189  49.080  1.00  0.00     0.055 C 
ENDBRANCH   6  17
BRANCH   1  24
HETATM   24  N1  UNL     1      22.261   1.756  49.440  1.00  0.00     0.102 N 
HETATM   25  H1  UNL     1      21.451   1.962  48.794  1.00  0.00     0.315 HD
HETATM   26  H2  UNL     1      21.915   1.330  50.320  1.00  0.00     0.315 HD
ENDBRANCH   1  24
TORSDOF 5
ENDMDL
MODEL 8
REMARK VINA RESULT:      -7.2      2.797      6.393
REMARK  5 active torsions:
REMARK  status: ('A' for Active; 'I' for Inactive)
REMARK    1  A    between atoms: N1_1  and  C1_2 
REMARK    2  A    between atoms: C4_6  and  N3_7 
REMARK    3  A    between atoms: N3_7  and  C5_8 
REMARK    4  A    between atoms: C5_8  and  C6_9 
REMARK    5  A    between atoms: C12_15  and  C13_16 
ROOT
HETATM    1  C1  UNL     1      24.235   6.323  50.899  1.00  0.00     0.327 C 
HETATM    2  N2  UNL     1      25.617   6.722  50.610  1.00  0.00    -0.370 N 
HETATM    3  C2  UNL     1      26.286   6.275  49.422  1.00  0.00     0.083 C 
HETATM    4  C3  UNL     1      25.988   5.058  48.964  1.00  0.00     0.026 C 
HETATM    5  C4  UNL     1      24.989   4.315  49.759  1.00  0.00     0.257 C 
HETATM    6  C12 UNL     1      23.806   5.205  49.991  1.00  0.00     0.105 C 
HETATM    7  H4  UNL     1      26.104   7.340  51.290  1.00  0.00     0.161 HD
ENDROOT
BRANCH   5   8
HETATM    8  N3  UNL     1      25.486   3.941  51.058  1.00  0.00     0.096 N 
HETATM    9  H8  UNL     1      24.732   3.796  51.751  1.00  0.00     0.317 HD
BRANCH   8  10
HETATM   10  C5  UNL     1      26.432   2.852  51.046  1.00  0.00     0.309 C 
BRANCH  10  11
HETATM   11  C6  UNL     1      25.858   1.727  51.827  1.00  0.00    -0.030 A 
HETATM   12  C7  UNL     1      26.649   0.581  51.977  1.00  0.00     0.009 A 
HETATM   13  C8  UNL     1      26.287  -0.561  52.664  1.00  0.00     0.001 A 
HETATM   14  C9  UNL     1      25.041  -0.577  53.254  1.00  0.00     0.000 A 
HETATM   15  C10 UNL     1      24.233   0.535  53.129  1.00  0.00     0.001 A 
HETATM   16  C11 UNL     1      24.622   1.662  52.435  1.00  0.00     0.009 A 
ENDBRANCH  10  11
ENDBRANCH   8  10
ENDBRANCH   5   8
BRANCH   6  17
HETATM   17  C13 UNL     1      23.164   5.662  48.743  1.00  0.00    -0.055 C 
HETATM   18  C14 UNL     1      23.022   6.896  48.430  1.00  0.00     0.004 C 
HETATM   19  C15 UNL     1      23.116   7.364  47.221  1.00  0.00     0.037 A 
HETATM   20  C16 UNL     1      23.183   7.799  45.862  1.00  0.00     0.180 A 
HETATM   21  N4  UNL     1      22.669   6.491  46.196  1.00  0.00    -0.376 N 
HETATM   22  C17 UNL     1      22.158   5.191  46.517  1.00  0.00     0.127 C 
HETATM   23  C18 UNL     1      22.657   4.633  47.805  1.00  0.00     0.055 C 
ENDBRANCH   6  17
BRANCH   1  24
HETATM   24  N1  UNL     1      24.188   5.833  52.273  1.00  0.00     0.102 N 
HETATM   25  H1  UNL     1      23.587   4.963  52.252  1.00  0.00     0.315 HD
HETATM   26  H2  UNL     1      23.740   6.562  52.856  1.00  0.00     0.315 HD
ENDBRANCH   1  24
TORSDOF 5
ENDMDL
MODEL 9
REMARK VINA RESULT:      -7.1      1.842      7.190
REMARK  5 active torsions:
REMARK  status: ('A' for Active; 'I' for Inactive)
REMARK    1  A    between atoms: N1_1  and  C1_2 
REMARK    2  A    between atoms: C4_6  and  N3_7 
REMARK    3  A    between atoms: N3_7  and  C5_8 
REMARK    4  A    between atoms: C5_8  and  C6_9 
REMARK    5  A    between atoms: C12_15  and  C13_16 
ROOT
HETATM    1  C1  UNL     1      22.839   3.026  49.770  1.00  0.00     0.327 C 
HETATM    2  N2  UNL     1      22.289   3.617  50.994  1.00  0.00    -0.370 N 
HETATM    3  C2  UNL     1      23.140   4.260  51.955  1.00  0.00     0.083 C 
HETATM    4  C3  UNL     1      24.369   3.771  52.119  1.00  0.00     0.026 C 
HETATM    5  C4  UNL     1      24.700   2.606  51.273  1.00  0.00     0.257 C 
HETATM    6  C12 UNL     1      24.337   2.927  49.855  1.00  0.00     0.105 C 
HETATM    7  H4  UNL     1      21.263   3.559  51.151  1.00  0.00     0.161 HD
ENDROOT
BRANCH   5   8
HETATM    8  N3  UNL     1      23.951   1.431  51.637  1.00  0.00     0.096 N 
HETATM    9  H8  UNL     1      23.966   0.702  50.904  1.00  0.00     0.317 HD
BRANCH   8  10
HETATM   10  C5  UNL     1      24.264   0.901  52.941  1.00  0.00     0.309 C 
BRANCH  10  11
HETATM   11  C6  UNL     1      23.089   0.134  53.428  1.00  0.00    -0.030 A 
HETATM   12  C7  UNL     1      21.828   0.530  52.964  1.00  0.00     0.009 A 
HETATM   13  C8  UNL     1      20.626  -0.058  53.306  1.00  0.00     0.001 A 
HETATM   14  C9  UNL     1      20.668  -1.126  54.177  1.00  0.00     0.000 A 
HETATM   15  C10 UNL     1      21.893  -1.544  54.655  1.00  0.00     0.001 A 
HETATM   16  C11 UNL     1      23.078  -0.937  54.296  1.00  0.00     0.009 A 
ENDBRANCH  10  11
ENDBRANCH   8  10
ENDBRANCH   5   8
BRANCH   6  17
HETATM   17  C13 UNL     1      25.045   4.107  49.323  1.00  0.00    -0.055 C 
HETATM   18  C14 UNL     1      24.450   5.152  48.881  1.00  0.00     0.004 C 
HETATM   19  C15 UNL     1      24.885   6.367  49.031  1.00  0.00     0.037 A 
HETATM   20  C16 UNL     1      25.450   7.669  49.192  1.00  0.00     0.180 A 
HETATM   21  N4  UNL     1      26.296   6.509  49.034  1.00  0.00    -0.376 N 
HETATM   22  C17 UNL     1      27.146   5.365  48.878  1.00  0.00     0.127 C 
HETATM   23  C18 UNL     1      26.527   4.076  49.299  1.00  0.00     0.055 C 
ENDBRANCH   6  17
BRANCH   1  24
HETATM   24  N1  UNL     1      22.304   1.674  49.645  1.00  0.00     0.102 N 
HETATM   25  H1  UNL     1      23.070   1.025  49.975  1.00  0.00     0.315 HD
HETATM   26  H2  UNL     1      22.100   1.504  48.643  1.00  0.00     0.315 HD
ENDBRANCH   1  24
TORSDOF 5
ENDMDL
