MODEL 1
REMARK VINA RESULT:      -7.9      0.000      0.000
REMARK  1 active torsions:
REMARK  status: ('A' for Active; 'I' for Inactive)
REMARK    1  A    between atoms: C1_2  and  N1_3 
ROOT
HETATM    1  N1  UNL     1      23.358   0.318  52.697  1.00  0.00    -0.220 N 
HETATM    2  C2  UNL     1      24.754   0.166  53.065  1.00  0.00     0.122 C 
HETATM    3  C3  UNL     1      25.647  -0.767  52.802  1.00  0.00     0.036 C 
HETATM    4  C4  UNL     1      27.013  -1.215  52.983  1.00  0.00     0.029 A 
HETATM    5  C5  UNL     1      27.275  -2.534  52.800  1.00  0.00     0.133 A 
HETATM    6  N2  UNL     1      28.530  -2.976  52.961  1.00  0.00    -0.253 NA
HETATM    7  C6  UNL     1      29.456  -2.070  53.296  1.00  0.00     0.234 A 
HETATM    8  N3  UNL     1      29.197  -0.735  53.481  1.00  0.00    -0.224 NA
HETATM    9  C7  UNL     1      27.938  -0.268  53.326  1.00  0.00     0.136 A 
HETATM   10  N4  UNL     1      27.949   1.112  53.574  1.00  0.00    -0.371 N 
HETATM   11  C8  UNL     1      28.098   2.365  52.861  1.00  0.00     0.148 C 
HETATM   12  C9  UNL     1      27.023   2.653  51.898  1.00  0.00    -0.010 C 
HETATM   13  C10 UNL     1      26.389   2.910  50.762  1.00  0.00    -0.016 C 
HETATM   14  C11 UNL     1      24.999   3.171  50.228  1.00  0.00     0.065 A 
HETATM   15  C12 UNL     1      24.341   4.422  50.418  1.00  0.00    -0.004 A 
HETATM   16  C13 UNL     1      24.121   3.460  51.333  1.00  0.00    -0.030 A 
HETATM   17  C14 UNL     1      23.692   2.632  52.470  1.00  0.00     0.147 C 
HETATM   18  N5  UNL     1      23.688   1.441  52.010  1.00  0.00    -0.178 NA
HETATM   19  H6  UNL     1      27.793   1.162  54.625  1.00  0.00     0.161 HD
ENDROOT
BRANCH   1  20
HETATM   20  C1  UNL     1      23.082  -0.837  53.418  1.00  0.00     0.377 C 
HETATM   21  O1  UNL     1      21.989  -0.570  52.834  1.00  0.00    -0.281 OA
ENDBRANCH   1  20
TORSDOF 1
ENDMDL
MODEL 2
REMARK VINA RESULT:      -7.8      2.155      3.309
REMARK  1 active torsions:
REMARK  status: ('A' for Active; 'I' for Inactive)
REMARK    1  A    between atoms: C1_2  and  N1_3 
ROOT
HETATM    1  N1  UNL     1      22.489  -1.083  54.119  1.00  0.00    -0.220 N 
HETATM    2  C2  UNL     1      23.551  -0.093  54.127  1.00  0.00     0.122 C 
HETATM    3  C3  UNL     1      24.856  -0.188  53.971  1.00  0.00     0.036 C 
HETATM    4  C4  UNL     1      26.119   0.520  53.920  1.00  0.00     0.029 A 
HETATM    5  C5  UNL     1      27.253  -0.194  54.139  1.00  0.00     0.133 A 
HETATM    6  N2  UNL     1      28.436   0.435  54.097  1.00  0.00    -0.253 NA
HETATM    7  C6  UNL     1      28.418   1.748  53.837  1.00  0.00     0.234 A 
HETATM    8  N3  UNL     1      27.276   2.474  53.615  1.00  0.00    -0.224 NA
HETATM    9  C7  UNL     1      26.072   1.860  53.654  1.00  0.00     0.136 A 
HETATM   10  N4  UNL     1      25.082   2.821  53.400  1.00  0.00    -0.371 N 
HETATM   11  C8  UNL     1      24.339   3.378  52.287  1.00  0.00     0.148 C 
HETATM   12  C9  UNL     1      23.442   2.428  51.610  1.00  0.00    -0.010 C 
HETATM   13  C10 UNL     1      22.887   1.674  50.671  1.00  0.00    -0.016 C 
HETATM   14  C11 UNL     1      21.762   0.684  50.475  1.00  0.00     0.065 A 
HETATM   15  C12 UNL     1      20.400   1.097  50.393  1.00  0.00    -0.004 A 
HETATM   16  C13 UNL     1      20.873   0.758  51.606  1.00  0.00    -0.030 A 
HETATM   17  C14 UNL     1      21.090   0.458  53.029  1.00  0.00     0.147 C 
HETATM   18  N5  UNL     1      21.964  -0.473  53.026  1.00  0.00    -0.178 NA
HETATM   19  H6  UNL     1      24.872   3.202  54.370  1.00  0.00     0.161 HD
ENDROOT
BRANCH   1  20
HETATM   20  C1  UNL     1      23.072  -1.661  55.239  1.00  0.00     0.377 C 
HETATM   21  O1  UNL     1      21.898  -2.141  55.221  1.00  0.00    -0.281 OA
ENDBRANCH   1  20
TORSDOF 1
ENDMDL
MODEL 3
REMARK VINA RESULT:      -7.7      2.529      4.086
REMARK  1 active torsions:
REMARK  status: ('A' for Active; 'I' for Inactive)
REMARK    1  A    between atoms: C1_2  and  N1_3 
ROOT
HETATM    1  N1  UNL     1      25.466   3.463  50.096  1.00  0.00    -0.220 N 
HETATM    2  C2  UNL     1      25.982   2.426  50.971  1.00  0.00     0.122 C 
HETATM    3  C3  UNL     1      26.791   2.461  52.011  1.00  0.00     0.036 C 
HETATM    4  C4  UNL     1      27.467   1.696  53.039  1.00  0.00     0.029 A 
HETATM    5  C5  UNL     1      28.554   2.256  53.630  1.00  0.00     0.133 A 
HETATM    6  N2  UNL     1      29.199   1.570  54.585  1.00  0.00    -0.253 NA
HETATM    7  C6  UNL     1      28.719   0.361  54.896  1.00  0.00     0.234 A 
HETATM    8  N3  UNL     1      27.621  -0.208  54.302  1.00  0.00    -0.224 NA
HETATM    9  C7  UNL     1      26.956   0.464  53.336  1.00  0.00     0.136 A 
HETATM   10  N4  UNL     1      25.890  -0.336  52.901  1.00  0.00    -0.371 N 
HETATM   11  C8  UNL     1      24.486  -0.561  53.183  1.00  0.00     0.148 C 
HETATM   12  C9  UNL     1      23.610   0.584  52.888  1.00  0.00    -0.010 C 
HETATM   13  C10 UNL     1      22.743   1.576  53.041  1.00  0.00    -0.016 C 
HETATM   14  C11 UNL     1      22.052   2.662  52.249  1.00  0.00     0.065 A 
HETATM   15  C12 UNL     1      20.970   2.379  51.366  1.00  0.00    -0.004 A 
HETATM   16  C13 UNL     1      22.210   2.388  50.844  1.00  0.00    -0.030 A 
HETATM   17  C14 UNL     1      23.412   2.328  49.999  1.00  0.00     0.147 C 
HETATM   18  N5  UNL     1      24.213   3.168  50.529  1.00  0.00    -0.178 NA
HETATM   19  H6  UNL     1      26.335  -0.920  52.130  1.00  0.00     0.161 HD
ENDROOT
BRANCH   1  20
HETATM   20  C1  UNL     1      26.769   3.718  49.691  1.00  0.00     0.377 C 
HETATM   21  O1  UNL     1      26.100   4.672  49.192  1.00  0.00    -0.281 OA
ENDBRANCH   1  20
TORSDOF 1
ENDMDL
MODEL 4
REMARK VINA RESULT:      -7.5      2.712      6.141
REMARK  1 active torsions:
REMARK  status: ('A' for Active; 'I' for Inactive)
REMARK    1  A    between atoms: C1_2  and  N1_3 
ROOT
HETATM    1  N1  UNL     1      26.568   3.059  50.828  1.00  0.00    -0.220 N 
HETATM    2  C2  UNL     1      25.217   2.651  51.170  1.00  0.00     0.122 C 
HETATM    3  C3  UNL     1      24.208   2.218  50.440  1.00  0.00     0.036 C 
HETATM    4  C4  UNL     1      22.834   1.758  50.435  1.00  0.00     0.029 A 
HETATM    5  C5  UNL     1      22.148   1.830  49.265  1.00  0.00     0.133 A 
HETATM    6  N2  UNL     1      20.875   1.410  49.231  1.00  0.00    -0.253 NA
HETATM    7  C6  UNL     1      20.359   0.939  50.372  1.00  0.00     0.234 A 
HETATM    8  N3  UNL     1      21.048   0.863  51.556  1.00  0.00    -0.224 NA
HETATM    9  C7  UNL     1      22.332   1.283  51.614  1.00  0.00     0.136 A 
HETATM   10  N4  UNL     1      22.793   1.100  52.926  1.00  0.00    -0.371 N 
HETATM   11  C8  UNL     1      23.478   0.109  53.732  1.00  0.00     0.148 C 
HETATM   12  C9  UNL     1      24.862  -0.169  53.318  1.00  0.00    -0.010 C 
HETATM   13  C10 UNL     1      25.943  -0.811  52.898  1.00  0.00    -0.016 C 
HETATM   14  C11 UNL     1      27.401  -0.570  52.580  1.00  0.00     0.065 A 
HETATM   15  C12 UNL     1      28.379  -0.407  53.605  1.00  0.00    -0.004 A 
HETATM   16  C13 UNL     1      27.793   0.705  53.125  1.00  0.00    -0.030 A 
HETATM   17  C14 UNL     1      27.344   2.070  52.813  1.00  0.00     0.147 C 
HETATM   18  N5  UNL     1      27.039   2.027  51.574  1.00  0.00    -0.178 NA
HETATM   19  H6  UNL     1      22.518   2.013  53.399  1.00  0.00     0.161 HD
ENDROOT
BRANCH   1  20
HETATM   20  C1  UNL     1      26.026   4.097  50.083  1.00  0.00     0.377 C 
HETATM   21  O1  UNL     1      27.184   3.938  49.592  1.00  0.00    -0.281 OA
ENDBRANCH   1  20
TORSDOF 1
ENDMDL
MODEL 5
REMARK VINA RESULT:      -7.5      2.372      5.498
REMARK  1 active torsions:
REMARK  status: ('A' for Active; 'I' for Inactive)
REMARK    1  A    between atoms: C1_2  and  N1_3 
ROOT
HETATM    1  N1  UNL     1      26.374  -0.362  53.121  1.00  0.00    -0.220 N 
HETATM    2  C2  UNL     1      26.032   0.980  52.685  1.00  0.00     0.122 C 
HETATM    3  C3  UNL     1      26.217   1.620  51.548  1.00  0.00     0.036 C 
HETATM    4  C4  UNL     1      26.028   2.855  50.814  1.00  0.00     0.029 A 
HETATM    5  C5  UNL     1      26.829   3.082  49.741  1.00  0.00     0.133 A 
HETATM    6  N2  UNL     1      26.674   4.216  49.044  1.00  0.00    -0.253 NA
HETATM    7  C6  UNL     1      25.724   5.061  49.459  1.00  0.00     0.234 A 
HETATM    8  N3  UNL     1      24.912   4.837  50.541  1.00  0.00    -0.224 NA
HETATM    9  C7  UNL     1      25.051   3.701  51.261  1.00  0.00     0.136 A 
HETATM   10  N4  UNL     1      24.112   3.724  52.302  1.00  0.00    -0.371 N 
HETATM   11  C8  UNL     1      22.758   3.288  52.583  1.00  0.00     0.148 C 
HETATM   12  C9  UNL     1      22.573   1.828  52.588  1.00  0.00    -0.010 C 
HETATM   13  C10 UNL     1      22.133   0.616  52.280  1.00  0.00    -0.016 C 
HETATM   14  C11 UNL     1      22.310  -0.832  52.676  1.00  0.00     0.065 A 
HETATM   15  C12 UNL     1      21.743  -1.361  53.872  1.00  0.00    -0.004 A 
HETATM   16  C13 UNL     1      23.002  -0.890  53.938  1.00  0.00    -0.030 A 
HETATM   17  C14 UNL     1      24.356  -0.463  54.320  1.00  0.00     0.147 C 
HETATM   18  N5  UNL     1      25.049  -0.626  53.260  1.00  0.00    -0.178 NA
HETATM   19  H6  UNL     1      24.635   4.229  53.078  1.00  0.00     0.161 HD
ENDROOT
BRANCH   1  20
HETATM   20  C1  UNL     1      27.713  -0.032  52.960  1.00  0.00     0.377 C 
HETATM   21  O1  UNL     1      27.723  -0.935  53.851  1.00  0.00    -0.281 OA
ENDBRANCH   1  20
TORSDOF 1
ENDMDL
MODEL 6
REMARK VINA RESULT:      -7.1      2.986      5.088
REMARK  1 active torsions:
REMARK  status: ('A' for Active; 'I' for Inactive)
REMARK    1  A    between atoms: C1_2  and  N1_3 
ROOT
HETATM    1  N1  UNL     1      25.867   2.110  51.743  1.00  0.00    -0.220 N 
HETATM    2  C2  UNL     1      24.633   1.373  51.948  1.00  0.00     0.122 C 
HETATM    3  C3  UNL     1      24.158   0.703  52.978  1.00  0.00     0.036 C 
HETATM    4  C4  UNL     1      23.064  -0.090  53.501  1.00  0.00     0.029 A 
HETATM    5  C5  UNL     1      23.319  -0.899  54.561  1.00  0.00     0.133 A 
HETATM    6  N2  UNL     1      22.324  -1.643  55.065  1.00  0.00    -0.253 NA
HETATM    7  C6  UNL     1      21.126  -1.534  54.479  1.00  0.00     0.234 A 
HETATM    8  N3  UNL     1      20.862  -0.718  53.409  1.00  0.00    -0.224 NA
HETATM    9  C7  UNL     1      21.851   0.040  52.883  1.00  0.00     0.136 A 
HETATM   10  N4  UNL     1      21.320   0.769  51.809  1.00  0.00    -0.371 N 
HETATM   11  C8  UNL     1      20.706   2.053  51.537  1.00  0.00     0.148 C 
HETATM   12  C9  UNL     1      21.588   3.212  51.752  1.00  0.00    -0.010 C 
HETATM   13  C10 UNL     1      22.074   4.351  52.225  1.00  0.00    -0.016 C 
HETATM   14  C11 UNL     1      23.259   5.276  52.068  1.00  0.00     0.065 A 
HETATM   15  C12 UNL     1      23.396   6.142  50.944  1.00  0.00    -0.004 A 
HETATM   16  C13 UNL     1      23.968   4.927  50.864  1.00  0.00    -0.030 A 
HETATM   17  C14 UNL     1      24.683   3.700  50.483  1.00  0.00     0.147 C 
HETATM   18  N5  UNL     1      25.134   3.242  51.586  1.00  0.00    -0.178 NA
HETATM   19  H6  UNL     1      21.450   0.104  50.988  1.00  0.00     0.161 HD
ENDROOT
BRANCH   1  20
HETATM   20  C1  UNL     1      26.562   0.919  51.912  1.00  0.00     0.377 C 
HETATM   21  O1  UNL     1      27.457   1.813  51.999  1.00  0.00    -0.281 OA
ENDBRANCH   1  20
TORSDOF 1
ENDMDL
MODEL 7
REMARK VINA RESULT:      -7.1      2.938      6.227
REMARK  1 active torsions:
REMARK  status: ('A' for Active; 'I' for Inactive)
REMARK    1  A    between atoms: C1_2  and  N1_3 
ROOT
HETATM    1  N1  UNL     1      24.198   3.333  52.174  1.00  0.00    -0.220 N 
HETATM    2  C2  UNL     1      23.161   2.464  52.700  1.00  0.00     0.122 C 
HETATM    3  C3  UNL     1      22.112   1.894  52.144  1.00  0.00     0.036 C 
HETATM    4  C4  UNL     1      20.958   1.039  52.339  1.00  0.00     0.029 A 
HETATM    5  C5  UNL     1      19.946   1.127  51.437  1.00  0.00     0.133 A 
HETATM    6  N2  UNL     1      18.868   0.346  51.594  1.00  0.00    -0.253 NA
HETATM    7  C6  UNL     1      18.862  -0.481  52.644  1.00  0.00     0.234 A 
HETATM    8  N3  UNL     1      19.881  -0.575  53.558  1.00  0.00    -0.224 NA
HETATM    9  C7  UNL     1      20.978   0.204  53.421  1.00  0.00     0.136 A 
HETATM   10  N4  UNL     1      21.854  -0.085  54.478  1.00  0.00    -0.371 N 
HETATM   11  C8  UNL     1      22.973  -0.954  54.783  1.00  0.00     0.148 C 
HETATM   12  C9  UNL     1      24.184  -0.697  53.987  1.00  0.00    -0.010 C 
HETATM   13  C10 UNL     1      25.203  -0.871  53.156  1.00  0.00    -0.016 C 
HETATM   14  C11 UNL     1      26.386  -0.128  52.579  1.00  0.00     0.065 A 
HETATM   15  C12 UNL     1      27.564   0.122  53.342  1.00  0.00    -0.004 A 
HETATM   16  C13 UNL     1      26.607   1.068  53.350  1.00  0.00    -0.030 A 
HETATM   17  C14 UNL     1      25.767   2.258  53.552  1.00  0.00     0.147 C 
HETATM   18  N5  UNL     1      25.113   2.372  52.462  1.00  0.00    -0.178 NA
HETATM   19  H6  UNL     1      21.528   0.582  55.240  1.00  0.00     0.161 HD
ENDROOT
BRANCH   1  20
HETATM   20  C1  UNL     1      23.217   4.277  51.904  1.00  0.00     0.377 C 
HETATM   21  O1  UNL     1      24.212   4.663  51.219  1.00  0.00    -0.281 OA
ENDBRANCH   1  20
TORSDOF 1
ENDMDL
MODEL 8
REMARK VINA RESULT:      -7.0      2.836      4.891
REMARK  1 active torsions:
REMARK  status: ('A' for Active; 'I' for Inactive)
REMARK    1  A    between atoms: C1_2  and  N1_3 
ROOT
HETATM    1  N1  UNL     1      21.704  -0.876  54.064  1.00  0.00    -0.220 N 
HETATM    2  C2  UNL     1      22.510   0.221  53.559  1.00  0.00     0.122 C 
HETATM    3  C3  UNL     1      23.667   0.258  52.929  1.00  0.00     0.036 C 
HETATM    4  C4  UNL     1      24.685   1.093  52.325  1.00  0.00     0.029 A 
HETATM    5  C5  UNL     1      25.927   0.565  52.172  1.00  0.00     0.133 A 
HETATM    6  N2  UNL     1      26.888   1.316  51.616  1.00  0.00    -0.253 NA
HETATM    7  C6  UNL     1      26.552   2.555  51.241  1.00  0.00     0.234 A 
HETATM    8  N3  UNL     1      25.299   3.093  51.392  1.00  0.00    -0.224 NA
HETATM    9  C7  UNL     1      24.315   2.355  51.952  1.00  0.00     0.136 A 
HETATM   10  N4  UNL     1      23.150   3.135  51.991  1.00  0.00    -0.371 N 
HETATM   11  C8  UNL     1      21.972   3.408  51.191  1.00  0.00     0.148 C 
HETATM   12  C9  UNL     1      21.071   2.258  51.014  1.00  0.00    -0.010 C 
HETATM   13  C10 UNL     1      20.354   1.299  50.445  1.00  0.00    -0.016 C 
HETATM   14  C11 UNL     1      19.423   0.163  50.801  1.00  0.00     0.065 A 
HETATM   15  C12 UNL     1      18.073   0.391  51.199  1.00  0.00    -0.004 A 
HETATM   16  C13 UNL     1      19.001   0.316  52.170  1.00  0.00    -0.030 A 
HETATM   17  C14 UNL     1      19.764   0.284  53.427  1.00  0.00     0.147 C 
HETATM   18  N5  UNL     1      20.725  -0.524  53.193  1.00  0.00    -0.178 NA
HETATM   19  H6  UNL     1      23.240   3.644  52.920  1.00  0.00     0.161 HD
ENDROOT
BRANCH   1  20
HETATM   20  C1  UNL     1      22.742  -1.187  54.933  1.00  0.00     0.377 C 
HETATM   21  O1  UNL     1      21.870  -2.079  55.163  1.00  0.00    -0.281 OA
ENDBRANCH   1  20
TORSDOF 1
ENDMDL
MODEL 9
REMARK VINA RESULT:      -7.0      3.318      6.311
REMARK  1 active torsions:
REMARK  status: ('A' for Active; 'I' for Inactive)
REMARK    1  A    between atoms: C1_2  and  N1_3 
ROOT
HETATM    1  N1  UNL     1      21.947   3.127  52.277  1.00  0.00    -0.220 N 
HETATM    2  C2  UNL     1      22.883   3.817  51.408  1.00  0.00     0.122 C 
HETATM    3  C3  UNL     1      23.386   5.035  51.431  1.00  0.00     0.036 C 
HETATM    4  C4  UNL     1      24.267   5.988  50.788  1.00  0.00     0.029 A 
HETATM    5  C5  UNL     1      24.074   7.306  51.051  1.00  0.00     0.133 A 
HETATM    6  N2  UNL     1      24.875   8.210  50.471  1.00  0.00    -0.253 NA
HETATM    7  C6  UNL     1      25.830   7.743  49.658  1.00  0.00     0.234 A 
HETATM    8  N3  UNL     1      26.031   6.413  49.388  1.00  0.00    -0.224 NA
HETATM    9  C7  UNL     1      25.233   5.484  49.962  1.00  0.00     0.136 A 
HETATM   10  N4  UNL     1      25.647   4.219  49.520  1.00  0.00    -0.371 N 
HETATM   11  C8  UNL     1      26.539   3.146  49.912  1.00  0.00     0.148 C 
HETATM   12  C9  UNL     1      26.174   2.473  51.169  1.00  0.00    -0.010 C 
HETATM   13  C10 UNL     1      26.234   2.008  52.409  1.00  0.00    -0.016 C 
HETATM   14  C11 UNL     1      25.415   1.224  53.409  1.00  0.00     0.065 A 
HETATM   15  C12 UNL     1      25.255  -0.189  53.309  1.00  0.00    -0.004 A 
HETATM   16  C13 UNL     1      24.324   0.584  52.719  1.00  0.00    -0.030 A 
HETATM   17  C14 UNL     1      23.176   1.146  51.993  1.00  0.00     0.147 C 
HETATM   18  N5  UNL     1      22.930   2.245  52.593  1.00  0.00    -0.178 NA
HETATM   19  H6  UNL     1      25.085   4.088  48.626  1.00  0.00     0.161 HD
ENDROOT
BRANCH   1  20
HETATM   20  C1  UNL     1      20.983   4.059  51.915  1.00  0.00     0.377 C 
HETATM   21  O1  UNL     1      20.367   3.263  52.687  1.00  0.00    -0.281 OA
ENDBRANCH   1  20
TORSDOF 1
ENDMDL
