MODEL 1
REMARK VINA RESULT:      -6.9      0.000      0.000
REMARK  5 active torsions:
REMARK  status: ('A' for Active; 'I' for Inactive)
REMARK    1  A    between atoms: C2_2  and  O1_3 
REMARK    2  A    between atoms: O1_3  and  C3_4 
REMARK    3  A    between atoms: C7_10  and  N3_11 
REMARK    4  A    between atoms: N3_11  and  C8_12 
REMARK    5  A    between atoms: C8_12  and  C9_13 
ROOT
HETATM    1  C3  UNL     1      26.068  -0.379  53.565  1.00  0.00     0.107 A 
HETATM    2  C4  UNL     1      25.042  -0.909  54.302  1.00  0.00     0.072 A 
HETATM    3  C5  UNL     1      23.739  -0.452  54.097  1.00  0.00     0.077 A 
HETATM    4  N1  UNL     1      22.726  -0.954  54.803  1.00  0.00    -0.241 NA
HETATM    5  C6  UNL     1      21.464  -0.536  54.628  1.00  0.00     0.236 A 
HETATM    6  N2  UNL     1      21.255   0.432  53.692  1.00  0.00    -0.223 NA
HETATM    7  C7  UNL     1      22.271   0.937  52.981  1.00  0.00     0.144 A 
HETATM    8  C10 UNL     1      23.569   0.525  53.144  1.00  0.00     0.075 A 
HETATM    9  C11 UNL     1      24.577   1.078  52.386  1.00  0.00     0.121 A 
HETATM   10  C12 UNL     1      25.853   0.607  52.612  1.00  0.00     0.136 A 
HETATM   11  O3  UNL     1      26.843   1.197  51.820  1.00  0.00    -0.344 OA
HETATM   12  C13 UNL     1      26.680   2.490  51.265  1.00  0.00     0.202 C 
HETATM   13  C14 UNL     1      25.293   2.731  50.716  1.00  0.00     0.202 C 
HETATM   14  O4  UNL     1      24.305   2.047  51.461  1.00  0.00    -0.345 OA
ENDROOT
BRANCH   7  15
HETATM   15  N3  UNL     1      21.875   1.929  52.058  1.00  0.00    -0.346 N 
HETATM   16  H8  UNL     1      21.894   2.360  51.120  1.00  0.00     0.167 HD
BRANCH  15  17
HETATM   17  C8  UNL     1      20.976   2.972  52.424  1.00  0.00     0.148 C 
BRANCH  17  18
HETATM   18  C9  UNL     1      19.732   3.219  52.043  1.00  0.00     0.238 C 
HETATM   19  O2  UNL     1      18.530   3.594  52.071  1.00  0.00    -0.283 OA
ENDBRANCH  17  18
ENDBRANCH  15  17
ENDBRANCH   7  15
BRANCH   1  20
HETATM   20  O1  UNL     1      27.370  -0.808  53.742  1.00  0.00    -0.348 OA
BRANCH  20  21
HETATM   21  C2  UNL     1      28.350  -0.133  54.468  1.00  0.00     0.171 C 
HETATM   22  C1  UNL     1      29.678  -0.295  53.750  1.00  0.00     0.034 C 
ENDBRANCH  20  21
ENDBRANCH   1  20
TORSDOF 5
ENDMDL
MODEL 2
REMARK VINA RESULT:      -6.8      1.855      3.620
REMARK  5 active torsions:
REMARK  status: ('A' for Active; 'I' for Inactive)
REMARK    1  A    between atoms: C2_2  and  O1_3 
REMARK    2  A    between atoms: O1_3  and  C3_4 
REMARK    3  A    between atoms: C7_10  and  N3_11 
REMARK    4  A    between atoms: N3_11  and  C8_12 
REMARK    5  A    between atoms: C8_12  and  C9_13 
ROOT
HETATM    1  C3  UNL     1      26.643   0.323  53.355  1.00  0.00     0.107 A 
HETATM    2  C4  UNL     1      27.164   1.153  52.398  1.00  0.00     0.072 A 
HETATM    3  C5  UNL     1      26.304   1.910  51.600  1.00  0.00     0.077 A 
HETATM    4  N1  UNL     1      26.790   2.724  50.663  1.00  0.00    -0.241 NA
HETATM    5  C6  UNL     1      25.989   3.464  49.882  1.00  0.00     0.236 A 
HETATM    6  N2  UNL     1      24.646   3.349  50.085  1.00  0.00    -0.223 NA
HETATM    7  C7  UNL     1      24.156   2.533  51.026  1.00  0.00     0.144 A 
HETATM    8  C10 UNL     1      24.957   1.767  51.835  1.00  0.00     0.075 A 
HETATM    9  C11 UNL     1      24.400   0.942  52.788  1.00  0.00     0.121 A 
HETATM   10  C12 UNL     1      25.275   0.208  53.560  1.00  0.00     0.136 A 
HETATM   11  O3  UNL     1      24.665  -0.614  54.513  1.00  0.00    -0.344 OA
HETATM   12  C13 UNL     1      23.337  -1.079  54.356  1.00  0.00     0.202 C 
HETATM   13  C14 UNL     1      22.396  -0.020  53.831  1.00  0.00     0.202 C 
HETATM   14  O4  UNL     1      23.044   0.871  52.945  1.00  0.00    -0.345 OA
ENDROOT
BRANCH   7  15
HETATM   15  N3  UNL     1      22.747   2.538  51.098  1.00  0.00    -0.346 N 
HETATM   16  H8  UNL     1      21.827   2.079  50.993  1.00  0.00     0.167 HD
BRANCH  15  17
HETATM   17  C8  UNL     1      22.026   3.691  51.521  1.00  0.00     0.148 C 
BRANCH  17  18
HETATM   18  C9  UNL     1      20.753   3.847  51.852  1.00  0.00     0.238 C 
HETATM   19  O2  UNL     1      19.596   3.601  52.284  1.00  0.00    -0.283 OA
ENDBRANCH  17  18
ENDBRANCH  15  17
ENDBRANCH   7  15
BRANCH   1  20
HETATM   20  O1  UNL     1      27.466  -0.440  54.162  1.00  0.00    -0.348 OA
BRANCH  20  21
HETATM   21  C2  UNL     1      28.750  -0.083  54.571  1.00  0.00     0.171 C 
HETATM   22  C1  UNL     1      29.751  -0.935  53.809  1.00  0.00     0.034 C 
ENDBRANCH  20  21
ENDBRANCH   1  20
TORSDOF 5
ENDMDL
MODEL 3
REMARK VINA RESULT:      -6.6      2.587      6.570
REMARK  5 active torsions:
REMARK  status: ('A' for Active; 'I' for Inactive)
REMARK    1  A    between atoms: C2_2  and  O1_3 
REMARK    2  A    between atoms: O1_3  and  C3_4 
REMARK    3  A    between atoms: C7_10  and  N3_11 
REMARK    4  A    between atoms: N3_11  and  C8_12 
REMARK    5  A    between atoms: C8_12  and  C9_13 
ROOT
HETATM    1  C3  UNL     1      22.731   0.510  52.302  1.00  0.00     0.107 A 
HETATM    2  C4  UNL     1      23.384   1.386  51.476  1.00  0.00     0.072 A 
HETATM    3  C5  UNL     1      24.736   1.659  51.694  1.00  0.00     0.077 A 
HETATM    4  N1  UNL     1      25.391   2.508  50.902  1.00  0.00    -0.241 NA
HETATM    5  C6  UNL     1      26.689   2.790  51.085  1.00  0.00     0.236 A 
HETATM    6  N2  UNL     1      27.318   2.170  52.123  1.00  0.00    -0.223 NA
HETATM    7  C7  UNL     1      26.662   1.316  52.919  1.00  0.00     0.144 A 
HETATM    8  C10 UNL     1      25.335   1.014  52.749  1.00  0.00     0.075 A 
HETATM    9  C11 UNL     1      24.708   0.128  53.598  1.00  0.00     0.121 A 
HETATM   10  C12 UNL     1      23.373  -0.122  53.358  1.00  0.00     0.136 A 
HETATM   11  O3  UNL     1      22.779  -1.026  54.243  1.00  0.00    -0.344 OA
HETATM   12  C13 UNL     1      23.290  -1.237  55.548  1.00  0.00     0.202 C 
HETATM   13  C14 UNL     1      24.798  -1.306  55.590  1.00  0.00     0.202 C 
HETATM   14  O4  UNL     1      25.393  -0.465  54.621  1.00  0.00    -0.345 OA
ENDROOT
BRANCH   7  15
HETATM   15  N3  UNL     1      27.466   0.766  53.940  1.00  0.00    -0.346 N 
HETATM   16  H8  UNL     1      27.667   0.567  54.934  1.00  0.00     0.167 HD
BRANCH  15  17
HETATM   17  C8  UNL     1      28.682   0.085  53.646  1.00  0.00     0.148 C 
BRANCH  17  18
HETATM   18  C9  UNL     1      28.919  -1.190  53.375  1.00  0.00     0.238 C 
HETATM   19  O2  UNL     1      28.871  -2.448  53.427  1.00  0.00    -0.283 OA
ENDBRANCH  17  18
ENDBRANCH  15  17
ENDBRANCH   7  15
BRANCH   1  20
HETATM   20  O1  UNL     1      21.392   0.216  52.115  1.00  0.00    -0.348 OA
BRANCH  20  21
HETATM   21  C2  UNL     1      20.576   0.768  51.129  1.00  0.00     0.171 C 
HETATM   22  C1  UNL     1      19.644   1.773  51.784  1.00  0.00     0.034 C 
ENDBRANCH  20  21
ENDBRANCH   1  20
TORSDOF 5
ENDMDL
MODEL 4
REMARK VINA RESULT:      -6.5      2.748      5.017
REMARK  5 active torsions:
REMARK  status: ('A' for Active; 'I' for Inactive)
REMARK    1  A    between atoms: C2_2  and  O1_3 
REMARK    2  A    between atoms: O1_3  and  C3_4 
REMARK    3  A    between atoms: C7_10  and  N3_11 
REMARK    4  A    between atoms: N3_11  and  C8_12 
REMARK    5  A    between atoms: C8_12  and  C9_13 
ROOT
HETATM    1  C3  UNL     1      25.590   3.817  50.387  1.00  0.00     0.107 A 
HETATM    2  C4  UNL     1      26.400   2.753  50.687  1.00  0.00     0.072 A 
HETATM    3  C5  UNL     1      25.920   1.735  51.513  1.00  0.00     0.077 A 
HETATM    4  N1  UNL     1      26.691   0.690  51.817  1.00  0.00    -0.241 NA
HETATM    5  C6  UNL     1      26.258  -0.302  52.607  1.00  0.00     0.236 A 
HETATM    6  N2  UNL     1      24.989  -0.201  53.093  1.00  0.00    -0.223 NA
HETATM    7  C7  UNL     1      24.213   0.847  52.788  1.00  0.00     0.144 A 
HETATM    8  C10 UNL     1      24.636   1.873  51.983  1.00  0.00     0.075 A 
HETATM    9  C11 UNL     1      23.797   2.929  51.701  1.00  0.00     0.121 A 
HETATM   10  C12 UNL     1      24.298   3.919  50.882  1.00  0.00     0.136 A 
HETATM   11  O3  UNL     1      23.412   4.969  50.624  1.00  0.00    -0.344 OA
HETATM   12  C13 UNL     1      22.354   5.287  51.512  1.00  0.00     0.202 C 
HETATM   13  C14 UNL     1      21.649   4.067  52.055  1.00  0.00     0.202 C 
HETATM   14  O4  UNL     1      22.532   2.974  52.217  1.00  0.00    -0.345 OA
ENDROOT
BRANCH   7  15
HETATM   15  N3  UNL     1      22.931   0.789  53.376  1.00  0.00    -0.346 N 
HETATM   16  H8  UNL     1      22.162   1.204  53.927  1.00  0.00     0.167 HD
BRANCH  15  17
HETATM   17  C8  UNL     1      22.108  -0.367  53.258  1.00  0.00     0.148 C 
BRANCH  17  18
HETATM   18  C9  UNL     1      21.768  -1.285  54.150  1.00  0.00     0.238 C 
HETATM   19  O2  UNL     1      21.723  -1.947  55.220  1.00  0.00    -0.283 OA
ENDBRANCH  17  18
ENDBRANCH  15  17
ENDBRANCH   7  15
BRANCH   1  20
HETATM   20  O1  UNL     1      26.033   4.843  49.572  1.00  0.00    -0.348 OA
BRANCH  20  21
HETATM   21  C2  UNL     1      27.204   4.823  48.815  1.00  0.00     0.171 C 
HETATM   22  C1  UNL     1      27.506   6.240  48.361  1.00  0.00     0.034 C 
ENDBRANCH  20  21
ENDBRANCH   1  20
TORSDOF 5
ENDMDL
MODEL 5
REMARK VINA RESULT:      -6.4      2.923      5.759
REMARK  5 active torsions:
REMARK  status: ('A' for Active; 'I' for Inactive)
REMARK    1  A    between atoms: C2_2  and  O1_3 
REMARK    2  A    between atoms: O1_3  and  C3_4 
REMARK    3  A    between atoms: C7_10  and  N3_11 
REMARK    4  A    between atoms: N3_11  and  C8_12 
REMARK    5  A    between atoms: C8_12  and  C9_13 
ROOT
HETATM    1  C3  UNL     1      23.571   0.820  52.314  1.00  0.00     0.107 A 
HETATM    2  C4  UNL     1      22.767   1.422  51.382  1.00  0.00     0.072 A 
HETATM    3  C5  UNL     1      23.295   2.420  50.560  1.00  0.00     0.077 A 
HETATM    4  N1  UNL     1      22.531   3.018  49.646  1.00  0.00    -0.241 NA
HETATM    5  C6  UNL     1      23.009   3.979  48.842  1.00  0.00     0.236 A 
HETATM    6  N2  UNL     1      24.318   4.323  48.997  1.00  0.00    -0.223 NA
HETATM    7  C7  UNL     1      25.088   3.723  49.913  1.00  0.00     0.144 A 
HETATM    8  C10 UNL     1      24.619   2.739  50.746  1.00  0.00     0.075 A 
HETATM    9  C11 UNL     1      25.454   2.153  51.673  1.00  0.00     0.121 A 
HETATM   10  C12 UNL     1      24.904   1.171  52.470  1.00  0.00     0.136 A 
HETATM   11  O3  UNL     1      25.788   0.607  53.395  1.00  0.00    -0.344 OA
HETATM   12  C13 UNL     1      26.927   1.307  53.861  1.00  0.00     0.202 C 
HETATM   13  C14 UNL     1      27.650   2.059  52.768  1.00  0.00     0.202 C 
HETATM   14  O4  UNL     1      26.760   2.541  51.780  1.00  0.00    -0.345 OA
ENDROOT
BRANCH   7  15
HETATM   15  N3  UNL     1      26.415   4.202  49.937  1.00  0.00    -0.346 N 
HETATM   16  H8  UNL     1      27.339   4.305  50.388  1.00  0.00     0.167 HD
BRANCH  15  17
HETATM   17  C8  UNL     1      26.951   4.965  48.861  1.00  0.00     0.148 C 
BRANCH  17  18
HETATM   18  C9  UNL     1      28.205   5.204  48.505  1.00  0.00     0.238 C 
HETATM   19  O2  UNL     1      29.401   5.015  48.160  1.00  0.00    -0.283 OA
ENDBRANCH  17  18
ENDBRANCH  15  17
ENDBRANCH   7  15
BRANCH   1  20
HETATM   20  O1  UNL     1      23.081  -0.172  53.144  1.00  0.00    -0.348 OA
BRANCH  20  21
HETATM   21  C2  UNL     1      21.990  -0.039  54.002  1.00  0.00     0.171 C 
HETATM   22  C1  UNL     1      21.638  -1.412  54.548  1.00  0.00     0.034 C 
ENDBRANCH  20  21
ENDBRANCH   1  20
TORSDOF 5
ENDMDL
MODEL 6
REMARK VINA RESULT:      -6.3      3.087      5.767
REMARK  5 active torsions:
REMARK  status: ('A' for Active; 'I' for Inactive)
REMARK    1  A    between atoms: C2_2  and  O1_3 
REMARK    2  A    between atoms: O1_3  and  C3_4 
REMARK    3  A    between atoms: C7_10  and  N3_11 
REMARK    4  A    between atoms: N3_11  and  C8_12 
REMARK    5  A    between atoms: C8_12  and  C9_13 
ROOT
HETATM    1  C3  UNL     1      22.651   1.131  52.561  1.00  0.00     0.107 A 
HETATM    2  C4  UNL     1      23.845   1.109  53.231  1.00  0.00     0.072 A 
HETATM    3  C5  UNL     1      24.987   1.635  52.622  1.00  0.00     0.077 A 
HETATM    4  N1  UNL     1      26.159   1.624  53.257  1.00  0.00    -0.241 NA
HETATM    5  C6  UNL     1      27.271   2.122  52.698  1.00  0.00     0.236 A 
HETATM    6  N2  UNL     1      27.156   2.643  51.444  1.00  0.00    -0.223 NA
HETATM    7  C7  UNL     1      25.980   2.656  50.805  1.00  0.00     0.144 A 
HETATM    8  C10 UNL     1      24.830   2.152  51.358  1.00  0.00     0.075 A 
HETATM    9  C11 UNL     1      23.645   2.189  50.656  1.00  0.00     0.121 A 
HETATM   10  C12 UNL     1      22.536   1.662  51.284  1.00  0.00     0.136 A 
HETATM   11  O3  UNL     1      21.357   1.722  50.535  1.00  0.00    -0.344 OA
HETATM   12  C13 UNL     1      21.375   1.786  49.120  1.00  0.00     0.202 C 
HETATM   13  C14 UNL     1      22.440   2.713  48.581  1.00  0.00     0.202 C 
HETATM   14  O4  UNL     1      23.592   2.726  49.401  1.00  0.00    -0.345 OA
ENDROOT
BRANCH   7  15
HETATM   15  N3  UNL     1      26.043   3.232  49.518  1.00  0.00    -0.346 N 
HETATM   16  H8  UNL     1      25.861   3.213  48.501  1.00  0.00     0.167 HD
BRANCH  15  17
HETATM   17  C8  UNL     1      26.630   4.511  49.303  1.00  0.00     0.148 C 
BRANCH  17  18
HETATM   18  C9  UNL     1      27.715   4.867  48.631  1.00  0.00     0.238 C 
HETATM   19  O2  UNL     1      28.926   5.018  48.318  1.00  0.00    -0.283 OA
ENDBRANCH  17  18
ENDBRANCH  15  17
ENDBRANCH   7  15
BRANCH   1  20
HETATM   20  O1  UNL     1      21.502   0.619  53.134  1.00  0.00    -0.348 OA
BRANCH  20  21
HETATM   21  C2  UNL     1      21.427   0.015  54.389  1.00  0.00     0.171 C 
HETATM   22  C1  UNL     1      21.353  -1.489  54.194  1.00  0.00     0.034 C 
ENDBRANCH  20  21
ENDBRANCH   1  20
TORSDOF 5
ENDMDL
MODEL 7
REMARK VINA RESULT:      -6.1      2.388      4.036
REMARK  5 active torsions:
REMARK  status: ('A' for Active; 'I' for Inactive)
REMARK    1  A    between atoms: C2_2  and  O1_3 
REMARK    2  A    between atoms: O1_3  and  C3_4 
REMARK    3  A    between atoms: C7_10  and  N3_11 
REMARK    4  A    between atoms: N3_11  and  C8_12 
REMARK    5  A    between atoms: C8_12  and  C9_13 
ROOT
HETATM    1  C3  UNL     1      23.913   2.022  52.223  1.00  0.00     0.107 A 
HETATM    2  C4  UNL     1      24.360   0.991  53.007  1.00  0.00     0.072 A 
HETATM    3  C5  UNL     1      23.437   0.191  53.684  1.00  0.00     0.077 A 
HETATM    4  N1  UNL     1      23.850  -0.818  54.451  1.00  0.00    -0.241 NA
HETATM    5  C6  UNL     1      22.988  -1.603  55.113  1.00  0.00     0.236 A 
HETATM    6  N2  UNL     1      21.661  -1.328  54.969  1.00  0.00    -0.223 NA
HETATM    7  C7  UNL     1      21.244  -0.316  54.198  1.00  0.00     0.144 A 
HETATM    8  C10 UNL     1      22.108   0.500  53.514  1.00  0.00     0.075 A 
HETATM    9  C11 UNL     1      21.626   1.529  52.734  1.00  0.00     0.121 A 
HETATM   10  C12 UNL     1      22.562   2.300  52.078  1.00  0.00     0.136 A 
HETATM   11  O3  UNL     1      22.026   3.331  51.299  1.00  0.00    -0.344 OA
HETATM   12  C13 UNL     1      20.751   3.886  51.571  1.00  0.00     0.202 C 
HETATM   13  C14 UNL     1      19.716   2.846  51.929  1.00  0.00     0.202 C 
HETATM   14  O4  UNL     1      20.282   1.755  52.628  1.00  0.00    -0.345 OA
ENDROOT
BRANCH   7  15
HETATM   15  N3  UNL     1      19.840  -0.174  54.164  1.00  0.00    -0.346 N 
HETATM   16  H8  UNL     1      18.970   0.336  54.389  1.00  0.00     0.167 HD
BRANCH  15  17
HETATM   17  C8  UNL     1      19.009  -1.140  53.528  1.00  0.00     0.148 C 
BRANCH  17  18
HETATM   18  C9  UNL     1      17.796  -1.032  53.007  1.00  0.00     0.238 C 
HETATM   19  O2  UNL     1      16.540  -0.999  52.909  1.00  0.00    -0.283 OA
ENDBRANCH  17  18
ENDBRANCH  15  17
ENDBRANCH   7  15
BRANCH   1  20
HETATM   20  O1  UNL     1      24.799   2.833  51.539  1.00  0.00    -0.348 OA
BRANCH  20  21
HETATM   21  C2  UNL     1      26.100   2.483  51.178  1.00  0.00     0.171 C 
HETATM   22  C1  UNL     1      26.441   3.182  49.874  1.00  0.00     0.034 C 
ENDBRANCH  20  21
ENDBRANCH   1  20
TORSDOF 5
ENDMDL
MODEL 8
REMARK VINA RESULT:      -5.8      2.208      3.894
REMARK  5 active torsions:
REMARK  status: ('A' for Active; 'I' for Inactive)
REMARK    1  A    between atoms: C2_2  and  O1_3 
REMARK    2  A    between atoms: O1_3  and  C3_4 
REMARK    3  A    between atoms: C7_10  and  N3_11 
REMARK    4  A    between atoms: N3_11  and  C8_12 
REMARK    5  A    between atoms: C8_12  and  C9_13 
ROOT
HETATM    1  C3  UNL     1      24.814   0.956  52.841  1.00  0.00     0.107 A 
HETATM    2  C4  UNL     1      25.022   2.188  52.279  1.00  0.00     0.072 A 
HETATM    3  C5  UNL     1      23.931   3.022  52.028  1.00  0.00     0.077 A 
HETATM    4  N1  UNL     1      24.110   4.226  51.482  1.00  0.00    -0.241 NA
HETATM    5  C6  UNL     1      23.083   5.049  51.230  1.00  0.00     0.236 A 
HETATM    6  N2  UNL     1      21.836   4.604  51.555  1.00  0.00    -0.223 NA
HETATM    7  C7  UNL     1      21.654   3.397  52.104  1.00  0.00     0.144 A 
HETATM    8  C10 UNL     1      22.691   2.539  52.370  1.00  0.00     0.075 A 
HETATM    9  C11 UNL     1      22.448   1.306  52.936  1.00  0.00     0.121 A 
HETATM   10  C12 UNL     1      23.545   0.505  53.172  1.00  0.00     0.136 A 
HETATM   11  O3  UNL     1      23.250  -0.735  53.747  1.00  0.00    -0.344 OA
HETATM   12  C13 UNL     1      21.979  -1.343  53.597  1.00  0.00     0.202 C 
HETATM   13  C14 UNL     1      20.834  -0.366  53.732  1.00  0.00     0.202 C 
HETATM   14  O4  UNL     1      21.174   0.916  53.242  1.00  0.00    -0.345 OA
ENDROOT
BRANCH   7  15
HETATM   15  N3  UNL     1      20.301   3.099  52.376  1.00  0.00    -0.346 N 
HETATM   16  H8  UNL     1      19.564   2.642  52.936  1.00  0.00     0.167 HD
BRANCH  15  17
HETATM   17  C8  UNL     1      19.249   3.607  51.562  1.00  0.00     0.148 C 
BRANCH  17  18
HETATM   18  C9  UNL     1      17.980   3.242  51.457  1.00  0.00     0.238 C 
HETATM   19  O2  UNL     1      16.889   2.649  51.671  1.00  0.00    -0.283 OA
ENDBRANCH  17  18
ENDBRANCH  15  17
ENDBRANCH   7  15
BRANCH   1  20
HETATM   20  O1  UNL     1      25.872   0.104  53.104  1.00  0.00    -0.348 OA
BRANCH  20  21
HETATM   21  C2  UNL     1      26.698  -0.475  52.142  1.00  0.00     0.171 C 
HETATM   22  C1  UNL     1      26.953  -1.920  52.535  1.00  0.00     0.034 C 
ENDBRANCH  20  21
ENDBRANCH   1  20
TORSDOF 5
ENDMDL
MODEL 9
REMARK VINA RESULT:      -5.8      9.788     11.330
REMARK  5 active torsions:
REMARK  status: ('A' for Active; 'I' for Inactive)
REMARK    1  A    between atoms: C2_2  and  O1_3 
REMARK    2  A    between atoms: O1_3  and  C3_4 
REMARK    3  A    between atoms: C7_10  and  N3_11 
REMARK    4  A    between atoms: N3_11  and  C8_12 
REMARK    5  A    between atoms: C8_12  and  C9_13 
ROOT
HETATM    1  C3  UNL     1      32.436   4.610  47.405  1.00  0.00     0.107 A 
HETATM    2  C4  UNL     1      31.069   4.671  47.476  1.00  0.00     0.072 A 
HETATM    3  C5  UNL     1      30.453   5.855  47.885  1.00  0.00     0.077 A 
HETATM    4  N1  UNL     1      29.125   5.936  47.961  1.00  0.00    -0.241 NA
HETATM    5  C6  UNL     1      28.505   7.059  48.349  1.00  0.00     0.236 A 
HETATM    6  N2  UNL     1      29.293   8.125  48.666  1.00  0.00    -0.223 NA
HETATM    7  C7  UNL     1      30.627   8.046  48.590  1.00  0.00     0.144 A 
HETATM    8  C10 UNL     1      31.281   6.907  48.196  1.00  0.00     0.075 A 
HETATM    9  C11 UNL     1      32.658   6.879  48.135  1.00  0.00     0.121 A 
HETATM   10  C12 UNL     1      33.236   5.696  47.728  1.00  0.00     0.136 A 
HETATM   11  O3  UNL     1      34.634   5.715  47.681  1.00  0.00    -0.344 OA
HETATM   12  C13 UNL     1      35.394   6.612  48.471  1.00  0.00     0.202 C 
HETATM   13  C14 UNL     1      34.807   8.003  48.521  1.00  0.00     0.202 C 
HETATM   14  O4  UNL     1      33.394   7.983  48.465  1.00  0.00    -0.345 OA
ENDROOT
BRANCH   7  15
HETATM   15  N3  UNL     1      31.284   9.241  48.954  1.00  0.00    -0.346 N 
HETATM   16  H8  UNL     1      31.944   9.775  49.543  1.00  0.00     0.167 HD
BRANCH  15  17
HETATM   17  C8  UNL     1      31.047  10.463  48.262  1.00  0.00     0.148 C 
BRANCH  17  18
HETATM   18  C9  UNL     1      30.690  11.658  48.708  1.00  0.00     0.238 C 
HETATM   19  O2  UNL     1      30.577  12.666  49.454  1.00  0.00    -0.283 OA
ENDBRANCH  17  18
ENDBRANCH  15  17
ENDBRANCH   7  15
BRANCH   1  20
HETATM   20  O1  UNL     1      33.079   3.453  47.004  1.00  0.00    -0.348 OA
BRANCH  20  21
HETATM   21  C2  UNL     1      33.131   2.266  47.733  1.00  0.00     0.171 C 
HETATM   22  C1  UNL     1      32.415   1.185  46.942  1.00  0.00     0.034 C 
ENDBRANCH  20  21
ENDBRANCH   1  20
TORSDOF 5
ENDMDL
