MODEL 1
REMARK VINA RESULT:      -8.8      0.000      0.000
REMARK  6 active torsions:
REMARK  status: ('A' for Active; 'I' for Inactive)
REMARK    1  A    between atoms: C3_4  and  N2_5 
REMARK    2  A    between atoms: C6_8  and  C7_9 
REMARK    3  A    between atoms: C7_9  and  C8_10 
REMARK    4  A    between atoms: C9_11  and  N3_12 
REMARK    5  A    between atoms: C16_21  and  N4_22 
REMARK    6  A    between atoms: N4_22  and  C17_23 
ROOT
HETATM    1  N1  UNL     1      22.083   1.550  52.672  1.00  0.00    -0.192 NA
HETATM    2  C1  UNL     1      21.869   2.653  52.357  1.00  0.00     0.089 C 
HETATM    3  C2  UNL     1      21.586   4.010  51.981  1.00  0.00     0.112 C 
HETATM    4  C3  UNL     1      22.552   4.727  51.405  1.00  0.00     0.128 C 
ENDROOT
BRANCH   4   5
HETATM    5  N2  UNL     1      23.575   3.743  51.401  1.00  0.00    -0.262 NA
HETATM    6  C4  UNL     1      24.620   3.947  50.681  1.00  0.00     0.064 A 
HETATM    7  C5  UNL     1      24.618   5.236  49.919  1.00  0.00     0.096 A 
HETATM    8  C16 UNL     1      25.672   2.931  50.679  1.00  0.00     0.057 A 
HETATM    9  C6  UNL     1      25.876   5.365  49.122  1.00  0.00    -0.071 A 
HETATM   10  C14 UNL     1      26.800   4.441  49.138  1.00  0.00     0.006 A 
HETATM   11  C15 UNL     1      26.721   3.208  49.912  1.00  0.00     0.032 A 
BRANCH   9  12
HETATM   12  C7  UNL     1      25.867   6.619  48.385  1.00  0.00     0.063 C 
BRANCH  12  13
HETATM   13  C8  UNL     1      27.159   7.317  48.284  1.00  0.00    -0.005 C 
HETATM   14  C9  UNL     1      27.434   8.437  48.946  1.00  0.00     0.090 C 
BRANCH  14  15
HETATM   15  N3  UNL     1      28.639   9.194  48.927  1.00  0.00    -0.325 N 
HETATM   16  C10 UNL     1      29.886   8.447  48.891  1.00  0.00     0.157 C 
HETATM   17  C11 UNL     1      31.073   9.384  48.851  1.00  0.00     0.188 C 
HETATM   18  O1  UNL     1      30.820  10.411  47.973  1.00  0.00    -0.380 OA
HETATM   19  C12 UNL     1      29.907  11.327  48.490  1.00  0.00     0.270 C 
HETATM   20  C13 UNL     1      28.697  10.611  48.940  1.00  0.00     0.247 C 
HETATM   21  O2  UNL     1      27.678  11.222  49.351  1.00  0.00    -0.271 OA
ENDBRANCH  14  15
ENDBRANCH  12  13
ENDBRANCH   9  12
BRANCH   8  22
HETATM   22  N4  UNL     1      25.507   1.758  51.467  1.00  0.00    -0.355 N 
HETATM   23  H17 UNL     1      24.501   1.493  51.414  1.00  0.00     0.166 HD
BRANCH  22  24
HETATM   24  C17 UNL     1      26.501   1.055  52.197  1.00  0.00     0.034 A 
HETATM   25  C18 UNL     1      26.490  -0.319  52.122  1.00  0.00     0.032 A 
HETATM   26  C19 UNL     1      27.477  -0.958  52.851  1.00  0.00     0.046 A 
HETATM   27  C20 UNL     1      28.391  -0.246  53.590  1.00  0.00     0.138 A 
HETATM   28  F1  UNL     1      29.400  -0.763  54.341  1.00  0.00    -0.204 F 
HETATM   29  C21 UNL     1      28.369   1.150  53.640  1.00  0.00     0.074 A 
HETATM   30 CL1  UNL     1      29.497   2.120  54.557  1.00  0.00    -0.081 Cl
HETATM   31  C22 UNL     1      27.376   1.810  52.909  1.00  0.00     0.056 A 
ENDBRANCH  22  24
ENDBRANCH   8  22
ENDBRANCH   4   5
TORSDOF 6
ENDMDL
MODEL 2
REMARK VINA RESULT:      -8.7      6.262      8.908
REMARK  6 active torsions:
REMARK  status: ('A' for Active; 'I' for Inactive)
REMARK    1  A    between atoms: C3_4  and  N2_5 
REMARK    2  A    between atoms: C6_8  and  C7_9 
REMARK    3  A    between atoms: C7_9  and  C8_10 
REMARK    4  A    between atoms: C9_11  and  N3_12 
REMARK    5  A    between atoms: C16_21  and  N4_22 
REMARK    6  A    between atoms: N4_22  and  C17_23 
ROOT
HETATM    1  N1  UNL     1      24.022  -1.279  55.661  1.00  0.00    -0.192 NA
HETATM    2  C1  UNL     1      22.938  -1.421  55.254  1.00  0.00     0.089 C 
HETATM    3  C2  UNL     1      21.598  -1.610  54.772  1.00  0.00     0.112 C 
HETATM    4  C3  UNL     1      21.164  -0.838  53.774  1.00  0.00     0.128 C 
ENDROOT
BRANCH   4   5
HETATM    5  N2  UNL     1      22.337  -0.063  53.580  1.00  0.00    -0.262 NA
HETATM    6  C4  UNL     1      22.456   0.608  52.489  1.00  0.00     0.064 A 
HETATM    7  C5  UNL     1      21.305   0.476  51.541  1.00  0.00     0.096 A 
HETATM    8  C16 UNL     1      23.665   1.406  52.291  1.00  0.00     0.057 A 
HETATM    9  C6  UNL     1      21.551   1.294  50.314  1.00  0.00    -0.071 A 
HETATM   10  C14 UNL     1      22.642   1.999  50.164  1.00  0.00     0.006 A 
HETATM   11  C15 UNL     1      23.719   2.070  51.143  1.00  0.00     0.032 A 
BRANCH   9  12
HETATM   12  C7  UNL     1      20.429   1.162  49.399  1.00  0.00     0.063 C 
BRANCH  12  13
HETATM   13  C8  UNL     1      19.097   1.071  50.019  1.00  0.00    -0.005 C 
HETATM   14  C9  UNL     1      18.271   2.108  50.123  1.00  0.00     0.090 C 
BRANCH  14  15
HETATM   15  N3  UNL     1      16.970   2.139  50.698  1.00  0.00    -0.325 N 
HETATM   16  C10 UNL     1      16.114   0.989  50.453  1.00  0.00     0.157 C 
HETATM   17  C11 UNL     1      14.779   1.156  51.143  1.00  0.00     0.188 C 
HETATM   18  O1  UNL     1      14.973   1.657  52.409  1.00  0.00    -0.380 OA
HETATM   19  C12 UNL     1      15.316   3.007  52.389  1.00  0.00     0.270 C 
HETATM   20  C13 UNL     1      16.463   3.207  51.482  1.00  0.00     0.247 C 
HETATM   21  O2  UNL     1      17.034   4.322  51.368  1.00  0.00    -0.271 OA
ENDBRANCH  14  15
ENDBRANCH  12  13
ENDBRANCH   9  12
BRANCH   8  22
HETATM   22  N4  UNL     1      24.665   1.415  53.303  1.00  0.00    -0.355 N 
HETATM   23  H17 UNL     1      24.310   2.014  54.078  1.00  0.00     0.166 HD
BRANCH  22  24
HETATM   24  C17 UNL     1      25.918   0.748  53.294  1.00  0.00     0.034 A 
HETATM   25  C18 UNL     1      25.960  -0.516  52.753  1.00  0.00     0.032 A 
HETATM   26  C19 UNL     1      27.201  -1.124  52.767  1.00  0.00     0.046 A 
HETATM   27  C20 UNL     1      28.300  -0.488  53.292  1.00  0.00     0.138 A 
HETATM   28  F1  UNL     1      29.564  -0.984  53.360  1.00  0.00    -0.204 F 
HETATM   29  C21 UNL     1      28.217   0.798  53.833  1.00  0.00     0.074 A 
HETATM   30 CL1  UNL     1      29.571   1.667  54.517  1.00  0.00    -0.081 Cl
HETATM   31  C22 UNL     1      26.968   1.425  53.826  1.00  0.00     0.056 A 
ENDBRANCH  22  24
ENDBRANCH   8  22
ENDBRANCH   4   5
TORSDOF 6
ENDMDL
MODEL 3
REMARK VINA RESULT:      -8.7      5.212      6.127
REMARK  6 active torsions:
REMARK  status: ('A' for Active; 'I' for Inactive)
REMARK    1  A    between atoms: C3_4  and  N2_5 
REMARK    2  A    between atoms: C6_8  and  C7_9 
REMARK    3  A    between atoms: C7_9  and  C8_10 
REMARK    4  A    between atoms: C9_11  and  N3_12 
REMARK    5  A    between atoms: C16_21  and  N4_22 
REMARK    6  A    between atoms: N4_22  and  C17_23 
ROOT
HETATM    1  N1  UNL     1      24.611  -1.268  55.879  1.00  0.00    -0.192 NA
HETATM    2  C1  UNL     1      23.587  -1.294  55.320  1.00  0.00     0.089 C 
HETATM    3  C2  UNL     1      22.319  -1.340  54.648  1.00  0.00     0.112 C 
HETATM    4  C3  UNL     1      22.099  -0.493  53.640  1.00  0.00     0.128 C 
ENDROOT
BRANCH   4   5
HETATM    5  N2  UNL     1      23.350   0.177  53.649  1.00  0.00    -0.262 NA
HETATM    6  C4  UNL     1      23.650   0.932  52.652  1.00  0.00     0.064 A 
HETATM    7  C5  UNL     1      22.605   1.004  51.582  1.00  0.00     0.096 A 
HETATM    8  C16 UNL     1      24.939   1.622  52.664  1.00  0.00     0.057 A 
HETATM    9  C6  UNL     1      23.058   1.905  50.479  1.00  0.00    -0.071 A 
HETATM   10  C14 UNL     1      24.217   2.509  50.515  1.00  0.00     0.006 A 
HETATM   11  C15 UNL     1      25.180   2.382  51.602  1.00  0.00     0.032 A 
BRANCH   9  12
HETATM   12  C7  UNL     1      22.040   1.970  49.443  1.00  0.00     0.063 C 
BRANCH  12  13
HETATM   13  C8  UNL     1      21.900   3.265  48.755  1.00  0.00    -0.005 C 
HETATM   14  C9  UNL     1      21.649   3.373  47.454  1.00  0.00     0.090 C 
BRANCH  14  15
HETATM   15  N3  UNL     1      21.495   4.562  46.687  1.00  0.00    -0.325 N 
HETATM   16  C10 UNL     1      20.974   5.730  47.379  1.00  0.00     0.157 C 
HETATM   17  C11 UNL     1      20.889   6.915  46.444  1.00  0.00     0.188 C 
HETATM   18  O1  UNL     1      22.026   6.978  45.674  1.00  0.00    -0.380 OA
HETATM   19  C12 UNL     1      22.044   5.994  44.688  1.00  0.00     0.270 C 
HETATM   20  C13 UNL     1      21.812   4.675  45.310  1.00  0.00     0.247 C 
HETATM   21  O2  UNL     1      21.886   3.608  44.649  1.00  0.00    -0.271 OA
ENDBRANCH  14  15
ENDBRANCH  12  13
ENDBRANCH   9  12
BRANCH   8  22
HETATM   22  N4  UNL     1      25.815   1.437  53.769  1.00  0.00    -0.355 N 
HETATM   23  H17 UNL     1      25.327   1.808  54.611  1.00  0.00     0.166 HD
BRANCH  22  24
HETATM   24  C17 UNL     1      27.113   0.862  53.763  1.00  0.00     0.034 A 
HETATM   25  C18 UNL     1      28.175   1.687  54.051  1.00  0.00     0.032 A 
HETATM   26  C19 UNL     1      29.417   1.081  54.033  1.00  0.00     0.046 A 
HETATM   27  C20 UNL     1      29.553  -0.256  53.745  1.00  0.00     0.138 A 
HETATM   28  F1  UNL     1      30.717  -0.958  53.698  1.00  0.00    -0.204 F 
HETATM   29  C21 UNL     1      28.449  -1.062  53.458  1.00  0.00     0.074 A 
HETATM   30 CL1  UNL     1      28.546  -2.767  53.082  1.00  0.00    -0.081 Cl
HETATM   31  C22 UNL     1      27.186  -0.462  53.471  1.00  0.00     0.056 A 
ENDBRANCH  22  24
ENDBRANCH   8  22
ENDBRANCH   4   5
TORSDOF 6
ENDMDL
MODEL 4
REMARK VINA RESULT:      -8.6      1.284      1.576
REMARK  6 active torsions:
REMARK  status: ('A' for Active; 'I' for Inactive)
REMARK    1  A    between atoms: C3_4  and  N2_5 
REMARK    2  A    between atoms: C6_8  and  C7_9 
REMARK    3  A    between atoms: C7_9  and  C8_10 
REMARK    4  A    between atoms: C9_11  and  N3_12 
REMARK    5  A    between atoms: C16_21  and  N4_22 
REMARK    6  A    between atoms: N4_22  and  C17_23 
ROOT
HETATM    1  N1  UNL     1      22.024   2.105  52.240  1.00  0.00    -0.192 NA
HETATM    2  C1  UNL     1      21.996   3.266  52.126  1.00  0.00     0.089 C 
HETATM    3  C2  UNL     1      21.940   4.695  51.997  1.00  0.00     0.112 C 
HETATM    4  C3  UNL     1      23.049   5.347  51.644  1.00  0.00     0.128 C 
ENDROOT
BRANCH   4   5
HETATM    5  N2  UNL     1      23.923   4.235  51.529  1.00  0.00    -0.262 NA
HETATM    6  C4  UNL     1      24.913   4.313  50.712  1.00  0.00     0.064 A 
HETATM    7  C5  UNL     1      25.013   5.608  49.968  1.00  0.00     0.096 A 
HETATM    8  C16 UNL     1      25.812   3.165  50.597  1.00  0.00     0.057 A 
HETATM    9  C6  UNL     1      26.194   5.586  49.052  1.00  0.00    -0.071 A 
HETATM   10  C14 UNL     1      26.982   4.546  48.968  1.00  0.00     0.006 A 
HETATM   11  C15 UNL     1      26.810   3.317  49.734  1.00  0.00     0.032 A 
BRANCH   9  12
HETATM   12  C7  UNL     1      26.285   6.846  48.333  1.00  0.00     0.063 C 
BRANCH  12  13
HETATM   13  C8  UNL     1      27.608   7.178  47.777  1.00  0.00    -0.005 C 
HETATM   14  C9  UNL     1      28.407   8.101  48.302  1.00  0.00     0.090 C 
BRANCH  14  15
HETATM   15  N3  UNL     1      29.697   8.504  47.854  1.00  0.00    -0.325 N 
HETATM   16  C10 UNL     1      29.745   9.485  46.782  1.00  0.00     0.157 C 
HETATM   17  C11 UNL     1      31.176   9.829  46.433  1.00  0.00     0.188 C 
HETATM   18  O1  UNL     1      31.909   9.980  47.586  1.00  0.00    -0.380 OA
HETATM   19  C12 UNL     1      32.180   8.758  48.197  1.00  0.00     0.270 C 
HETATM   20  C13 UNL     1      30.918   8.013  48.380  1.00  0.00     0.247 C 
HETATM   21  O2  UNL     1      30.876   6.923  49.006  1.00  0.00    -0.271 OA
ENDBRANCH  14  15
ENDBRANCH  12  13
ENDBRANCH   9  12
BRANCH   8  22
HETATM   22  N4  UNL     1      25.565   2.007  51.385  1.00  0.00    -0.355 N 
HETATM   23  H17 UNL     1      24.545   1.804  51.320  1.00  0.00     0.166 HD
BRANCH  22  24
HETATM   24  C17 UNL     1      26.504   1.246  52.130  1.00  0.00     0.034 A 
HETATM   25  C18 UNL     1      26.415  -0.124  52.052  1.00  0.00     0.032 A 
HETATM   26  C19 UNL     1      27.351  -0.821  52.794  1.00  0.00     0.046 A 
HETATM   27  C20 UNL     1      28.293  -0.164  53.549  1.00  0.00     0.138 A 
HETATM   28  F1  UNL     1      29.258  -0.740  54.315  1.00  0.00    -0.204 F 
HETATM   29  C21 UNL     1      28.351   1.231  53.602  1.00  0.00     0.074 A 
HETATM   30 CL1  UNL     1      29.519   2.132  54.540  1.00  0.00    -0.081 Cl
HETATM   31  C22 UNL     1      27.410   1.948  52.857  1.00  0.00     0.056 A 
ENDBRANCH  22  24
ENDBRANCH   8  22
ENDBRANCH   4   5
TORSDOF 6
ENDMDL
MODEL 5
REMARK VINA RESULT:      -8.5      5.173      8.311
REMARK  6 active torsions:
REMARK  status: ('A' for Active; 'I' for Inactive)
REMARK    1  A    between atoms: C3_4  and  N2_5 
REMARK    2  A    between atoms: C6_8  and  C7_9 
REMARK    3  A    between atoms: C7_9  and  C8_10 
REMARK    4  A    between atoms: C9_11  and  N3_12 
REMARK    5  A    between atoms: C16_21  and  N4_22 
REMARK    6  A    between atoms: N4_22  and  C17_23 
ROOT
HETATM    1  N1  UNL     1      26.957   3.533  49.883  1.00  0.00    -0.192 NA
HETATM    2  C1  UNL     1      25.837   3.661  49.582  1.00  0.00     0.089 C 
HETATM    3  C2  UNL     1      24.465   3.828  49.190  1.00  0.00     0.112 C 
HETATM    4  C3  UNL     1      23.512   3.318  49.972  1.00  0.00     0.128 C 
ENDROOT
BRANCH   4   5
HETATM    5  N2  UNL     1      24.340   2.761  50.981  1.00  0.00    -0.262 NA
HETATM    6  C4  UNL     1      23.862   1.821  51.718  1.00  0.00     0.064 A 
HETATM    7  C5  UNL     1      22.452   1.430  51.402  1.00  0.00     0.096 A 
HETATM    8  C16 UNL     1      24.718   1.249  52.756  1.00  0.00     0.057 A 
HETATM    9  C6  UNL     1      22.004   0.335  52.316  1.00  0.00    -0.071 A 
HETATM   10  C14 UNL     1      22.790  -0.158  53.237  1.00  0.00     0.006 A 
HETATM   11  C15 UNL     1      24.158   0.285  53.478  1.00  0.00     0.032 A 
BRANCH   9  12
HETATM   12  C7  UNL     1      20.635  -0.039  52.004  1.00  0.00     0.063 C 
BRANCH  12  13
HETATM   13  C8  UNL     1      19.922   0.843  51.064  1.00  0.00    -0.005 C 
HETATM   14  C9  UNL     1      18.807   1.494  51.382  1.00  0.00     0.090 C 
BRANCH  14  15
HETATM   15  N3  UNL     1      18.038   2.368  50.562  1.00  0.00    -0.325 N 
HETATM   16  C10 UNL     1      18.082   2.134  49.128  1.00  0.00     0.157 C 
HETATM   17  C11 UNL     1      17.200   3.122  48.395  1.00  0.00     0.188 C 
HETATM   18  O1  UNL     1      16.010   3.266  49.069  1.00  0.00    -0.380 OA
HETATM   19  C12 UNL     1      16.158   4.013  50.235  1.00  0.00     0.270 C 
HETATM   20  C13 UNL     1      17.244   3.435  51.052  1.00  0.00     0.247 C 
HETATM   21  O2  UNL     1      17.506   3.863  52.205  1.00  0.00    -0.271 OA
ENDBRANCH  14  15
ENDBRANCH  12  13
ENDBRANCH   9  12
BRANCH   8  22
HETATM   22  N4  UNL     1      26.041   1.745  52.919  1.00  0.00    -0.355 N 
HETATM   23  H17 UNL     1      25.999   2.777  52.783  1.00  0.00     0.166 HD
BRANCH  22  24
HETATM   24  C17 UNL     1      27.217   1.006  53.212  1.00  0.00     0.034 A 
HETATM   25  C18 UNL     1      28.285   1.695  53.738  1.00  0.00     0.032 A 
HETATM   26  C19 UNL     1      29.406   0.932  54.007  1.00  0.00     0.046 A 
HETATM   27  C20 UNL     1      29.425  -0.420  53.756  1.00  0.00     0.138 A 
HETATM   28  F1  UNL     1      30.464  -1.267  53.979  1.00  0.00    -0.204 F 
HETATM   29  C21 UNL     1      28.319  -1.084  53.221  1.00  0.00     0.074 A 
HETATM   30 CL1  UNL     1      28.271  -2.796  52.876  1.00  0.00    -0.081 Cl
HETATM   31  C22 UNL     1      27.178  -0.324  52.943  1.00  0.00     0.056 A 
ENDBRANCH  22  24
ENDBRANCH   8  22
ENDBRANCH   4   5
TORSDOF 6
ENDMDL
MODEL 6
REMARK VINA RESULT:      -8.5      3.016      3.760
REMARK  6 active torsions:
REMARK  status: ('A' for Active; 'I' for Inactive)
REMARK    1  A    between atoms: C3_4  and  N2_5 
REMARK    2  A    between atoms: C6_8  and  C7_9 
REMARK    3  A    between atoms: C7_9  and  C8_10 
REMARK    4  A    between atoms: C9_11  and  N3_12 
REMARK    5  A    between atoms: C16_21  and  N4_22 
REMARK    6  A    between atoms: N4_22  and  C17_23 
ROOT
HETATM    1  N1  UNL     1      21.136   4.821  50.966  1.00  0.00    -0.192 NA
HETATM    2  C1  UNL     1      21.705   5.838  50.900  1.00  0.00     0.089 C 
HETATM    3  C2  UNL     1      22.385   7.100  50.824  1.00  0.00     0.112 C 
HETATM    4  C3  UNL     1      23.717   7.104  50.756  1.00  0.00     0.128 C 
ENDROOT
BRANCH   4   5
HETATM    5  N2  UNL     1      23.937   5.702  50.790  1.00  0.00    -0.262 NA
HETATM    6  C4  UNL     1      24.971   5.228  50.191  1.00  0.00     0.064 A 
HETATM    7  C5  UNL     1      25.832   6.251  49.518  1.00  0.00     0.096 A 
HETATM    8  C16 UNL     1      25.194   3.783  50.228  1.00  0.00     0.057 A 
HETATM    9  C6  UNL     1      26.999   5.589  48.859  1.00  0.00    -0.071 A 
HETATM   10  C14 UNL     1      27.175   4.294  48.907  1.00  0.00     0.006 A 
HETATM   11  C15 UNL     1      26.281   3.366  49.589  1.00  0.00     0.032 A 
BRANCH   9  12
HETATM   12  C7  UNL     1      27.831   6.587  48.207  1.00  0.00     0.063 C 
BRANCH  12  13
HETATM   13  C8  UNL     1      29.208   6.173  47.889  1.00  0.00    -0.005 C 
HETATM   14  C9  UNL     1      30.268   6.945  48.105  1.00  0.00     0.090 C 
BRANCH  14  15
HETATM   15  N3  UNL     1      31.635   6.652  47.839  1.00  0.00    -0.325 N 
HETATM   16  C10 UNL     1      32.144   7.016  46.527  1.00  0.00     0.157 C 
HETATM   17  C11 UNL     1      33.610   6.666  46.402  1.00  0.00     0.188 C 
HETATM   18  O1  UNL     1      34.268   7.020  47.556  1.00  0.00    -0.380 OA
HETATM   19  C12 UNL     1      33.982   6.152  48.607  1.00  0.00     0.270 C 
HETATM   20  C13 UNL     1      32.519   6.037  48.762  1.00  0.00     0.247 C 
HETATM   21  O2  UNL     1      32.000   5.395  49.711  1.00  0.00    -0.271 OA
ENDBRANCH  14  15
ENDBRANCH  12  13
ENDBRANCH   9  12
BRANCH   8  22
HETATM   22  N4  UNL     1      24.268   2.954  50.918  1.00  0.00    -0.355 N 
HETATM   23  H17 UNL     1      23.313   3.272  50.649  1.00  0.00     0.166 HD
BRANCH  22  24
HETATM   24  C17 UNL     1      24.552   1.887  51.810  1.00  0.00     0.034 A 
HETATM   25  C18 UNL     1      25.872   1.544  51.990  1.00  0.00     0.032 A 
HETATM   26  C19 UNL     1      26.098   0.500  52.867  1.00  0.00     0.046 A 
HETATM   27  C20 UNL     1      25.057  -0.135  53.502  1.00  0.00     0.138 A 
HETATM   28  F1  UNL     1      25.157  -1.168  54.381  1.00  0.00    -0.204 F 
HETATM   29  C21 UNL     1      23.729   0.243  53.293  1.00  0.00     0.074 A 
HETATM   30 CL1  UNL     1      22.357  -0.518  54.064  1.00  0.00    -0.081 Cl
HETATM   31  C22 UNL     1      23.485   1.297  52.408  1.00  0.00     0.056 A 
ENDBRANCH  22  24
ENDBRANCH   8  22
ENDBRANCH   4   5
TORSDOF 6
ENDMDL
MODEL 7
REMARK VINA RESULT:      -8.5      6.542     10.061
REMARK  6 active torsions:
REMARK  status: ('A' for Active; 'I' for Inactive)
REMARK    1  A    between atoms: C3_4  and  N2_5 
REMARK    2  A    between atoms: C6_8  and  C7_9 
REMARK    3  A    between atoms: C7_9  and  C8_10 
REMARK    4  A    between atoms: C9_11  and  N3_12 
REMARK    5  A    between atoms: C16_21  and  N4_22 
REMARK    6  A    between atoms: N4_22  and  C17_23 
ROOT
HETATM    1  N1  UNL     1      24.526   3.411  49.789  1.00  0.00    -0.192 NA
HETATM    2  C1  UNL     1      23.483   2.968  49.511  1.00  0.00     0.089 C 
HETATM    3  C2  UNL     1      22.200   2.434  49.150  1.00  0.00     0.112 C 
HETATM    4  C3  UNL     1      21.699   1.432  49.875  1.00  0.00     0.128 C 
ENDROOT
BRANCH   4   5
HETATM    5  N2  UNL     1      22.759   1.292  50.808  1.00  0.00    -0.262 NA
HETATM    6  C4  UNL     1      22.529   0.674  51.911  1.00  0.00     0.064 A 
HETATM    7  C5  UNL     1      21.129   0.168  52.068  1.00  0.00     0.096 A 
HETATM    8  C16 UNL     1      23.623   0.531  52.870  1.00  0.00     0.057 A 
HETATM    9  C6  UNL     1      20.977  -0.531  53.381  1.00  0.00    -0.071 A 
HETATM   10  C14 UNL     1      21.973  -0.644  54.220  1.00  0.00     0.006 A 
HETATM   11  C15 UNL     1      23.313  -0.117  53.986  1.00  0.00     0.032 A 
BRANCH   9  12
HETATM   12  C7  UNL     1      19.616  -1.019  53.527  1.00  0.00     0.063 C 
BRANCH  12  13
HETATM   13  C8  UNL     1      18.635  -0.494  52.562  1.00  0.00    -0.005 C 
HETATM   14  C9  UNL     1      17.346  -0.819  52.585  1.00  0.00     0.090 C 
BRANCH  14  15
HETATM   15  N3  UNL     1      16.313  -0.377  51.711  1.00  0.00    -0.325 N 
HETATM   16  C10 UNL     1      16.609  -0.380  50.288  1.00  0.00     0.157 C 
HETATM   17  C11 UNL     1      15.414   0.091  49.489  1.00  0.00     0.188 C 
HETATM   18  O1  UNL     1      14.269  -0.482  49.991  1.00  0.00    -0.380 OA
HETATM   19  C12 UNL     1      13.890   0.087  51.204  1.00  0.00     0.270 C 
HETATM   20  C13 UNL     1      15.034   0.059  52.137  1.00  0.00     0.247 C 
HETATM   21  O2  UNL     1      14.921   0.419  53.337  1.00  0.00    -0.271 OA
ENDBRANCH  14  15
ENDBRANCH  12  13
ENDBRANCH   9  12
BRANCH   8  22
HETATM   22  N4  UNL     1      24.899   1.078  52.556  1.00  0.00    -0.355 N 
HETATM   23  H17 UNL     1      24.731   1.971  52.047  1.00  0.00     0.166 HD
BRANCH  22  24
HETATM   24  C17 UNL     1      26.175   0.538  52.862  1.00  0.00     0.034 A 
HETATM   25  C18 UNL     1      26.400  -0.781  52.545  1.00  0.00     0.032 A 
HETATM   26  C19 UNL     1      27.657  -1.260  52.862  1.00  0.00     0.046 A 
HETATM   27  C20 UNL     1      28.599  -0.452  53.453  1.00  0.00     0.138 A 
HETATM   28  F1  UNL     1      29.862  -0.811  53.808  1.00  0.00    -0.204 F 
HETATM   29  C21 UNL     1      28.333   0.885  53.759  1.00  0.00     0.074 A 
HETATM   30 CL1  UNL     1      29.480   1.969  54.510  1.00  0.00    -0.081 Cl
HETATM   31  C22 UNL     1      27.065   1.382  53.445  1.00  0.00     0.056 A 
ENDBRANCH  22  24
ENDBRANCH   8  22
ENDBRANCH   4   5
TORSDOF 6
ENDMDL
MODEL 8
REMARK VINA RESULT:      -8.4      5.670      9.656
REMARK  6 active torsions:
REMARK  status: ('A' for Active; 'I' for Inactive)
REMARK    1  A    between atoms: C3_4  and  N2_5 
REMARK    2  A    between atoms: C6_8  and  C7_9 
REMARK    3  A    between atoms: C7_9  and  C8_10 
REMARK    4  A    between atoms: C9_11  and  N3_12 
REMARK    5  A    between atoms: C16_21  and  N4_22 
REMARK    6  A    between atoms: N4_22  and  C17_23 
ROOT
HETATM    1  N1  UNL     1      24.937   3.632  50.147  1.00  0.00    -0.192 NA
HETATM    2  C1  UNL     1      24.063   3.248  49.476  1.00  0.00     0.089 C 
HETATM    3  C2  UNL     1      22.999   2.782  48.632  1.00  0.00     0.112 C 
HETATM    4  C3  UNL     1      22.051   2.010  49.167  1.00  0.00     0.128 C 
ENDROOT
BRANCH   4   5
HETATM    5  N2  UNL     1      22.541   1.962  50.498  1.00  0.00    -0.262 NA
HETATM    6  C4  UNL     1      21.822   1.391  51.397  1.00  0.00     0.064 A 
HETATM    7  C5  UNL     1      20.523   0.834  50.903  1.00  0.00     0.096 A 
HETATM    8  C16 UNL     1      22.329   1.344  52.768  1.00  0.00     0.057 A 
HETATM    9  C6  UNL     1      19.774   0.197  52.029  1.00  0.00    -0.071 A 
HETATM   10  C14 UNL     1      20.251   0.169  53.246  1.00  0.00     0.006 A 
HETATM   11  C15 UNL     1      21.533   0.739  53.642  1.00  0.00     0.032 A 
BRANCH   9  12
HETATM   12  C7  UNL     1      18.514  -0.341  51.542  1.00  0.00     0.063 C 
BRANCH  12  13
HETATM   13  C8  UNL     1      17.297   0.354  51.996  1.00  0.00    -0.005 C 
HETATM   14  C9  UNL     1      16.812   1.437  51.398  1.00  0.00     0.090 C 
BRANCH  14  15
HETATM   15  N3  UNL     1      15.653   2.187  51.745  1.00  0.00    -0.325 N 
HETATM   16  C10 UNL     1      14.365   1.602  51.407  1.00  0.00     0.157 C 
HETATM   17  C11 UNL     1      13.233   2.498  51.857  1.00  0.00     0.188 C 
HETATM   18  O1  UNL     1      13.500   2.982  53.116  1.00  0.00    -0.380 OA
HETATM   19  C12 UNL     1      14.489   3.963  53.099  1.00  0.00     0.270 C 
HETATM   20  C13 UNL     1      15.676   3.449  52.389  1.00  0.00     0.247 C 
HETATM   21  O2  UNL     1      16.748   4.104  52.328  1.00  0.00    -0.271 OA
ENDBRANCH  14  15
ENDBRANCH  12  13
ENDBRANCH   9  12
BRANCH   8  22
HETATM   22  N4  UNL     1      23.593   1.927  53.062  1.00  0.00    -0.355 N 
HETATM   23  H17 UNL     1      23.424   2.935  53.264  1.00  0.00     0.166 HD
BRANCH  22  24
HETATM   24  C17 UNL     1      24.861   1.290  53.085  1.00  0.00     0.034 A 
HETATM   25  C18 UNL     1      24.891  -0.072  52.888  1.00  0.00     0.032 A 
HETATM   26  C19 UNL     1      26.148  -0.646  52.920  1.00  0.00     0.046 A 
HETATM   27  C20 UNL     1      27.273   0.114  53.135  1.00  0.00     0.138 A 
HETATM   28  F1  UNL     1      28.554  -0.339  53.187  1.00  0.00    -0.204 F 
HETATM   29  C21 UNL     1      27.201   1.495  53.331  1.00  0.00     0.074 A 
HETATM   30 CL1  UNL     1      28.588   2.522  53.610  1.00  0.00    -0.081 Cl
HETATM   31  C22 UNL     1      25.936   2.089  53.302  1.00  0.00     0.056 A 
ENDBRANCH  22  24
ENDBRANCH   8  22
ENDBRANCH   4   5
TORSDOF 6
ENDMDL
MODEL 9
REMARK VINA RESULT:      -8.3      4.839      8.807
REMARK  6 active torsions:
REMARK  status: ('A' for Active; 'I' for Inactive)
REMARK    1  A    between atoms: C3_4  and  N2_5 
REMARK    2  A    between atoms: C6_8  and  C7_9 
REMARK    3  A    between atoms: C7_9  and  C8_10 
REMARK    4  A    between atoms: C9_11  and  N3_12 
REMARK    5  A    between atoms: C16_21  and  N4_22 
REMARK    6  A    between atoms: N4_22  and  C17_23 
ROOT
HETATM    1  N1  UNL     1      24.156   9.459  47.579  1.00  0.00    -0.192 NA
HETATM    2  C1  UNL     1      23.724   8.987  48.555  1.00  0.00     0.089 C 
HETATM    3  C2  UNL     1      23.171   8.414  49.750  1.00  0.00     0.112 C 
HETATM    4  C3  UNL     1      23.908   7.539  50.438  1.00  0.00     0.128 C 
ENDROOT
BRANCH   4   5
HETATM    5  N2  UNL     1      25.062   7.537  49.612  1.00  0.00    -0.262 NA
HETATM    6  C4  UNL     1      25.722   6.440  49.482  1.00  0.00     0.064 A 
HETATM    7  C5  UNL     1      25.165   5.278  50.244  1.00  0.00     0.096 A 
HETATM    8  C16 UNL     1      26.910   6.441  48.630  1.00  0.00     0.057 A 
HETATM    9  C6  UNL     1      26.008   4.064  50.019  1.00  0.00    -0.071 A 
HETATM   10  C14 UNL     1      27.066   4.092  49.252  1.00  0.00     0.006 A 
HETATM   11  C15 UNL     1      27.540   5.275  48.544  1.00  0.00     0.032 A 
BRANCH   9  12
HETATM   12  C7  UNL     1      25.462   2.939  50.761  1.00  0.00     0.063 C 
BRANCH  12  13
HETATM   13  C8  UNL     1      26.443   1.972  51.282  1.00  0.00    -0.005 C 
HETATM   14  C9  UNL     1      26.182   1.140  52.285  1.00  0.00     0.090 C 
BRANCH  14  15
HETATM   15  N3  UNL     1      27.045   0.169  52.867  1.00  0.00    -0.325 N 
HETATM   16  C10 UNL     1      26.920  -1.197  52.386  1.00  0.00     0.157 C 
HETATM   17  C11 UNL     1      27.913  -2.104  53.078  1.00  0.00     0.188 C 
HETATM   18  O1  UNL     1      29.133  -1.475  53.159  1.00  0.00    -0.380 OA
HETATM   19  C12 UNL     1      29.137  -0.466  54.119  1.00  0.00     0.270 C 
HETATM   20  C13 UNL     1      28.005   0.449  53.872  1.00  0.00     0.247 C 
HETATM   21  O2  UNL     1      27.847   1.504  54.537  1.00  0.00    -0.271 OA
ENDBRANCH  14  15
ENDBRANCH  12  13
ENDBRANCH   9  12
BRANCH   8  22
HETATM   22  N4  UNL     1      27.297   7.644  47.978  1.00  0.00    -0.355 N 
HETATM   23  H17 UNL     1      26.738   7.710  47.102  1.00  0.00     0.166 HD
BRANCH  22  24
HETATM   24  C17 UNL     1      28.258   8.596  48.409  1.00  0.00     0.034 A 
HETATM   25  C18 UNL     1      29.506   8.130  48.750  1.00  0.00     0.032 A 
HETATM   26  C19 UNL     1      30.405   9.095  49.163  1.00  0.00     0.046 A 
HETATM   27  C20 UNL     1      30.050  10.422  49.219  1.00  0.00     0.138 A 
HETATM   28  F1  UNL     1      30.846  11.454  49.606  1.00  0.00    -0.204 F 
HETATM   29  C21 UNL     1      28.772  10.857  48.863  1.00  0.00     0.074 A 
HETATM   30 CL1  UNL     1      28.251  12.525  48.910  1.00  0.00    -0.081 Cl
HETATM   31  C22 UNL     1      27.851   9.891  48.445  1.00  0.00     0.056 A 
ENDBRANCH  22  24
ENDBRANCH   8  22
ENDBRANCH   4   5
TORSDOF 6
ENDMDL
