MODEL 1
REMARK VINA RESULT:      -9.3      0.000      0.000
REMARK  5 active torsions:
REMARK  status: ('A' for Active; 'I' for Inactive)
REMARK    1  A    between atoms: C7_7  and  N1_8 
REMARK    2  A    between atoms: N1_8  and  C8_9 
REMARK    3  A    between atoms: C14_17  and  C15_18 
REMARK    4  A    between atoms: C15_18  and  C16_19 
REMARK    5  A    between atoms: C16_19  and  N4_20 
ROOT
HETATM    1  C1  UNL     1      28.478   7.787  47.224  1.00  0.00     0.018 C 
HETATM    2  C2  UNL     1      27.849   7.001  47.886  1.00  0.00    -0.078 C 
HETATM    3  C3  UNL     1      27.120   6.063  48.688  1.00  0.00     0.019 A 
HETATM    4  C4  UNL     1      27.511   4.746  48.600  1.00  0.00     0.021 A 
HETATM    5  C5  UNL     1      26.850   3.814  49.344  1.00  0.00     0.004 A 
HETATM    6  C6  UNL     1      25.829   4.224  50.147  1.00  0.00     0.029 A 
HETATM    7  C7  UNL     1      25.351   5.524  50.313  1.00  0.00     0.035 A 
HETATM    8  C24 UNL     1      26.079   6.411  49.519  1.00  0.00     0.050 A 
ENDROOT
BRANCH   7   9
HETATM    9  N1  UNL     1      24.307   5.918  51.162  1.00  0.00    -0.340 N 
HETATM   10  H5  UNL     1      24.713   6.723  51.727  1.00  0.00     0.167 HD
BRANCH   9  11
HETATM   11  C8  UNL     1      23.012   5.319  51.198  1.00  0.00     0.141 A 
HETATM   12  N2  UNL     1      22.125   6.007  50.475  1.00  0.00    -0.224 NA
HETATM   13  C9  UNL     1      20.859   5.594  50.393  1.00  0.00     0.236 A 
HETATM   14  N3  UNL     1      20.560   4.478  51.063  1.00  0.00    -0.239 NA
HETATM   15  C10 UNL     1      21.421   3.756  51.800  1.00  0.00     0.093 A 
HETATM   16  C11 UNL     1      22.715   4.168  51.893  1.00  0.00     0.037 A 
HETATM   17  C23 UNL     1      20.746   2.733  52.273  1.00  0.00     0.167 C 
HETATM   18  C12 UNL     1      23.688   3.593  52.576  1.00  0.00    -0.007 C 
HETATM   19  C13 UNL     1      23.656   2.371  53.406  1.00  0.00     0.063 C 
HETATM   20  C14 UNL     1      23.728   1.105  52.598  1.00  0.00     0.226 C 
HETATM   21  N5  UNL     1      23.345  -0.046  53.348  1.00  0.00     0.094 N 
HETATM   22  C20 UNL     1      21.983  -0.413  53.379  1.00  0.00     0.241 C 
HETATM   23  H21 UNL     1      23.673   0.028  54.349  1.00  0.00     0.317 HD
HETATM   24  C21 UNL     1      21.839  -1.576  54.364  1.00  0.00     0.045 C 
HETATM   25  C22 UNL     1      20.966   0.624  53.746  1.00  0.00     0.209 C 
HETATM   26  O1  UNL     1      20.862   1.690  52.994  1.00  0.00    -0.359 OA
BRANCH  20  27
HETATM   27  C15 UNL     1      25.103   0.967  51.921  1.00  0.00     0.066 C 
BRANCH  27  28
HETATM   28  C16 UNL     1      25.977   0.229  52.888  1.00  0.00     0.274 C 
BRANCH  28  29
HETATM   29  N4  UNL     1      27.379   0.367  52.667  1.00  0.00     0.088 N 
HETATM   30  C17 UNL     1      28.264  -0.586  53.265  1.00  0.00     0.274 C 
HETATM   31  C18 UNL     1      29.132   0.580  53.693  1.00  0.00     0.060 C 
HETATM   32  C19 UNL     1      28.035   1.513  53.203  1.00  0.00     0.274 C 
ENDBRANCH  28  29
ENDBRANCH  27  28
ENDBRANCH  20  27
ENDBRANCH   9  11
ENDBRANCH   7   9
TORSDOF 5
ENDMDL
MODEL 2
REMARK VINA RESULT:      -9.0      1.717      1.798
REMARK  5 active torsions:
REMARK  status: ('A' for Active; 'I' for Inactive)
REMARK    1  A    between atoms: C7_7  and  N1_8 
REMARK    2  A    between atoms: N1_8  and  C8_9 
REMARK    3  A    between atoms: C14_17  and  C15_18 
REMARK    4  A    between atoms: C15_18  and  C16_19 
REMARK    5  A    between atoms: C16_19  and  N4_20 
ROOT
HETATM    1  C1  UNL     1      27.900   9.324  47.333  1.00  0.00     0.018 C 
HETATM    2  C2  UNL     1      27.576   8.239  47.744  1.00  0.00    -0.078 C 
HETATM    3  C3  UNL     1      27.205   6.952  48.253  1.00  0.00     0.019 A 
HETATM    4  C4  UNL     1      28.170   5.971  48.207  1.00  0.00     0.021 A 
HETATM    5  C5  UNL     1      27.868   4.729  48.680  1.00  0.00     0.004 A 
HETATM    6  C6  UNL     1      26.620   4.507  49.181  1.00  0.00     0.029 A 
HETATM    7  C7  UNL     1      25.571   5.420  49.278  1.00  0.00     0.035 A 
HETATM    8  C24 UNL     1      25.963   6.661  48.773  1.00  0.00     0.050 A 
ENDROOT
BRANCH   7   9
HETATM    9  N1  UNL     1      24.302   5.167  49.816  1.00  0.00    -0.340 N 
HETATM   10  H5  UNL     1      24.121   5.987  50.470  1.00  0.00     0.167 HD
BRANCH   9  11
HETATM   11  C8  UNL     1      23.493   4.033  49.503  1.00  0.00     0.141 A 
HETATM   12  N2  UNL     1      23.151   4.007  48.212  1.00  0.00    -0.224 NA
HETATM   13  C9  UNL     1      22.393   3.017  47.738  1.00  0.00     0.236 A 
HETATM   14  N3  UNL     1      22.019   2.088  48.620  1.00  0.00    -0.239 NA
HETATM   15  C10 UNL     1      22.341   2.077  49.925  1.00  0.00     0.093 A 
HETATM   16  C11 UNL     1      23.112   3.082  50.422  1.00  0.00     0.037 A 
HETATM   17  C23 UNL     1      21.801   0.994  50.437  1.00  0.00     0.167 C 
HETATM   18  C12 UNL     1      23.513   3.237  51.671  1.00  0.00    -0.007 C 
HETATM   19  C13 UNL     1      23.254   2.386  52.852  1.00  0.00     0.063 C 
HETATM   20  C14 UNL     1      24.142   1.174  52.913  1.00  0.00     0.226 C 
HETATM   21  N5  UNL     1      23.664   0.192  53.831  1.00  0.00     0.094 N 
HETATM   22  C20 UNL     1      22.752  -0.781  53.369  1.00  0.00     0.241 C 
HETATM   23  H21 UNL     1      23.234   0.646  54.682  1.00  0.00     0.317 HD
HETATM   24  C21 UNL     1      22.297  -1.601  54.580  1.00  0.00     0.045 C 
HETATM   25  C22 UNL     1      21.525  -0.328  52.638  1.00  0.00     0.209 C 
HETATM   26  O1  UNL     1      21.674   0.342  51.524  1.00  0.00    -0.359 OA
BRANCH  20  27
HETATM   27  C15 UNL     1      25.605   1.581  53.157  1.00  0.00     0.066 C 
BRANCH  27  28
HETATM   28  C16 UNL     1      26.308   0.353  53.649  1.00  0.00     0.274 C 
BRANCH  28  29
HETATM   29  N4  UNL     1      27.721   0.340  53.449  1.00  0.00     0.088 N 
HETATM   30  C17 UNL     1      28.350  -0.892  53.085  1.00  0.00     0.274 C 
HETATM   31  C18 UNL     1      29.408  -0.589  54.125  1.00  0.00     0.060 C 
HETATM   32  C19 UNL     1      28.562   0.592  54.572  1.00  0.00     0.274 C 
ENDBRANCH  28  29
ENDBRANCH  27  28
ENDBRANCH  20  27
ENDBRANCH   9  11
ENDBRANCH   7   9
TORSDOF 5
ENDMDL
MODEL 3
REMARK VINA RESULT:      -9.0      2.302      5.871
REMARK  5 active torsions:
REMARK  status: ('A' for Active; 'I' for Inactive)
REMARK    1  A    between atoms: C7_7  and  N1_8 
REMARK    2  A    between atoms: N1_8  and  C8_9 
REMARK    3  A    between atoms: C14_17  and  C15_18 
REMARK    4  A    between atoms: C15_18  and  C16_19 
REMARK    5  A    between atoms: C16_19  and  N4_20 
ROOT
HETATM    1  C1  UNL     1      28.676  -2.788  53.033  1.00  0.00     0.018 C 
HETATM    2  C2  UNL     1      28.546  -1.604  53.210  1.00  0.00    -0.078 C 
HETATM    3  C3  UNL     1      28.404  -0.190  53.400  1.00  0.00     0.019 A 
HETATM    4  C4  UNL     1      29.515   0.482  53.858  1.00  0.00     0.021 A 
HETATM    5  C5  UNL     1      29.433   1.828  54.055  1.00  0.00     0.004 A 
HETATM    6  C6  UNL     1      28.253   2.456  53.790  1.00  0.00     0.029 A 
HETATM    7  C7  UNL     1      27.072   1.879  53.325  1.00  0.00     0.035 A 
HETATM    8  C24 UNL     1      27.242   0.505  53.151  1.00  0.00     0.050 A 
ENDROOT
BRANCH   7   9
HETATM    9  N1  UNL     1      25.877   2.556  53.043  1.00  0.00    -0.340 N 
HETATM   10  H5  UNL     1      25.394   2.648  53.987  1.00  0.00     0.167 HD
BRANCH   9  11
HETATM   11  C8  UNL     1      25.472   2.994  51.746  1.00  0.00     0.141 A 
HETATM   12  N2  UNL     1      26.465   2.901  50.857  1.00  0.00    -0.224 NA
HETATM   13  C9  UNL     1      26.268   3.268  49.590  1.00  0.00     0.236 A 
HETATM   14  N3  UNL     1      25.046   3.716  49.290  1.00  0.00    -0.239 NA
HETATM   15  C10 UNL     1      24.021   3.825  50.153  1.00  0.00     0.093 A 
HETATM   16  C11 UNL     1      24.210   3.455  51.449  1.00  0.00     0.037 A 
HETATM   17  C23 UNL     1      22.998   4.282  49.467  1.00  0.00     0.167 C 
HETATM   18  C12 UNL     1      23.326   3.505  52.429  1.00  0.00    -0.007 C 
HETATM   19  C13 UNL     1      21.918   3.955  52.401  1.00  0.00     0.063 C 
HETATM   20  C14 UNL     1      20.977   2.917  51.854  1.00  0.00     0.226 C 
HETATM   21  N5  UNL     1      19.707   3.463  51.499  1.00  0.00     0.094 N 
HETATM   22  C20 UNL     1      19.531   3.980  50.199  1.00  0.00     0.241 C 
HETATM   23  H21 UNL     1      19.416   4.217  52.180  1.00  0.00     0.317 HD
HETATM   24  C21 UNL     1      18.144   4.627  50.143  1.00  0.00     0.045 C 
HETATM   25  C22 UNL     1      20.521   4.977  49.680  1.00  0.00     0.209 C 
HETATM   26  O1  UNL     1      21.774   4.617  49.576  1.00  0.00    -0.359 OA
BRANCH  20  27
HETATM   27  C15 UNL     1      20.883   1.711  52.803  1.00  0.00     0.066 C 
BRANCH  27  28
HETATM   28  C16 UNL     1      21.201   0.500  51.980  1.00  0.00     0.274 C 
BRANCH  28  29
HETATM   29  N4  UNL     1      21.965  -0.503  52.645  1.00  0.00     0.088 N 
HETATM   30  C17 UNL     1      21.433  -1.093  53.835  1.00  0.00     0.274 C 
HETATM   31  C18 UNL     1      22.801  -0.915  54.462  1.00  0.00     0.060 C 
HETATM   32  C19 UNL     1      23.210  -0.126  53.228  1.00  0.00     0.274 C 
ENDBRANCH  28  29
ENDBRANCH  27  28
ENDBRANCH  20  27
ENDBRANCH   9  11
ENDBRANCH   7   9
TORSDOF 5
ENDMDL
MODEL 4
REMARK VINA RESULT:      -8.8      2.480      6.070
REMARK  5 active torsions:
REMARK  status: ('A' for Active; 'I' for Inactive)
REMARK    1  A    between atoms: C7_7  and  N1_8 
REMARK    2  A    between atoms: N1_8  and  C8_9 
REMARK    3  A    between atoms: C14_17  and  C15_18 
REMARK    4  A    between atoms: C15_18  and  C16_19 
REMARK    5  A    between atoms: C16_19  and  N4_20 
ROOT
HETATM    1  C1  UNL     1      19.501   5.256  47.963  1.00  0.00     0.018 C 
HETATM    2  C2  UNL     1      19.925   4.263  48.495  1.00  0.00    -0.078 C 
HETATM    3  C3  UNL     1      20.453   3.087  49.123  1.00  0.00     0.019 A 
HETATM    4  C4  UNL     1      20.953   2.116  48.287  1.00  0.00     0.021 A 
HETATM    5  C5  UNL     1      21.467   0.979  48.834  1.00  0.00     0.004 A 
HETATM    6  C6  UNL     1      21.466   0.849  50.190  1.00  0.00     0.029 A 
HETATM    7  C7  UNL     1      20.989   1.763  51.129  1.00  0.00     0.035 A 
HETATM    8  C24 UNL     1      20.482   2.894  50.487  1.00  0.00     0.050 A 
ENDROOT
BRANCH   7   9
HETATM    9  N1  UNL     1      21.019   1.609  52.522  1.00  0.00    -0.340 N 
HETATM   10  H5  UNL     1      20.411   2.401  52.890  1.00  0.00     0.167 HD
BRANCH   9  11
HETATM   11  C8  UNL     1      21.732   0.585  53.216  1.00  0.00     0.141 A 
HETATM   12  N2  UNL     1      20.931  -0.422  53.577  1.00  0.00    -0.224 NA
HETATM   13  C9  UNL     1      21.426  -1.469  54.238  1.00  0.00     0.236 A 
HETATM   14  N3  UNL     1      22.735  -1.436  54.498  1.00  0.00    -0.239 NA
HETATM   15  C10 UNL     1      23.574  -0.445  54.152  1.00  0.00     0.093 A 
HETATM   16  C11 UNL     1      23.082   0.631  53.479  1.00  0.00     0.037 A 
HETATM   17  C23 UNL     1      24.769  -0.800  54.569  1.00  0.00     0.167 C 
HETATM   18  C12 UNL     1      23.753   1.694  53.073  1.00  0.00    -0.007 C 
HETATM   19  C13 UNL     1      25.190   2.008  53.221  1.00  0.00     0.063 C 
HETATM   20  C14 UNL     1      26.056   1.307  52.213  1.00  0.00     0.226 C 
HETATM   21  N5  UNL     1      27.437   1.325  52.570  1.00  0.00     0.094 N 
HETATM   22  C20 UNL     1      27.940   0.290  53.385  1.00  0.00     0.241 C 
HETATM   23  H21 UNL     1      27.697   2.241  53.028  1.00  0.00     0.317 HD
HETATM   24  C21 UNL     1      29.392   0.638  53.730  1.00  0.00     0.045 C 
HETATM   25  C22 UNL     1      27.231  -0.028  54.665  1.00  0.00     0.209 C 
HETATM   26  O1  UNL     1      25.984  -0.418  54.607  1.00  0.00    -0.359 OA
BRANCH  20  27
HETATM   27  C15 UNL     1      25.781   1.836  50.795  1.00  0.00     0.066 C 
BRANCH  27  28
HETATM   28  C16 UNL     1      26.298   3.242  50.762  1.00  0.00     0.274 C 
BRANCH  28  29
HETATM   29  N4  UNL     1      25.489   4.170  50.042  1.00  0.00     0.088 N 
HETATM   30  C17 UNL     1      24.750   5.149  50.778  1.00  0.00     0.274 C 
HETATM   31  C18 UNL     1      23.557   4.816  49.906  1.00  0.00     0.060 C 
HETATM   32  C19 UNL     1      24.366   3.667  49.322  1.00  0.00     0.274 C 
ENDBRANCH  28  29
ENDBRANCH  27  28
ENDBRANCH  20  27
ENDBRANCH   9  11
ENDBRANCH   7   9
TORSDOF 5
ENDMDL
MODEL 5
REMARK VINA RESULT:      -8.5      2.278      7.482
REMARK  5 active torsions:
REMARK  status: ('A' for Active; 'I' for Inactive)
REMARK    1  A    between atoms: C7_7  and  N1_8 
REMARK    2  A    between atoms: N1_8  and  C8_9 
REMARK    3  A    between atoms: C14_17  and  C15_18 
REMARK    4  A    between atoms: C15_18  and  C16_19 
REMARK    5  A    between atoms: C16_19  and  N4_20 
ROOT
HETATM    1  C1  UNL     1      19.011   0.546  50.944  1.00  0.00     0.018 C 
HETATM    2  C2  UNL     1      19.826   0.232  51.774  1.00  0.00    -0.078 C 
HETATM    3  C3  UNL     1      20.800  -0.161  52.748  1.00  0.00     0.019 A 
HETATM    4  C4  UNL     1      20.460  -1.214  53.567  1.00  0.00     0.021 A 
HETATM    5  C5  UNL     1      21.352  -1.627  54.510  1.00  0.00     0.004 A 
HETATM    6  C6  UNL     1      22.549  -0.982  54.605  1.00  0.00     0.029 A 
HETATM    7  C7  UNL     1      22.997   0.088  53.832  1.00  0.00     0.035 A 
HETATM    8  C24 UNL     1      22.027   0.448  52.895  1.00  0.00     0.050 A 
ENDROOT
BRANCH   7   9
HETATM    9  N1  UNL     1      24.244   0.720  53.940  1.00  0.00    -0.340 N 
HETATM   10  H5  UNL     1      24.473   0.680  54.979  1.00  0.00     0.167 HD
BRANCH   9  11
HETATM   11  C8  UNL     1      24.979   1.270  52.848  1.00  0.00     0.141 A 
HETATM   12  N2  UNL     1      25.824   0.380  52.318  1.00  0.00    -0.224 NA
HETATM   13  C9  UNL     1      26.596   0.718  51.285  1.00  0.00     0.236 A 
HETATM   14  N3  UNL     1      26.463   1.969  50.836  1.00  0.00    -0.239 NA
HETATM   15  C10 UNL     1      25.627   2.893  51.338  1.00  0.00     0.093 A 
HETATM   16  C11 UNL     1      24.835   2.561  52.394  1.00  0.00     0.037 A 
HETATM   17  C23 UNL     1      25.782   3.976  50.610  1.00  0.00     0.167 C 
HETATM   18  C12 UNL     1      23.969   3.339  53.018  1.00  0.00    -0.007 C 
HETATM   19  C13 UNL     1      23.616   4.750  52.754  1.00  0.00     0.063 C 
HETATM   20  C14 UNL     1      22.656   4.916  51.609  1.00  0.00     0.226 C 
HETATM   21  N5  UNL     1      22.597   6.260  51.134  1.00  0.00     0.094 N 
HETATM   22  C20 UNL     1      23.505   6.667  50.134  1.00  0.00     0.241 C 
HETATM   23  H21 UNL     1      22.679   6.947  51.932  1.00  0.00     0.317 HD
HETATM   24  C21 UNL     1      23.319   8.173  49.926  1.00  0.00     0.045 C 
HETATM   25  C22 UNL     1      24.966   6.411  50.341  1.00  0.00     0.209 C 
HETATM   26  O1  UNL     1      25.371   5.175  50.477  1.00  0.00    -0.359 OA
BRANCH  20  27
HETATM   27  C15 UNL     1      21.279   4.327  51.961  1.00  0.00     0.066 C 
BRANCH  27  28
HETATM   28  C16 UNL     1      20.803   3.606  50.738  1.00  0.00     0.274 C 
BRANCH  28  29
HETATM   29  N4  UNL     1      21.814   3.306  49.777  1.00  0.00     0.088 N 
HETATM   30  C17 UNL     1      21.497   3.432  48.387  1.00  0.00     0.274 C 
HETATM   31  C18 UNL     1      22.167   2.091  48.175  1.00  0.00     0.060 C 
HETATM   32  C19 UNL     1      22.279   1.962  49.686  1.00  0.00     0.274 C 
ENDBRANCH  28  29
ENDBRANCH  27  28
ENDBRANCH  20  27
ENDBRANCH   9  11
ENDBRANCH   7   9
TORSDOF 5
ENDMDL
MODEL 6
REMARK VINA RESULT:      -8.2      1.836      5.011
REMARK  5 active torsions:
REMARK  status: ('A' for Active; 'I' for Inactive)
REMARK    1  A    between atoms: C7_7  and  N1_8 
REMARK    2  A    between atoms: N1_8  and  C8_9 
REMARK    3  A    between atoms: C14_17  and  C15_18 
REMARK    4  A    between atoms: C15_18  and  C16_19 
REMARK    5  A    between atoms: C16_19  and  N4_20 
ROOT
HETATM    1  C1  UNL     1      29.673   7.357  47.208  1.00  0.00     0.018 C 
HETATM    2  C2  UNL     1      28.721   6.991  47.848  1.00  0.00    -0.078 C 
HETATM    3  C3  UNL     1      27.574   6.562  48.592  1.00  0.00     0.019 A 
HETATM    4  C4  UNL     1      26.809   7.552  49.166  1.00  0.00     0.021 A 
HETATM    5  C5  UNL     1      25.706   7.197  49.883  1.00  0.00     0.004 A 
HETATM    6  C6  UNL     1      25.403   5.875  50.004  1.00  0.00     0.029 A 
HETATM    7  C7  UNL     1      26.101   4.793  49.468  1.00  0.00     0.035 A 
HETATM    8  C24 UNL     1      27.211   5.243  48.752  1.00  0.00     0.050 A 
ENDROOT
BRANCH   7   9
HETATM    9  N1  UNL     1      25.753   3.441  49.593  1.00  0.00    -0.340 N 
HETATM   10  H5  UNL     1      25.354   3.179  48.643  1.00  0.00     0.167 HD
BRANCH   9  11
HETATM   11  C8  UNL     1      25.931   2.658  50.773  1.00  0.00     0.141 A 
HETATM   12  N2  UNL     1      27.166   2.776  51.268  1.00  0.00    -0.224 NA
HETATM   13  C9  UNL     1      27.514   2.113  52.372  1.00  0.00     0.236 A 
HETATM   14  N3  UNL     1      26.567   1.352  52.925  1.00  0.00    -0.239 NA
HETATM   15  C10 UNL     1      25.314   1.206  52.460  1.00  0.00     0.093 A 
HETATM   16  C11 UNL     1      24.947   1.876  51.334  1.00  0.00     0.037 A 
HETATM   17  C23 UNL     1      24.696   0.398  53.292  1.00  0.00     0.167 C 
HETATM   18  C12 UNL     1      23.770   1.843  50.733  1.00  0.00    -0.007 C 
HETATM   19  C13 UNL     1      22.549   1.097  51.104  1.00  0.00     0.063 C 
HETATM   20  C14 UNL     1      21.762   1.759  52.201  1.00  0.00     0.226 C 
HETATM   21  N5  UNL     1      20.804   0.883  52.792  1.00  0.00     0.094 N 
HETATM   22  C20 UNL     1      21.203   0.074  53.877  1.00  0.00     0.241 C 
HETATM   23  H21 UNL     1      20.374   0.246  52.066  1.00  0.00     0.317 HD
HETATM   24  C21 UNL     1      20.036  -0.861  54.210  1.00  0.00     0.045 C 
HETATM   25  C22 UNL     1      22.434  -0.767  53.734  1.00  0.00     0.209 C 
HETATM   26  O1  UNL     1      23.575  -0.168  53.509  1.00  0.00    -0.359 OA
BRANCH  20  27
HETATM   27  C15 UNL     1      21.161   3.089  51.715  1.00  0.00     0.066 C 
BRANCH  27  28
HETATM   28  C16 UNL     1      20.059   2.732  50.765  1.00  0.00     0.274 C 
BRANCH  28  29
HETATM   29  N4  UNL     1      20.034   3.484  49.553  1.00  0.00     0.088 N 
HETATM   30  C17 UNL     1      21.264   4.021  49.055  1.00  0.00     0.274 C 
HETATM   31  C18 UNL     1      20.529   5.324  48.820  1.00  0.00     0.060 C 
HETATM   32  C19 UNL     1      19.334   4.726  49.546  1.00  0.00     0.274 C 
ENDBRANCH  28  29
ENDBRANCH  27  28
ENDBRANCH  20  27
ENDBRANCH   9  11
ENDBRANCH   7   9
TORSDOF 5
ENDMDL
MODEL 7
REMARK VINA RESULT:      -8.1      2.722      6.821
REMARK  5 active torsions:
REMARK  status: ('A' for Active; 'I' for Inactive)
REMARK    1  A    between atoms: C7_7  and  N1_8 
REMARK    2  A    between atoms: N1_8  and  C8_9 
REMARK    3  A    between atoms: C14_17  and  C15_18 
REMARK    4  A    between atoms: C15_18  and  C16_19 
REMARK    5  A    between atoms: C16_19  and  N4_20 
ROOT
HETATM    1  C1  UNL     1      28.717  -2.760  53.078  1.00  0.00     0.018 C 
HETATM    2  C2  UNL     1      28.506  -1.577  53.159  1.00  0.00    -0.078 C 
HETATM    3  C3  UNL     1      28.271  -0.165  53.239  1.00  0.00     0.019 A 
HETATM    4  C4  UNL     1      29.238   0.583  53.871  1.00  0.00     0.021 A 
HETATM    5  C5  UNL     1      29.064   1.931  53.973  1.00  0.00     0.004 A 
HETATM    6  C6  UNL     1      27.937   2.485  53.444  1.00  0.00     0.029 A 
HETATM    7  C7  UNL     1      26.899   1.828  52.785  1.00  0.00     0.035 A 
HETATM    8  C24 UNL     1      27.156   0.458  52.725  1.00  0.00     0.050 A 
ENDROOT
BRANCH   7   9
HETATM    9  N1  UNL     1      25.759   2.430  52.234  1.00  0.00    -0.340 N 
HETATM   10  H5  UNL     1      24.952   2.057  52.818  1.00  0.00     0.167 HD
BRANCH   9  11
HETATM   11  C8  UNL     1      25.765   3.335  51.130  1.00  0.00     0.141 A 
HETATM   12  N2  UNL     1      26.829   3.153  50.343  1.00  0.00    -0.224 NA
HETATM   13  C9  UNL     1      27.001   3.913  49.260  1.00  0.00     0.236 A 
HETATM   14  N3  UNL     1      26.061   4.833  49.031  1.00  0.00    -0.239 NA
HETATM   15  C10 UNL     1      24.977   5.047  49.796  1.00  0.00     0.093 A 
HETATM   16  C11 UNL     1      24.790   4.280  50.905  1.00  0.00     0.037 A 
HETATM   17  C23 UNL     1      24.297   6.015  49.223  1.00  0.00     0.167 C 
HETATM   18  C12 UNL     1      23.796   4.358  51.771  1.00  0.00    -0.007 C 
HETATM   19  C13 UNL     1      22.631   5.268  51.782  1.00  0.00     0.063 C 
HETATM   20  C14 UNL     1      21.536   4.838  50.846  1.00  0.00     0.226 C 
HETATM   21  N5  UNL     1      20.592   5.877  50.594  1.00  0.00     0.094 N 
HETATM   22  C20 UNL     1      20.836   6.773  49.532  1.00  0.00     0.241 C 
HETATM   23  H21 UNL     1      20.426   6.457  51.462  1.00  0.00     0.317 HD
HETATM   24  C21 UNL     1      19.758   7.859  49.585  1.00  0.00     0.045 C 
HETATM   25  C22 UNL     1      22.167   7.456  49.458  1.00  0.00     0.209 C 
HETATM   26  O1  UNL     1      23.241   6.718  49.339  1.00  0.00    -0.359 OA
BRANCH  20  27
HETATM   27  C15 UNL     1      20.891   3.526  51.326  1.00  0.00     0.066 C 
BRANCH  27  28
HETATM   28  C16 UNL     1      20.056   3.025  50.188  1.00  0.00     0.274 C 
BRANCH  28  29
HETATM   29  N4  UNL     1      20.689   2.059  49.350  1.00  0.00     0.088 N 
HETATM   30  C17 UNL     1      22.076   1.777  49.556  1.00  0.00     0.274 C 
HETATM   31  C18 UNL     1      22.256   1.868  48.055  1.00  0.00     0.060 C 
HETATM   32  C19 UNL     1      20.818   2.354  47.961  1.00  0.00     0.274 C 
ENDBRANCH  28  29
ENDBRANCH  27  28
ENDBRANCH  20  27
ENDBRANCH   9  11
ENDBRANCH   7   9
TORSDOF 5
ENDMDL
MODEL 8
REMARK VINA RESULT:      -7.9      4.125      8.748
REMARK  5 active torsions:
REMARK  status: ('A' for Active; 'I' for Inactive)
REMARK    1  A    between atoms: C7_7  and  N1_8 
REMARK    2  A    between atoms: N1_8  and  C8_9 
REMARK    3  A    between atoms: C14_17  and  C15_18 
REMARK    4  A    between atoms: C15_18  and  C16_19 
REMARK    5  A    between atoms: C16_19  and  N4_20 
ROOT
HETATM    1  C1  UNL     1      27.482  -0.378  53.172  1.00  0.00     0.018 C 
HETATM    2  C2  UNL     1      26.817   0.385  52.520  1.00  0.00    -0.078 C 
HETATM    3  C3  UNL     1      26.020   1.305  51.763  1.00  0.00     0.019 A 
HETATM    4  C4  UNL     1      24.655   1.156  51.858  1.00  0.00     0.021 A 
HETATM    5  C5  UNL     1      23.851   2.007  51.159  1.00  0.00     0.004 A 
HETATM    6  C6  UNL     1      24.432   2.972  50.393  1.00  0.00     0.029 A 
HETATM    7  C7  UNL     1      25.794   3.214  50.224  1.00  0.00     0.035 A 
HETATM    8  C24 UNL     1      26.543   2.303  50.971  1.00  0.00     0.050 A 
ENDROOT
BRANCH   7   9
HETATM    9  N1  UNL     1      26.362   4.230  49.442  1.00  0.00    -0.340 N 
HETATM   10  H5  UNL     1      26.989   3.715  48.753  1.00  0.00     0.167 HD
BRANCH   9  11
HETATM   11  C8  UNL     1      26.104   5.624  49.600  1.00  0.00     0.141 A 
HETATM   12  N2  UNL     1      25.071   5.850  50.418  1.00  0.00    -0.224 NA
HETATM   13  C9  UNL     1      24.684   7.098  50.682  1.00  0.00     0.236 A 
HETATM   14  N3  UNL     1      25.384   8.070  50.091  1.00  0.00    -0.239 NA
HETATM   15  C10 UNL     1      26.428   7.886  49.264  1.00  0.00     0.093 A 
HETATM   16  C11 UNL     1      26.832   6.617  48.985  1.00  0.00     0.037 A 
HETATM   17  C23 UNL     1      26.848   9.082  48.917  1.00  0.00     0.167 C 
HETATM   18  C12 UNL     1      27.823   6.251  48.191  1.00  0.00    -0.007 C 
HETATM   19  C13 UNL     1      28.755   7.090  47.409  1.00  0.00     0.063 C 
HETATM   20  C14 UNL     1      29.874   7.660  48.235  1.00  0.00     0.226 C 
HETATM   21  N5  UNL     1      30.551   8.730  47.577  1.00  0.00     0.094 N 
HETATM   22  C20 UNL     1      30.064  10.043  47.742  1.00  0.00     0.241 C 
HETATM   23  H21 UNL     1      30.624   8.549  46.538  1.00  0.00     0.317 HD
HETATM   24  C21 UNL     1      30.875  10.957  46.818  1.00  0.00     0.045 C 
HETATM   25  C22 UNL     1      28.612  10.311  47.487  1.00  0.00     0.209 C 
HETATM   26  O1  UNL     1      27.725   9.683  48.216  1.00  0.00    -0.359 OA
BRANCH  20  27
HETATM   27  C15 UNL     1      30.816   6.545  48.722  1.00  0.00     0.066 C 
BRANCH  27  28
HETATM   28  C16 UNL     1      32.125   7.205  49.031  1.00  0.00     0.274 C 
BRANCH  28  29
HETATM   29  N4  UNL     1      33.235   6.740  48.266  1.00  0.00     0.088 N 
HETATM   30  C17 UNL     1      33.674   5.390  48.445  1.00  0.00     0.274 C 
HETATM   31  C18 UNL     1      35.091   5.922  48.500  1.00  0.00     0.060 C 
HETATM   32  C19 UNL     1      34.512   7.328  48.505  1.00  0.00     0.274 C 
ENDBRANCH  28  29
ENDBRANCH  27  28
ENDBRANCH  20  27
ENDBRANCH   9  11
ENDBRANCH   7   9
TORSDOF 5
ENDMDL
MODEL 9
REMARK VINA RESULT:      -7.9      2.555      6.652
REMARK  5 active torsions:
REMARK  status: ('A' for Active; 'I' for Inactive)
REMARK    1  A    between atoms: C7_7  and  N1_8 
REMARK    2  A    between atoms: N1_8  and  C8_9 
REMARK    3  A    between atoms: C14_17  and  C15_18 
REMARK    4  A    between atoms: C15_18  and  C16_19 
REMARK    5  A    between atoms: C16_19  and  N4_20 
ROOT
HETATM    1  C1  UNL     1      28.662   0.024  54.902  1.00  0.00     0.018 C 
HETATM    2  C2  UNL     1      27.582   0.323  54.461  1.00  0.00    -0.078 C 
HETATM    3  C3  UNL     1      26.287   0.676  53.959  1.00  0.00     0.019 A 
HETATM    4  C4  UNL     1      25.365  -0.342  53.868  1.00  0.00     0.021 A 
HETATM    5  C5  UNL     1      24.118  -0.058  53.397  1.00  0.00     0.004 A 
HETATM    6  C6  UNL     1      23.833   1.225  53.036  1.00  0.00     0.029 A 
HETATM    7  C7  UNL     1      24.683   2.328  53.086  1.00  0.00     0.035 A 
HETATM    8  C24 UNL     1      25.934   1.952  53.577  1.00  0.00     0.050 A 
ENDROOT
BRANCH   7   9
HETATM    9  N1  UNL     1      24.355   3.642  52.723  1.00  0.00    -0.340 N 
HETATM   10  H5  UNL     1      24.426   4.194  53.630  1.00  0.00     0.167 HD
BRANCH   9  11
HETATM   11  C8  UNL     1      24.013   4.064  51.403  1.00  0.00     0.141 A 
HETATM   12  N2  UNL     1      25.095   4.229  50.638  1.00  0.00    -0.224 NA
HETATM   13  C9  UNL     1      24.967   4.623  49.370  1.00  0.00     0.236 A 
HETATM   14  N3  UNL     1      23.720   4.829  48.940  1.00  0.00    -0.239 NA
HETATM   15  C10 UNL     1      22.606   4.674  49.677  1.00  0.00     0.093 A 
HETATM   16  C11 UNL     1      22.723   4.275  50.972  1.00  0.00     0.037 A 
HETATM   17  C23 UNL     1      21.592   4.953  48.888  1.00  0.00     0.167 C 
HETATM   18  C12 UNL     1      21.745   4.084  51.840  1.00  0.00    -0.007 C 
HETATM   19  C13 UNL     1      20.286   4.238  51.657  1.00  0.00     0.063 C 
HETATM   20  C14 UNL     1      19.650   3.065  50.965  1.00  0.00     0.226 C 
HETATM   21  N5  UNL     1      18.342   3.360  50.478  1.00  0.00     0.094 N 
HETATM   22  C20 UNL     1      18.206   3.906  49.185  1.00  0.00     0.241 C 
HETATM   23  H21 UNL     1      17.825   3.996  51.145  1.00  0.00     0.317 HD
HETATM   24  C21 UNL     1      16.729   4.259  48.985  1.00  0.00     0.045 C 
HETATM   25  C22 UNL     1      19.016   5.114  48.825  1.00  0.00     0.209 C 
HETATM   26  O1  UNL     1      20.321   5.024  48.860  1.00  0.00    -0.359 OA
BRANCH  20  27
HETATM   27  C15 UNL     1      19.707   1.810  51.853  1.00  0.00     0.066 C 
BRANCH  27  28
HETATM   28  C16 UNL     1      19.452   0.642  50.949  1.00  0.00     0.274 C 
BRANCH  28  29
HETATM   29  N4  UNL     1      18.784  -0.462  51.557  1.00  0.00     0.088 N 
HETATM   30  C17 UNL     1      17.354  -0.492  51.537  1.00  0.00     0.274 C 
HETATM   31  C18 UNL     1      17.402  -0.878  53.001  1.00  0.00     0.060 C 
HETATM   32  C19 UNL     1      18.901  -0.626  52.969  1.00  0.00     0.274 C 
ENDBRANCH  28  29
ENDBRANCH  27  28
ENDBRANCH  20  27
ENDBRANCH   9  11
ENDBRANCH   7   9
TORSDOF 5
ENDMDL
