MODEL 1
REMARK VINA RESULT:      -7.3      0.000      0.000
REMARK  5 active torsions:
REMARK  status: ('A' for Active; 'I' for Inactive)
REMARK    1  A    between atoms: O1_2  and  C2_3 
REMARK    2  A    between atoms: C9_12  and  O2_13 
REMARK    3  A    between atoms: O2_13  and  C10_14 
REMARK    4  A    between atoms: C10_14  and  C11_15 
REMARK    5  A    between atoms: C12_16  and  C13_17 
REMARK       I    between atoms: N4_23  and  C17_24 
ROOT
HETATM    1  C2  UNL     1      33.629   4.951  46.151  1.00  0.00     0.138 A 
HETATM    2  C3  UNL     1      34.258   6.140  46.220  1.00  0.00     0.075 A 
HETATM    3  C4  UNL     1      34.669   5.350  47.255  1.00  0.00     0.092 A 
HETATM    4  C5  UNL     1      34.993   4.459  48.235  1.00  0.00     0.010 A 
HETATM    5  C6  UNL     1      34.218   3.295  47.946  1.00  0.00     0.026 A 
HETATM    6  C7  UNL     1      33.552   3.760  46.805  1.00  0.00     0.045 A 
HETATM    7  N1  UNL     1      32.602   2.755  46.761  1.00  0.00    -0.364 N 
HETATM    8  C8  UNL     1      31.353   3.518  46.815  1.00  0.00     0.344 C 
HETATM    9  N2  UNL     1      31.135   4.591  47.575  1.00  0.00    -0.407 NA
HETATM   10  C9  UNL     1      30.992   5.613  48.255  1.00  0.00     0.213 C 
HETATM   11  C14 UNL     1      32.028   6.537  48.110  1.00  0.00     0.195 C 
HETATM   12  C15 UNL     1      33.315   6.157  48.880  1.00  0.00     0.154 C 
HETATM   13  N3  UNL     1      34.148   6.681  47.817  1.00  0.00    -0.379 N 
HETATM   14  C16 UNL     1      33.694   8.053  48.259  1.00  0.00     0.248 C 
HETATM   15  N4  UNL     1      32.201   7.915  48.455  1.00  0.00    -0.321 N 
HETATM   16  C17 UNL     1      31.102   8.702  48.803  1.00  0.00     0.217 C 
HETATM   17  C18 UNL     1      30.988  10.148  49.114  1.00  0.00     0.117 C 
HETATM   18  O3  UNL     1      29.880   8.327  48.930  1.00  0.00    -0.274 OA
HETATM   19  H7  UNL     1      32.692   1.726  46.697  1.00  0.00     0.162 HD
ENDROOT
BRANCH  10  20
HETATM   20  O2  UNL     1      29.800   5.081  48.729  1.00  0.00    -0.323 OA
BRANCH  20  21
HETATM   21  C10 UNL     1      28.567   5.546  48.282  1.00  0.00     0.205 C 
BRANCH  21  22
HETATM   22  C11 UNL     1      27.406   4.747  48.707  1.00  0.00    -0.004 C 
HETATM   23  C12 UNL     1      26.251   5.041  49.238  1.00  0.00    -0.018 C 
BRANCH  23  24
HETATM   24  C13 UNL     1      25.481   6.232  49.685  1.00  0.00     0.112 C 
HETATM   25 BR1  UNL     1      25.122   7.291  48.080  1.00  0.00    -0.092 Br
ENDBRANCH  23  24
ENDBRANCH  21  22
ENDBRANCH  20  21
ENDBRANCH  10  20
BRANCH   1  26
HETATM   26  O1  UNL     1      32.722   4.750  45.083  1.00  0.00    -0.375 OA
HETATM   27  C1  UNL     1      33.174   5.044  43.788  1.00  0.00     0.203 C 
ENDBRANCH   1  26
TORSDOF 5
ENDMDL
MODEL 2
REMARK VINA RESULT:      -7.3      6.207     10.327
REMARK  5 active torsions:
REMARK  status: ('A' for Active; 'I' for Inactive)
REMARK    1  A    between atoms: O1_2  and  C2_3 
REMARK    2  A    between atoms: C9_12  and  O2_13 
REMARK    3  A    between atoms: O2_13  and  C10_14 
REMARK    4  A    between atoms: C10_14  and  C11_15 
REMARK    5  A    between atoms: C12_16  and  C13_17 
REMARK       I    between atoms: N4_23  and  C17_24 
ROOT
HETATM    1  C2  UNL     1      21.600   2.707  50.169  1.00  0.00     0.138 A 
HETATM    2  C3  UNL     1      21.424   1.569  50.867  1.00  0.00     0.075 A 
HETATM    3  C4  UNL     1      21.293   2.639  51.705  1.00  0.00     0.092 A 
HETATM    4  C5  UNL     1      21.184   3.790  52.428  1.00  0.00     0.010 A 
HETATM    5  C6  UNL     1      21.400   4.839  51.482  1.00  0.00     0.026 A 
HETATM    6  C7  UNL     1      21.613   4.058  50.340  1.00  0.00     0.045 A 
HETATM    7  N1  UNL     1      22.128   5.073  49.553  1.00  0.00    -0.364 N 
HETATM    8  C8  UNL     1      23.437   4.532  49.183  1.00  0.00     0.344 C 
HETATM    9  N2  UNL     1      24.252   3.855  49.993  1.00  0.00    -0.407 NA
HETATM   10  C9  UNL     1      24.953   3.187  50.761  1.00  0.00     0.213 C 
HETATM   11  C14 UNL     1      24.260   2.166  51.413  1.00  0.00     0.195 C 
HETATM   12  C15 UNL     1      23.378   2.660  52.585  1.00  0.00     0.154 C 
HETATM   13  N3  UNL     1      22.355   1.684  52.272  1.00  0.00    -0.379 N 
HETATM   14  C16 UNL     1      23.319   0.641  52.785  1.00  0.00     0.248 C 
HETATM   15  N4  UNL     1      24.645   1.009  52.161  1.00  0.00    -0.321 N 
HETATM   16  C17 UNL     1      25.960   0.540  52.114  1.00  0.00     0.217 C 
HETATM   17  C18 UNL     1      26.597  -0.660  52.710  1.00  0.00     0.117 C 
HETATM   18  O3  UNL     1      26.959   1.070  51.504  1.00  0.00    -0.274 OA
HETATM   19  H7  UNL     1      21.734   5.985  49.263  1.00  0.00     0.162 HD
ENDROOT
BRANCH  10  20
HETATM   20  O2  UNL     1      26.030   3.989  50.407  1.00  0.00    -0.323 OA
BRANCH  20  21
HETATM   21  C10 UNL     1      26.811   3.709  49.290  1.00  0.00     0.205 C 
BRANCH  21  22
HETATM   22  C11 UNL     1      27.588   4.845  48.769  1.00  0.00    -0.004 C 
HETATM   23  C12 UNL     1      27.283   6.061  48.411  1.00  0.00    -0.018 C 
BRANCH  23  24
HETATM   24  C13 UNL     1      26.094   6.952  48.325  1.00  0.00     0.112 C 
HETATM   25 BR1  UNL     1      25.705   7.531  50.152  1.00  0.00    -0.092 Br
ENDBRANCH  23  24
ENDBRANCH  21  22
ENDBRANCH  20  21
ENDBRANCH  10  20
BRANCH   1  26
HETATM   26  O1  UNL     1      21.865   2.594  48.783  1.00  0.00    -0.375 OA
HETATM   27  C1  UNL     1      21.832   1.307  48.223  1.00  0.00     0.203 C 
ENDBRANCH   1  26
TORSDOF 5
ENDMDL
MODEL 3
REMARK VINA RESULT:      -7.3      8.553     11.382
REMARK  5 active torsions:
REMARK  status: ('A' for Active; 'I' for Inactive)
REMARK    1  A    between atoms: O1_2  and  C2_3 
REMARK    2  A    between atoms: C9_12  and  O2_13 
REMARK    3  A    between atoms: O2_13  and  C10_14 
REMARK    4  A    between atoms: C10_14  and  C11_15 
REMARK    5  A    between atoms: C12_16  and  C13_17 
REMARK       I    between atoms: N4_23  and  C17_24 
ROOT
HETATM    1  C2  UNL     1      22.098   3.525  49.661  1.00  0.00     0.138 A 
HETATM    2  C3  UNL     1      20.882   3.123  50.081  1.00  0.00     0.075 A 
HETATM    3  C4  UNL     1      21.284   4.200  50.819  1.00  0.00     0.092 A 
HETATM    4  C5  UNL     1      21.803   5.276  51.476  1.00  0.00     0.010 A 
HETATM    5  C6  UNL     1      23.069   5.509  50.857  1.00  0.00     0.026 A 
HETATM    6  C7  UNL     1      23.045   4.468  49.921  1.00  0.00     0.045 A 
HETATM    7  N1  UNL     1      24.386   4.530  49.587  1.00  0.00    -0.364 N 
HETATM    8  C8  UNL     1      24.836   3.170  49.888  1.00  0.00     0.344 C 
HETATM    9  N2  UNL     1      24.458   2.446  50.942  1.00  0.00    -0.407 NA
HETATM   10  C9  UNL     1      24.042   1.791  51.904  1.00  0.00     0.213 C 
HETATM   11  C14 UNL     1      22.652   1.797  52.033  1.00  0.00     0.195 C 
HETATM   12  C15 UNL     1      22.088   3.108  52.632  1.00  0.00     0.154 C 
HETATM   13  N3  UNL     1      20.928   3.045  51.768  1.00  0.00    -0.379 N 
HETATM   14  C16 UNL     1      20.473   1.879  52.614  1.00  0.00     0.248 C 
HETATM   15  N4  UNL     1      21.708   1.023  52.779  1.00  0.00    -0.321 N 
HETATM   16  C17 UNL     1      22.088  -0.185  53.366  1.00  0.00     0.217 C 
HETATM   17  C18 UNL     1      21.308  -1.207  54.105  1.00  0.00     0.117 C 
HETATM   18  O3  UNL     1      23.262  -0.708  53.390  1.00  0.00    -0.274 OA
HETATM   19  H7  UNL     1      24.965   5.301  49.210  1.00  0.00     0.162 HD
ENDROOT
BRANCH  10  20
HETATM   20  O2  UNL     1      25.361   1.480  52.209  1.00  0.00    -0.323 OA
BRANCH  20  21
HETATM   21  C10 UNL     1      25.936   1.856  53.419  1.00  0.00     0.205 C 
BRANCH  21  22
HETATM   22  C11 UNL     1      26.302   0.743  54.311  1.00  0.00    -0.004 C 
HETATM   23  C12 UNL     1      27.436   0.260  54.737  1.00  0.00    -0.018 C 
BRANCH  23  24
HETATM   24  C13 UNL     1      28.896   0.513  54.603  1.00  0.00     0.112 C 
HETATM   25 BR1  UNL     1      29.621  -0.975  53.561  1.00  0.00    -0.092 Br
ENDBRANCH  23  24
ENDBRANCH  21  22
ENDBRANCH  20  21
ENDBRANCH  10  20
BRANCH   1  26
HETATM   26  O1  UNL     1      22.694   2.809  48.596  1.00  0.00    -0.375 OA
HETATM   27  C1  UNL     1      22.006   1.688  48.107  1.00  0.00     0.203 C 
ENDBRANCH   1  26
TORSDOF 5
ENDMDL
MODEL 4
REMARK VINA RESULT:      -7.1      9.515     12.006
REMARK  5 active torsions:
REMARK  status: ('A' for Active; 'I' for Inactive)
REMARK    1  A    between atoms: O1_2  and  C2_3 
REMARK    2  A    between atoms: C9_12  and  O2_13 
REMARK    3  A    between atoms: O2_13  and  C10_14 
REMARK    4  A    between atoms: C10_14  and  C11_15 
REMARK    5  A    between atoms: C12_16  and  C13_17 
REMARK       I    between atoms: N4_23  and  C17_24 
ROOT
HETATM    1  C2  UNL     1      23.592   4.183  51.117  1.00  0.00     0.138 A 
HETATM    2  C3  UNL     1      24.485   3.258  51.520  1.00  0.00     0.075 A 
HETATM    3  C4  UNL     1      24.012   2.922  50.283  1.00  0.00     0.092 A 
HETATM    4  C5  UNL     1      23.462   2.707  49.054  1.00  0.00     0.010 A 
HETATM    5  C6  UNL     1      22.571   3.806  48.853  1.00  0.00     0.026 A 
HETATM    6  C7  UNL     1      22.777   4.474  50.066  1.00  0.00     0.045 A 
HETATM    7  N1  UNL     1      21.685   5.317  49.965  1.00  0.00    -0.364 N 
HETATM    8  C8  UNL     1      20.947   5.002  51.190  1.00  0.00     0.344 C 
HETATM    9  N2  UNL     1      20.787   3.783  51.705  1.00  0.00    -0.407 NA
HETATM   10  C9  UNL     1      20.706   2.644  52.176  1.00  0.00     0.213 C 
HETATM   11  C14 UNL     1      21.931   1.978  52.256  1.00  0.00     0.195 C 
HETATM   12  C15 UNL     1      22.430   1.425  50.900  1.00  0.00     0.154 C 
HETATM   13  N3  UNL     1      23.803   1.737  51.239  1.00  0.00    -0.379 N 
HETATM   14  C16 UNL     1      23.722   0.605  52.235  1.00  0.00     0.248 C 
HETATM   15  N4  UNL     1      22.396   0.806  52.932  1.00  0.00    -0.321 N 
HETATM   16  C17 UNL     1      21.639   0.230  53.954  1.00  0.00     0.217 C 
HETATM   17  C18 UNL     1      21.917  -0.911  54.859  1.00  0.00     0.117 C 
HETATM   18  O3  UNL     1      20.475   0.588  54.363  1.00  0.00    -0.274 OA
HETATM   19  H7  UNL     1      21.416   6.010  49.245  1.00  0.00     0.162 HD
ENDROOT
BRANCH  10  20
HETATM   20  O2  UNL     1      19.337   2.839  52.306  1.00  0.00    -0.323 OA
BRANCH  20  21
HETATM   21  C10 UNL     1      18.424   2.136  51.526  1.00  0.00     0.205 C 
BRANCH  21  22
HETATM   22  C11 UNL     1      18.756   0.720  51.298  1.00  0.00    -0.004 C 
HETATM   23  C12 UNL     1      18.255  -0.406  51.726  1.00  0.00    -0.018 C 
BRANCH  23  24
HETATM   24  C13 UNL     1      17.160  -0.898  52.605  1.00  0.00     0.112 C 
HETATM   25 BR1  UNL     1      17.900  -2.398  53.621  1.00  0.00    -0.092 Br
ENDBRANCH  23  24
ENDBRANCH  21  22
ENDBRANCH  20  21
ENDBRANCH  10  20
BRANCH   1  26
HETATM   26  O1  UNL     1      23.330   5.266  51.989  1.00  0.00    -0.375 OA
HETATM   27  C1  UNL     1      23.748   5.136  53.323  1.00  0.00     0.203 C 
ENDBRANCH   1  26
TORSDOF 5
ENDMDL
MODEL 5
REMARK VINA RESULT:      -6.5      3.879      6.054
REMARK  5 active torsions:
REMARK  status: ('A' for Active; 'I' for Inactive)
REMARK    1  A    between atoms: O1_2  and  C2_3 
REMARK    2  A    between atoms: C9_12  and  O2_13 
REMARK    3  A    between atoms: O2_13  and  C10_14 
REMARK    4  A    between atoms: C10_14  and  C11_15 
REMARK    5  A    between atoms: C12_16  and  C13_17 
REMARK       I    between atoms: N4_23  and  C17_24 
ROOT
HETATM    1  C2  UNL     1      33.470   5.030  48.193  1.00  0.00     0.138 A 
HETATM    2  C3  UNL     1      33.029   6.223  48.638  1.00  0.00     0.075 A 
HETATM    3  C4  UNL     1      31.997   5.549  48.048  1.00  0.00     0.092 A 
HETATM    4  C5  UNL     1      31.060   4.769  47.437  1.00  0.00     0.010 A 
HETATM    5  C6  UNL     1      31.756   3.578  47.069  1.00  0.00     0.026 A 
HETATM    6  C7  UNL     1      33.027   3.915  47.550  1.00  0.00     0.045 A 
HETATM    7  N1  UNL     1      33.712   2.907  46.895  1.00  0.00    -0.364 N 
HETATM    8  C8  UNL     1      34.691   3.667  46.114  1.00  0.00     0.344 C 
HETATM    9  N2  UNL     1      34.452   4.814  45.479  1.00  0.00    -0.407 NA
HETATM   10  C9  UNL     1      34.202   5.902  44.949  1.00  0.00     0.213 C 
HETATM   11  C14 UNL     1      33.565   6.810  45.797  1.00  0.00     0.195 C 
HETATM   12  C15 UNL     1      32.059   6.520  46.004  1.00  0.00     0.154 C 
HETATM   13  N3  UNL     1      32.135   6.931  47.391  1.00  0.00    -0.379 N 
HETATM   14  C16 UNL     1      32.300   8.339  46.871  1.00  0.00     0.248 C 
HETATM   15  N4  UNL     1      33.311   8.217  45.755  1.00  0.00    -0.321 N 
HETATM   16  C17 UNL     1      33.990   9.033  44.847  1.00  0.00     0.217 C 
HETATM   17  C18 UNL     1      33.983  10.503  44.651  1.00  0.00     0.117 C 
HETATM   18  O3  UNL     1      34.821   8.669  43.937  1.00  0.00    -0.274 OA
HETATM   19  H7  UNL     1      33.611   1.878  46.920  1.00  0.00     0.162 HD
ENDROOT
BRANCH  10  20
HETATM   20  O2  UNL     1      34.777   5.419  43.781  1.00  0.00    -0.323 OA
BRANCH  20  21
HETATM   21  C10 UNL     1      34.186   5.625  42.538  1.00  0.00     0.205 C 
BRANCH  21  22
HETATM   22  C11 UNL     1      33.283   4.552  42.090  1.00  0.00    -0.004 C 
HETATM   23  C12 UNL     1      33.283   3.738  41.071  1.00  0.00    -0.018 C 
BRANCH  23  24
HETATM   24  C13 UNL     1      34.105   3.423  39.872  1.00  0.00     0.112 C 
HETATM   25 BR1  UNL     1      33.968   1.490  39.602  1.00  0.00    -0.092 Br
ENDBRANCH  23  24
ENDBRANCH  21  22
ENDBRANCH  20  21
ENDBRANCH  10  20
BRANCH   1  26
HETATM   26  O1  UNL     1      34.832   4.712  48.411  1.00  0.00    -0.375 OA
HETATM   27  C1  UNL     1      35.604   5.638  49.128  1.00  0.00     0.203 C 
ENDBRANCH   1  26
TORSDOF 5
ENDMDL
MODEL 6
REMARK VINA RESULT:      -6.5      3.366      6.671
REMARK  5 active torsions:
REMARK  status: ('A' for Active; 'I' for Inactive)
REMARK    1  A    between atoms: O1_2  and  C2_3 
REMARK    2  A    between atoms: C9_12  and  O2_13 
REMARK    3  A    between atoms: O2_13  and  C10_14 
REMARK    4  A    between atoms: C10_14  and  C11_15 
REMARK    5  A    between atoms: C12_16  and  C13_17 
REMARK       I    between atoms: N4_23  and  C17_24 
ROOT
HETATM    1  C2  UNL     1      29.208  10.432  46.454  1.00  0.00     0.138 A 
HETATM    2  C3  UNL     1      27.951  10.190  46.874  1.00  0.00     0.075 A 
HETATM    3  C4  UNL     1      28.670  10.747  47.893  1.00  0.00     0.092 A 
HETATM    4  C5  UNL     1      29.498  11.310  48.819  1.00  0.00     0.010 A 
HETATM    5  C6  UNL     1      30.747  11.473  48.144  1.00  0.00     0.026 A 
HETATM    6  C7  UNL     1      30.390  10.938  46.901  1.00  0.00     0.045 A 
HETATM    7  N1  UNL     1      31.678  10.817  46.410  1.00  0.00    -0.364 N 
HETATM    8  C8  UNL     1      31.749   9.387  46.100  1.00  0.00     0.344 C 
HETATM    9  N2  UNL     1      31.238   8.408  46.846  1.00  0.00    -0.407 NA
HETATM   10  C9  UNL     1      30.706   7.535  47.540  1.00  0.00     0.213 C 
HETATM   11  C14 UNL     1      29.380   7.813  47.877  1.00  0.00     0.195 C 
HETATM   12  C15 UNL     1      29.230   8.859  49.008  1.00  0.00     0.154 C 
HETATM   13  N3  UNL     1      28.056   9.425  48.377  1.00  0.00    -0.379 N 
HETATM   14  C16 UNL     1      27.339   8.157  48.777  1.00  0.00     0.248 C 
HETATM   15  N4  UNL     1      28.297   7.046  48.412  1.00  0.00    -0.321 N 
HETATM   16  C17 UNL     1      28.357   5.652  48.431  1.00  0.00     0.217 C 
HETATM   17  C18 UNL     1      27.362   4.630  48.839  1.00  0.00     0.117 C 
HETATM   18  O3  UNL     1      29.340   4.906  48.071  1.00  0.00    -0.274 OA
HETATM   19  H7  UNL     1      32.428  11.515  46.268  1.00  0.00     0.162 HD
ENDROOT
BRANCH  10  20
HETATM   20  O2  UNL     1      31.901   6.828  47.496  1.00  0.00    -0.323 OA
BRANCH  20  21
HETATM   21  C10 UNL     1      32.748   6.761  48.597  1.00  0.00     0.205 C 
BRANCH  21  22
HETATM   22  C11 UNL     1      34.162   6.494  48.284  1.00  0.00    -0.004 C 
HETATM   23  C12 UNL     1      34.839   5.412  48.014  1.00  0.00    -0.018 C 
BRANCH  23  24
HETATM   24  C13 UNL     1      34.625   3.948  47.869  1.00  0.00     0.112 C 
HETATM   25 BR1  UNL     1      34.978   3.522  45.992  1.00  0.00    -0.092 Br
ENDBRANCH  23  24
ENDBRANCH  21  22
ENDBRANCH  20  21
ENDBRANCH  10  20
BRANCH   1  26
HETATM   26  O1  UNL     1      29.530  10.093  45.118  1.00  0.00    -0.375 OA
HETATM   27  C1  UNL     1      28.569   9.381  44.383  1.00  0.00     0.203 C 
ENDBRANCH   1  26
TORSDOF 5
ENDMDL
MODEL 7
REMARK VINA RESULT:      -6.4      8.800     11.259
REMARK  5 active torsions:
REMARK  status: ('A' for Active; 'I' for Inactive)
REMARK    1  A    between atoms: O1_2  and  C2_3 
REMARK    2  A    between atoms: C9_12  and  O2_13 
REMARK    3  A    between atoms: O2_13  and  C10_14 
REMARK    4  A    between atoms: C10_14  and  C11_15 
REMARK    5  A    between atoms: C12_16  and  C13_17 
REMARK       I    between atoms: N4_23  and  C17_24 
ROOT
HETATM    1  C2  UNL     1      19.991   2.674  50.277  1.00  0.00     0.138 A 
HETATM    2  C3  UNL     1      19.830   3.695  49.413  1.00  0.00     0.075 A 
HETATM    3  C4  UNL     1      20.613   2.734  48.838  1.00  0.00     0.092 A 
HETATM    4  C5  UNL     1      21.377   1.700  48.385  1.00  0.00     0.010 A 
HETATM    5  C6  UNL     1      21.392   0.756  49.457  1.00  0.00     0.026 A 
HETATM    6  C7  UNL     1      20.605   1.462  50.375  1.00  0.00     0.045 A 
HETATM    7  N1  UNL     1      20.916   0.684  51.475  1.00  0.00    -0.364 N 
HETATM    8  C8  UNL     1      21.461   1.678  52.403  1.00  0.00     0.344 C 
HETATM    9  N2  UNL     1      22.263   2.690  52.070  1.00  0.00    -0.407 NA
HETATM   10  C9  UNL     1      22.961   3.643  51.710  1.00  0.00     0.213 C 
HETATM   11  C14 UNL     1      22.441   4.345  50.621  1.00  0.00     0.195 C 
HETATM   12  C15 UNL     1      22.647   3.631  49.263  1.00  0.00     0.154 C 
HETATM   13  N3  UNL     1      21.353   4.080  48.792  1.00  0.00    -0.379 N 
HETATM   14  C16 UNL     1      21.958   5.462  48.721  1.00  0.00     0.248 C 
HETATM   15  N4  UNL     1      22.713   5.615  50.021  1.00  0.00    -0.321 N 
HETATM   16  C17 UNL     1      23.471   6.571  50.699  1.00  0.00     0.217 C 
HETATM   17  C18 UNL     1      23.825   7.970  50.354  1.00  0.00     0.117 C 
HETATM   18  O3  UNL     1      24.056   6.445  51.836  1.00  0.00    -0.274 OA
HETATM   19  H7  UNL     1      20.806  -0.329  51.654  1.00  0.00     0.162 HD
ENDROOT
BRANCH  10  20
HETATM   20  O2  UNL     1      23.851   3.322  52.727  1.00  0.00    -0.323 OA
BRANCH  20  21
HETATM   21  C10 UNL     1      24.953   2.504  52.499  1.00  0.00     0.205 C 
BRANCH  21  22
HETATM   22  C11 UNL     1      25.757   2.190  53.692  1.00  0.00    -0.004 C 
HETATM   23  C12 UNL     1      26.816   1.458  53.902  1.00  0.00    -0.018 C 
BRANCH  23  24
HETATM   24  C13 UNL     1      27.761   0.591  53.149  1.00  0.00     0.112 C 
HETATM   25 BR1  UNL     1      26.722  -0.942  52.519  1.00  0.00    -0.092 Br
ENDBRANCH  23  24
ENDBRANCH  21  22
ENDBRANCH  20  21
ENDBRANCH  10  20
BRANCH   1  26
HETATM   26  O1  UNL     1      19.354   2.773  51.537  1.00  0.00    -0.375 OA
HETATM   27  C1  UNL     1      18.046   3.280  51.561  1.00  0.00     0.203 C 
ENDBRANCH   1  26
TORSDOF 5
ENDMDL
MODEL 8
REMARK VINA RESULT:      -6.4      7.778     10.234
REMARK  5 active torsions:
REMARK  status: ('A' for Active; 'I' for Inactive)
REMARK    1  A    between atoms: O1_2  and  C2_3 
REMARK    2  A    between atoms: C9_12  and  O2_13 
REMARK    3  A    between atoms: O2_13  and  C10_14 
REMARK    4  A    between atoms: C10_14  and  C11_15 
REMARK    5  A    between atoms: C12_16  and  C13_17 
REMARK       I    between atoms: N4_23  and  C17_24 
ROOT
HETATM    1  C2  UNL     1      23.175   4.924  50.077  1.00  0.00     0.138 A 
HETATM    2  C3  UNL     1      24.456   5.059  49.683  1.00  0.00     0.075 A 
HETATM    3  C4  UNL     1      23.872   4.041  48.985  1.00  0.00     0.092 A 
HETATM    4  C5  UNL     1      23.170   3.054  48.359  1.00  0.00     0.010 A 
HETATM    5  C6  UNL     1      21.862   3.114  48.931  1.00  0.00     0.026 A 
HETATM    6  C7  UNL     1      22.070   4.167  49.830  1.00  0.00     0.045 A 
HETATM    7  N1  UNL     1      20.916   3.971  50.567  1.00  0.00    -0.364 N 
HETATM    8  C8  UNL     1      21.449   3.781  51.918  1.00  0.00     0.344 C 
HETATM    9  N2  UNL     1      22.547   3.090  52.226  1.00  0.00    -0.407 NA
HETATM   10  C9  UNL     1      23.598   2.484  52.462  1.00  0.00     0.213 C 
HETATM   11  C14 UNL     1      24.667   2.874  51.653  1.00  0.00     0.195 C 
HETATM   12  C15 UNL     1      24.609   2.293  50.220  1.00  0.00     0.154 C 
HETATM   13  N3  UNL     1      25.147   3.517  49.664  1.00  0.00    -0.379 N 
HETATM   14  C16 UNL     1      26.458   3.125  50.303  1.00  0.00     0.248 C 
HETATM   15  N4  UNL     1      26.084   2.680  51.698  1.00  0.00    -0.321 N 
HETATM   16  C17 UNL     1      26.700   2.227  52.866  1.00  0.00     0.217 C 
HETATM   17  C18 UNL     1      28.130   2.025  53.208  1.00  0.00     0.117 C 
HETATM   18  O3  UNL     1      26.134   1.872  53.963  1.00  0.00    -0.274 OA
HETATM   19  H7  UNL     1      19.918   3.962  50.292  1.00  0.00     0.162 HD
ENDROOT
BRANCH  10  20
HETATM   20  O2  UNL     1      22.922   1.781  53.450  1.00  0.00    -0.323 OA
BRANCH  20  21
HETATM   21  C10 UNL     1      22.760   0.401  53.380  1.00  0.00     0.205 C 
BRANCH  21  22
HETATM   22  C11 UNL     1      21.379  -0.077  53.561  1.00  0.00    -0.004 C 
HETATM   23  C12 UNL     1      20.311  -0.061  52.812  1.00  0.00    -0.018 C 
BRANCH  23  24
HETATM   24  C13 UNL     1      19.881   0.394  51.463  1.00  0.00     0.112 C 
HETATM   25 BR1  UNL     1      17.999  -0.109  51.285  1.00  0.00    -0.092 Br
ENDBRANCH  23  24
ENDBRANCH  21  22
ENDBRANCH  20  21
ENDBRANCH  10  20
BRANCH   1  26
HETATM   26  O1  UNL     1      22.697   5.810  51.072  1.00  0.00    -0.375 OA
HETATM   27  C1  UNL     1      23.271   7.089  51.127  1.00  0.00     0.203 C 
ENDBRANCH   1  26
TORSDOF 5
ENDMDL
MODEL 9
REMARK VINA RESULT:      -6.3      3.303      6.152
REMARK  5 active torsions:
REMARK  status: ('A' for Active; 'I' for Inactive)
REMARK    1  A    between atoms: O1_2  and  C2_3 
REMARK    2  A    between atoms: C9_12  and  O2_13 
REMARK    3  A    between atoms: O2_13  and  C10_14 
REMARK    4  A    between atoms: C10_14  and  C11_15 
REMARK    5  A    between atoms: C12_16  and  C13_17 
REMARK       I    between atoms: N4_23  and  C17_24 
ROOT
HETATM    1  C2  UNL     1      30.141   9.684  47.806  1.00  0.00     0.138 A 
HETATM    2  C3  UNL     1      30.130  10.356  46.638  1.00  0.00     0.075 A 
HETATM    3  C4  UNL     1      29.721   9.070  46.425  1.00  0.00     0.092 A 
HETATM    4  C5  UNL     1      29.328   7.767  46.353  1.00  0.00     0.010 A 
HETATM    5  C6  UNL     1      29.415   7.282  47.694  1.00  0.00     0.026 A 
HETATM    6  C7  UNL     1      29.874   8.450  48.315  1.00  0.00     0.045 A 
HETATM    7  N1  UNL     1      30.247   7.855  49.507  1.00  0.00    -0.364 N 
HETATM    8  C8  UNL     1      31.663   8.215  49.593  1.00  0.00     0.344 C 
HETATM    9  N2  UNL     1      32.522   8.229  48.573  1.00  0.00    -0.407 NA
HETATM   10  C9  UNL     1      33.271   8.279  47.591  1.00  0.00     0.213 C 
HETATM   11  C14 UNL     1      32.737   8.983  46.510  1.00  0.00     0.195 C 
HETATM   12  C15 UNL     1      31.678   8.187  45.710  1.00  0.00     0.154 C 
HETATM   13  N3  UNL     1      30.896   9.385  45.487  1.00  0.00    -0.379 N 
HETATM   14  C16 UNL     1      31.997   9.822  44.550  1.00  0.00     0.248 C 
HETATM   15  N4  UNL     1      33.275   9.526  45.301  1.00  0.00    -0.321 N 
HETATM   16  C17 UNL     1      34.655   9.669  45.140  1.00  0.00     0.217 C 
HETATM   17  C18 UNL     1      35.460  10.269  44.048  1.00  0.00     0.117 C 
HETATM   18  O3  UNL     1      35.580   9.298  45.951  1.00  0.00    -0.274 OA
HETATM   19  H7  UNL     1      29.709   7.302  50.197  1.00  0.00     0.162 HD
ENDROOT
BRANCH  10  20
HETATM   20  O2  UNL     1      34.197   7.537  48.312  1.00  0.00    -0.323 OA
BRANCH  20  21
HETATM   21  C10 UNL     1      34.323   6.162  48.139  1.00  0.00     0.205 C 
BRANCH  21  22
HETATM   22  C11 UNL     1      34.264   5.700  46.742  1.00  0.00    -0.004 C 
HETATM   23  C12 UNL     1      33.528   4.830  46.108  1.00  0.00    -0.018 C 
BRANCH  23  24
HETATM   24  C13 UNL     1      32.415   3.880  46.374  1.00  0.00     0.112 C 
HETATM   25 BR1  UNL     1      33.152   2.474  47.517  1.00  0.00    -0.092 Br
ENDBRANCH  23  24
ENDBRANCH  21  22
ENDBRANCH  20  21
ENDBRANCH  10  20
BRANCH   1  26
HETATM   26  O1  UNL     1      30.541  10.390  48.966  1.00  0.00    -0.375 OA
HETATM   27  C1  UNL     1      30.827  11.756  48.823  1.00  0.00     0.203 C 
ENDBRANCH   1  26
TORSDOF 5
ENDMDL
