MODEL 1
REMARK VINA RESULT:      -7.7      0.000      0.000
REMARK  7 active torsions:
REMARK  status: ('A' for Active; 'I' for Inactive)
REMARK    1  A    between atoms: O1_2  and  C2_3 
REMARK    2  A    between atoms: C6_9  and  N3_10 
REMARK    3  A    between atoms: N3_10  and  C7_11 
REMARK    4  A    between atoms: C15_21  and  O2_22 
REMARK    5  A    between atoms: O2_22  and  C16_23 
REMARK    6  A    between atoms: C16_23  and  C17_24 
REMARK    7  A    between atoms: C17_24  and  N4_25 
ROOT
HETATM    1  C2  UNL     1      21.573   1.151  51.813  1.00  0.00     0.103 A 
HETATM    2  C3  UNL     1      22.014   1.798  50.666  1.00  0.00     0.072 A 
HETATM    3  C4  UNL     1      23.298   2.313  50.577  1.00  0.00     0.075 A 
HETATM    4  N1  UNL     1      23.747   2.935  49.475  1.00  0.00    -0.241 NA
HETATM    5  C5  UNL     1      25.017   3.403  49.461  1.00  0.00     0.236 A 
HETATM    6  N2  UNL     1      25.839   3.259  50.528  1.00  0.00    -0.224 NA
HETATM    7  C6  UNL     1      25.440   2.648  51.647  1.00  0.00     0.142 A 
HETATM    8  C13 UNL     1      24.143   2.166  51.670  1.00  0.00     0.042 A 
HETATM    9  C14 UNL     1      23.724   1.530  52.812  1.00  0.00     0.057 A 
HETATM   10  C15 UNL     1      22.442   1.024  52.880  1.00  0.00     0.103 A 
ENDROOT
BRANCH   7  11
HETATM   11  N3  UNL     1      26.389   2.540  52.698  1.00  0.00    -0.340 N 
HETATM   12  H6  UNL     1      26.211   3.409  53.241  1.00  0.00     0.167 HD
BRANCH  11  13
HETATM   13  C7  UNL     1      27.367   1.572  53.033  1.00  0.00     0.035 A 
HETATM   14  C8  UNL     1      28.535   2.007  53.631  1.00  0.00     0.032 A 
HETATM   15  C9  UNL     1      29.440   1.017  53.951  1.00  0.00     0.046 A 
HETATM   16  C10 UNL     1      29.220  -0.343  53.698  1.00  0.00     0.138 A 
HETATM   17  F1  UNL     1      30.198  -1.240  54.063  1.00  0.00    -0.204 F 
HETATM   18  C11 UNL     1      28.038  -0.717  53.100  1.00  0.00     0.074 A 
HETATM   19 CL1  UNL     1      27.757  -2.432  52.782  1.00  0.00    -0.081 Cl
HETATM   20  C12 UNL     1      27.105   0.242  52.764  1.00  0.00     0.056 A 
ENDBRANCH  11  13
ENDBRANCH   7  11
BRANCH  10  21
HETATM   21  O2  UNL     1      21.907   0.364  53.973  1.00  0.00    -0.347 OA
BRANCH  21  22
HETATM   22  C16 UNL     1      22.394  -0.796  54.572  1.00  0.00     0.205 C 
BRANCH  22  23
HETATM   23  C17 UNL     1      21.434  -1.969  54.324  1.00  0.00     0.293 C 
BRANCH  23  24
HETATM   24  N4  UNL     1      20.109  -1.431  54.181  1.00  0.00     0.080 N 
HETATM   25  H15 UNL     1      20.023  -0.917  53.279  1.00  0.00     0.312 HD
HETATM   26  H16 UNL     1      19.812  -0.882  55.017  1.00  0.00     0.312 HD
ENDBRANCH  23  24
ENDBRANCH  22  23
ENDBRANCH  21  22
ENDBRANCH  10  21
BRANCH   1  27
HETATM   27  O1  UNL     1      20.291   0.659  51.853  1.00  0.00    -0.353 OA
HETATM   28  C1  UNL     1      19.338   0.634  50.851  1.00  0.00     0.210 C 
ENDBRANCH   1  27
TORSDOF 7
ENDMDL
MODEL 2
REMARK VINA RESULT:      -7.5      2.306      4.309
REMARK  7 active torsions:
REMARK  status: ('A' for Active; 'I' for Inactive)
REMARK    1  A    between atoms: O1_2  and  C2_3 
REMARK    2  A    between atoms: C6_9  and  N3_10 
REMARK    3  A    between atoms: N3_10  and  C7_11 
REMARK    4  A    between atoms: C15_21  and  O2_22 
REMARK    5  A    between atoms: O2_22  and  C16_23 
REMARK    6  A    between atoms: C16_23  and  C17_24 
REMARK    7  A    between atoms: C17_24  and  N4_25 
ROOT
HETATM    1  C2  UNL     1      20.486   2.508  52.519  1.00  0.00     0.103 A 
HETATM    2  C3  UNL     1      20.438   1.428  53.390  1.00  0.00     0.072 A 
HETATM    3  C4  UNL     1      21.558   0.649  53.637  1.00  0.00     0.075 A 
HETATM    4  N1  UNL     1      21.535  -0.395  54.480  1.00  0.00    -0.241 NA
HETATM    5  C5  UNL     1      22.673  -1.102  54.675  1.00  0.00     0.236 A 
HETATM    6  N2  UNL     1      23.826  -0.783  54.040  1.00  0.00    -0.224 NA
HETATM    7  C6  UNL     1      23.900   0.246  53.191  1.00  0.00     0.142 A 
HETATM    8  C13 UNL     1      22.742   0.975  52.986  1.00  0.00     0.042 A 
HETATM    9  C14 UNL     1      22.808   2.039  52.121  1.00  0.00     0.057 A 
HETATM   10  C15 UNL     1      21.682   2.802  51.891  1.00  0.00     0.103 A 
ENDROOT
BRANCH   7  11
HETATM   11  N3  UNL     1      25.163   0.500  52.592  1.00  0.00    -0.340 N 
HETATM   12  H6  UNL     1      24.896   1.034  51.742  1.00  0.00     0.167 HD
BRANCH  11  13
HETATM   13  C7  UNL     1      26.494   0.173  52.950  1.00  0.00     0.035 A 
HETATM   14  C8  UNL     1      26.955  -1.095  52.648  1.00  0.00     0.032 A 
HETATM   15  C9  UNL     1      28.263  -1.348  53.004  1.00  0.00     0.046 A 
HETATM   16  C10 UNL     1      29.092  -0.407  53.628  1.00  0.00     0.138 A 
HETATM   17  F1  UNL     1      30.382  -0.775  53.934  1.00  0.00    -0.204 F 
HETATM   18  C11 UNL     1      28.577   0.840  53.903  1.00  0.00     0.074 A 
HETATM   19 CL1  UNL     1      29.620   2.031  54.688  1.00  0.00    -0.081 Cl
HETATM   20  C12 UNL     1      27.272   1.134  53.564  1.00  0.00     0.056 A 
ENDBRANCH  11  13
ENDBRANCH   7  11
BRANCH  10  21
HETATM   21  O2  UNL     1      21.625   3.896  51.045  1.00  0.00    -0.347 OA
BRANCH  21  22
HETATM   22  C16 UNL     1      21.822   5.232  51.388  1.00  0.00     0.205 C 
BRANCH  22  23
HETATM   23  C17 UNL     1      23.265   5.657  51.078  1.00  0.00     0.293 C 
BRANCH  23  24
HETATM   24  N4  UNL     1      23.960   5.803  52.328  1.00  0.00     0.080 N 
HETATM   25  H15 UNL     1      24.933   5.441  52.244  1.00  0.00     0.312 HD
HETATM   26  H16 UNL     1      23.423   5.406  53.129  1.00  0.00     0.312 HD
ENDBRANCH  23  24
ENDBRANCH  22  23
ENDBRANCH  21  22
ENDBRANCH  10  21
BRANCH   1  27
HETATM   27  O1  UNL     1      19.349   3.250  52.308  1.00  0.00    -0.353 OA
HETATM   28  C1  UNL     1      18.249   2.951  51.525  1.00  0.00     0.210 C 
ENDBRANCH   1  27
TORSDOF 7
ENDMDL
MODEL 3
REMARK VINA RESULT:      -7.4      4.322      7.128
REMARK  7 active torsions:
REMARK  status: ('A' for Active; 'I' for Inactive)
REMARK    1  A    between atoms: O1_2  and  C2_3 
REMARK    2  A    between atoms: C6_9  and  N3_10 
REMARK    3  A    between atoms: N3_10  and  C7_11 
REMARK    4  A    between atoms: C15_21  and  O2_22 
REMARK    5  A    between atoms: O2_22  and  C16_23 
REMARK    6  A    between atoms: C16_23  and  C17_24 
REMARK    7  A    between atoms: C17_24  and  N4_25 
ROOT
HETATM    1  C2  UNL     1      26.289   1.479  53.842  1.00  0.00     0.103 A 
HETATM    2  C3  UNL     1      25.720   2.731  53.651  1.00  0.00     0.072 A 
HETATM    3  C4  UNL     1      24.472   2.875  53.065  1.00  0.00     0.075 A 
HETATM    4  N1  UNL     1      23.901   4.075  52.879  1.00  0.00    -0.241 NA
HETATM    5  C5  UNL     1      22.675   4.133  52.307  1.00  0.00     0.236 A 
HETATM    6  N2  UNL     1      22.018   3.014  51.920  1.00  0.00    -0.224 NA
HETATM    7  C6  UNL     1      22.544   1.797  52.083  1.00  0.00     0.142 A 
HETATM    8  C13 UNL     1      23.796   1.728  52.667  1.00  0.00     0.042 A 
HETATM    9  C14 UNL     1      24.343   0.482  52.847  1.00  0.00     0.057 A 
HETATM   10  C15 UNL     1      25.586   0.361  53.434  1.00  0.00     0.103 A 
ENDROOT
BRANCH   7  11
HETATM   11  N3  UNL     1      21.761   0.692  51.654  1.00  0.00    -0.340 N 
HETATM   12  H6  UNL     1      22.246   0.410  50.779  1.00  0.00     0.167 HD
BRANCH  11  13
HETATM   13  C7  UNL     1      20.613   0.049  52.178  1.00  0.00     0.035 A 
HETATM   14  C8  UNL     1      20.744  -0.645  53.367  1.00  0.00     0.032 A 
HETATM   15  C9  UNL     1      19.589  -1.235  53.837  1.00  0.00     0.046 A 
HETATM   16  C10 UNL     1      18.355  -1.153  53.178  1.00  0.00     0.138 A 
HETATM   17  F1  UNL     1      17.270  -1.782  53.746  1.00  0.00    -0.204 F 
HETATM   18  C11 UNL     1      18.286  -0.448  51.998  1.00  0.00     0.074 A 
HETATM   19 CL1  UNL     1      16.731  -0.342  51.166  1.00  0.00    -0.081 Cl
HETATM   20  C12 UNL     1      19.419   0.156  51.493  1.00  0.00     0.056 A 
ENDBRANCH  11  13
ENDBRANCH   7  11
BRANCH  10  21
HETATM   21  O2  UNL     1      26.239  -0.837  53.668  1.00  0.00    -0.347 OA
BRANCH  21  22
HETATM   22  C16 UNL     1      26.871  -1.646  52.725  1.00  0.00     0.205 C 
BRANCH  22  23
HETATM   23  C17 UNL     1      28.343  -1.862  53.107  1.00  0.00     0.293 C 
BRANCH  23  24
HETATM   24  N4  UNL     1      28.584  -3.278  53.151  1.00  0.00     0.080 N 
HETATM   25  H15 UNL     1      29.470  -3.478  53.662  1.00  0.00     0.312 HD
HETATM   26  H16 UNL     1      28.524  -3.720  52.208  1.00  0.00     0.312 HD
ENDBRANCH  23  24
ENDBRANCH  22  23
ENDBRANCH  21  22
ENDBRANCH  10  21
BRANCH   1  27
HETATM   27  O1  UNL     1      27.529   1.388  54.428  1.00  0.00    -0.353 OA
HETATM   28  C1  UNL     1      28.748   1.840  53.955  1.00  0.00     0.210 C 
ENDBRANCH   1  27
TORSDOF 7
ENDMDL
MODEL 4
REMARK VINA RESULT:      -7.4      3.900      6.009
REMARK  7 active torsions:
REMARK  status: ('A' for Active; 'I' for Inactive)
REMARK    1  A    between atoms: O1_2  and  C2_3 
REMARK    2  A    between atoms: C6_9  and  N3_10 
REMARK    3  A    between atoms: N3_10  and  C7_11 
REMARK    4  A    between atoms: C15_21  and  O2_22 
REMARK    5  A    between atoms: O2_22  and  C16_23 
REMARK    6  A    between atoms: C16_23  and  C17_24 
REMARK    7  A    between atoms: C17_24  and  N4_25 
ROOT
HETATM    1  C2  UNL     1      24.993   0.390  53.743  1.00  0.00     0.103 A 
HETATM    2  C3  UNL     1      23.831   0.262  52.993  1.00  0.00     0.072 A 
HETATM    3  C4  UNL     1      23.411   1.267  52.135  1.00  0.00     0.075 A 
HETATM    4  N1  UNL     1      22.296   1.160  51.396  1.00  0.00    -0.241 NA
HETATM    5  C5  UNL     1      21.957   2.182  50.575  1.00  0.00     0.236 A 
HETATM    6  N2  UNL     1      22.712   3.303  50.485  1.00  0.00    -0.224 NA
HETATM    7  C6  UNL     1      23.830   3.457  51.201  1.00  0.00     0.142 A 
HETATM    8  C13 UNL     1      24.185   2.417  52.042  1.00  0.00     0.042 A 
HETATM    9  C14 UNL     1      25.335   2.562  52.777  1.00  0.00     0.057 A 
HETATM   10  C15 UNL     1      25.736   1.549  53.623  1.00  0.00     0.103 A 
ENDROOT
BRANCH   7  11
HETATM   11  N3  UNL     1      24.552   4.667  51.018  1.00  0.00    -0.340 N 
HETATM   12  H6  UNL     1      24.115   5.289  51.727  1.00  0.00     0.167 HD
BRANCH  11  13
HETATM   13  C7  UNL     1      25.600   5.054  50.148  1.00  0.00     0.035 A 
HETATM   14  C8  UNL     1      26.440   4.068  49.664  1.00  0.00     0.032 A 
HETATM   15  C9  UNL     1      27.430   4.502  48.807  1.00  0.00     0.046 A 
HETATM   16  C10 UNL     1      27.598   5.843  48.435  1.00  0.00     0.138 A 
HETATM   17  F1  UNL     1      28.622   6.156  47.571  1.00  0.00    -0.204 F 
HETATM   18  C11 UNL     1      26.730   6.780  48.949  1.00  0.00     0.074 A 
HETATM   19 CL1  UNL     1      26.938   8.471  48.480  1.00  0.00    -0.081 Cl
HETATM   20  C12 UNL     1      25.726   6.387  49.810  1.00  0.00     0.056 A 
ENDBRANCH  11  13
ENDBRANCH   7  11
BRANCH  10  21
HETATM   21  O2  UNL     1      26.874   1.578  54.411  1.00  0.00    -0.347 OA
BRANCH  21  22
HETATM   22  C16 UNL     1      28.171   1.877  53.999  1.00  0.00     0.205 C 
BRANCH  22  23
HETATM   23  C17 UNL     1      29.086   0.657  54.185  1.00  0.00     0.293 C 
BRANCH  23  24
HETATM   24  N4  UNL     1      28.374  -0.312  54.974  1.00  0.00     0.080 N 
HETATM   25  H15 UNL     1      27.950   0.145  55.809  1.00  0.00     0.312 HD
HETATM   26  H16 UNL     1      28.955  -1.150  55.192  1.00  0.00     0.312 HD
ENDBRANCH  23  24
ENDBRANCH  22  23
ENDBRANCH  21  22
ENDBRANCH  10  21
BRANCH   1  27
HETATM   27  O1  UNL     1      25.367  -0.635  54.579  1.00  0.00    -0.353 OA
HETATM   28  C1  UNL     1      24.633  -1.259  55.571  1.00  0.00     0.210 C 
ENDBRANCH   1  27
TORSDOF 7
ENDMDL
MODEL 5
REMARK VINA RESULT:      -7.4      2.301      4.165
REMARK  7 active torsions:
REMARK  status: ('A' for Active; 'I' for Inactive)
REMARK    1  A    between atoms: O1_2  and  C2_3 
REMARK    2  A    between atoms: C6_9  and  N3_10 
REMARK    3  A    between atoms: N3_10  and  C7_11 
REMARK    4  A    between atoms: C15_21  and  O2_22 
REMARK    5  A    between atoms: O2_22  and  C16_23 
REMARK    6  A    between atoms: C16_23  and  C17_24 
REMARK    7  A    between atoms: C17_24  and  N4_25 
ROOT
HETATM    1  C2  UNL     1      19.564  -0.073  52.201  1.00  0.00     0.103 A 
HETATM    2  C3  UNL     1      19.875  -0.670  53.415  1.00  0.00     0.072 A 
HETATM    3  C4  UNL     1      21.185  -0.762  53.859  1.00  0.00     0.075 A 
HETATM    4  N1  UNL     1      21.508  -1.329  55.033  1.00  0.00    -0.241 NA
HETATM    5  C5  UNL     1      22.810  -1.372  55.401  1.00  0.00     0.236 A 
HETATM    6  N2  UNL     1      23.788  -0.862  54.616  1.00  0.00    -0.224 NA
HETATM    7  C6  UNL     1      23.518  -0.288  53.439  1.00  0.00     0.142 A 
HETATM    8  C13 UNL     1      22.190  -0.239  53.055  1.00  0.00     0.042 A 
HETATM    9  C14 UNL     1      21.901   0.355  51.851  1.00  0.00     0.057 A 
HETATM   10  C15 UNL     1      20.590   0.437  51.429  1.00  0.00     0.103 A 
ENDROOT
BRANCH   7  11
HETATM   11  N3  UNL     1      24.620   0.227  52.705  1.00  0.00    -0.340 N 
HETATM   12  H6  UNL     1      24.179   0.467  51.794  1.00  0.00     0.167 HD
BRANCH  11  13
HETATM   13  C7  UNL     1      25.991   0.417  53.008  1.00  0.00     0.035 A 
HETATM   14  C8  UNL     1      26.410   1.689  53.349  1.00  0.00     0.032 A 
HETATM   15  C9  UNL     1      27.750   1.809  53.652  1.00  0.00     0.046 A 
HETATM   16  C10 UNL     1      28.649   0.734  53.624  1.00  0.00     0.138 A 
HETATM   17  F1  UNL     1      29.964   0.976  53.947  1.00  0.00    -0.204 F 
HETATM   18  C11 UNL     1      28.172  -0.510  53.278  1.00  0.00     0.074 A 
HETATM   19 CL1  UNL     1      29.302  -1.869  53.244  1.00  0.00    -0.081 Cl
HETATM   20  C12 UNL     1      26.838  -0.673  52.967  1.00  0.00     0.056 A 
ENDBRANCH  11  13
ENDBRANCH   7  11
BRANCH  10  21
HETATM   21  O2  UNL     1      20.175   1.011  50.240  1.00  0.00    -0.347 OA
BRANCH  21  22
HETATM   22  C16 UNL     1      20.015   2.370  49.976  1.00  0.00     0.205 C 
BRANCH  22  23
HETATM   23  C17 UNL     1      18.822   2.595  49.035  1.00  0.00     0.293 C 
BRANCH  23  24
HETATM   24  N4  UNL     1      17.919   1.487  49.195  1.00  0.00     0.080 N 
HETATM   25  H15 UNL     1      18.391   0.596  48.932  1.00  0.00     0.312 HD
HETATM   26  H16 UNL     1      17.007   1.647  48.715  1.00  0.00     0.312 HD
ENDBRANCH  23  24
ENDBRANCH  22  23
ENDBRANCH  21  22
ENDBRANCH  10  21
BRANCH   1  27
HETATM   27  O1  UNL     1      18.249  -0.007  51.805  1.00  0.00    -0.353 OA
HETATM   28  C1  UNL     1      17.158  -0.700  52.295  1.00  0.00     0.210 C 
ENDBRANCH   1  27
TORSDOF 7
ENDMDL
MODEL 6
REMARK VINA RESULT:      -7.2      2.265      4.159
REMARK  7 active torsions:
REMARK  status: ('A' for Active; 'I' for Inactive)
REMARK    1  A    between atoms: O1_2  and  C2_3 
REMARK    2  A    between atoms: C6_9  and  N3_10 
REMARK    3  A    between atoms: N3_10  and  C7_11 
REMARK    4  A    between atoms: C15_21  and  O2_22 
REMARK    5  A    between atoms: O2_22  and  C16_23 
REMARK    6  A    between atoms: C16_23  and  C17_24 
REMARK    7  A    between atoms: C17_24  and  N4_25 
ROOT
HETATM    1  C2  UNL     1      22.380   2.544  49.982  1.00  0.00     0.103 A 
HETATM    2  C3  UNL     1      21.806   1.426  50.573  1.00  0.00     0.072 A 
HETATM    3  C4  UNL     1      22.410   0.787  51.645  1.00  0.00     0.075 A 
HETATM    4  N1  UNL     1      21.868  -0.290  52.237  1.00  0.00    -0.241 NA
HETATM    5  C5  UNL     1      22.514  -0.853  53.285  1.00  0.00     0.236 A 
HETATM    6  N2  UNL     1      23.687  -0.358  53.746  1.00  0.00    -0.224 NA
HETATM    7  C6  UNL     1      24.267   0.711  53.191  1.00  0.00     0.142 A 
HETATM    8  C13 UNL     1      23.613   1.294  52.120  1.00  0.00     0.042 A 
HETATM    9  C14 UNL     1      24.196   2.397  51.548  1.00  0.00     0.057 A 
HETATM   10  C15 UNL     1      23.578   3.018  50.482  1.00  0.00     0.103 A 
ENDROOT
BRANCH   7  11
HETATM   11  N3  UNL     1      25.489   1.153  53.765  1.00  0.00    -0.340 N 
HETATM   12  H6  UNL     1      25.182   1.979  54.317  1.00  0.00     0.167 HD
BRANCH  11  13
HETATM   13  C7  UNL     1      26.825   0.689  53.691  1.00  0.00     0.035 A 
HETATM   14  C8  UNL     1      27.841   1.595  53.932  1.00  0.00     0.032 A 
HETATM   15  C9  UNL     1      29.119   1.081  53.863  1.00  0.00     0.046 A 
HETATM   16  C10 UNL     1      29.400  -0.261  53.571  1.00  0.00     0.138 A 
HETATM   17  F1  UNL     1      30.717  -0.657  53.531  1.00  0.00    -0.204 F 
HETATM   18  C11 UNL     1      28.346  -1.116  53.340  1.00  0.00     0.074 A 
HETATM   19 CL1  UNL     1      28.695  -2.808  52.974  1.00  0.00    -0.081 Cl
HETATM   20  C12 UNL     1      27.052  -0.642  53.399  1.00  0.00     0.056 A 
ENDBRANCH  11  13
ENDBRANCH   7  11
BRANCH  10  21
HETATM   21  O2  UNL     1      24.065   4.135  49.825  1.00  0.00    -0.347 OA
BRANCH  21  22
HETATM   22  C16 UNL     1      24.762   5.202  50.388  1.00  0.00     0.205 C 
BRANCH  22  23
HETATM   23  C17 UNL     1      23.907   5.891  51.462  1.00  0.00     0.293 C 
BRANCH  23  24
HETATM   24  N4  UNL     1      24.479   7.186  51.717  1.00  0.00     0.080 N 
HETATM   25  H15 UNL     1      24.952   7.546  50.861  1.00  0.00     0.312 HD
HETATM   26  H16 UNL     1      25.076   7.194  52.572  1.00  0.00     0.312 HD
ENDBRANCH  23  24
ENDBRANCH  22  23
ENDBRANCH  21  22
ENDBRANCH  10  21
BRANCH   1  27
HETATM   27  O1  UNL     1      21.743   3.141  48.921  1.00  0.00    -0.353 OA
HETATM   28  C1  UNL     1      20.785   2.615  48.074  1.00  0.00     0.210 C 
ENDBRANCH   1  27
TORSDOF 7
ENDMDL
MODEL 7
REMARK VINA RESULT:      -7.1      2.690      4.972
REMARK  7 active torsions:
REMARK  status: ('A' for Active; 'I' for Inactive)
REMARK    1  A    between atoms: O1_2  and  C2_3 
REMARK    2  A    between atoms: C6_9  and  N3_10 
REMARK    3  A    between atoms: N3_10  and  C7_11 
REMARK    4  A    between atoms: C15_21  and  O2_22 
REMARK    5  A    between atoms: O2_22  and  C16_23 
REMARK    6  A    between atoms: C16_23  and  C17_24 
REMARK    7  A    between atoms: C17_24  and  N4_25 
ROOT
HETATM    1  C2  UNL     1      23.094   3.111  49.371  1.00  0.00     0.103 A 
HETATM    2  C3  UNL     1      22.140   2.146  49.666  1.00  0.00     0.072 A 
HETATM    3  C4  UNL     1      22.264   1.323  50.775  1.00  0.00     0.075 A 
HETATM    4  N1  UNL     1      21.349   0.390  51.082  1.00  0.00    -0.241 NA
HETATM    5  C5  UNL     1      21.537  -0.369  52.187  1.00  0.00     0.236 A 
HETATM    6  N2  UNL     1      22.620  -0.209  52.984  1.00  0.00    -0.224 NA
HETATM    7  C6  UNL     1      23.559   0.705  52.720  1.00  0.00     0.142 A 
HETATM    8  C13 UNL     1      23.375   1.486  51.593  1.00  0.00     0.042 A 
HETATM    9  C14 UNL     1      24.329   2.434  51.317  1.00  0.00     0.057 A 
HETATM   10  C15 UNL     1      24.185   3.243  50.209  1.00  0.00     0.103 A 
ENDROOT
BRANCH   7  11
HETATM   11  N3  UNL     1      24.645   0.796  53.631  1.00  0.00    -0.340 N 
HETATM   12  H6  UNL     1      24.190   1.208  54.470  1.00  0.00     0.167 HD
BRANCH  11  13
HETATM   13  C7  UNL     1      26.017   0.455  53.549  1.00  0.00     0.035 A 
HETATM   14  C8  UNL     1      26.352  -0.757  52.973  1.00  0.00     0.032 A 
HETATM   15  C9  UNL     1      27.703  -1.026  52.904  1.00  0.00     0.046 A 
HETATM   16  C10 UNL     1      28.691  -0.151  53.376  1.00  0.00     0.138 A 
HETATM   17  F1  UNL     1      30.008  -0.528  53.251  1.00  0.00    -0.204 F 
HETATM   18  C11 UNL     1      28.297   1.041  53.939  1.00  0.00     0.074 A 
HETATM   19 CL1  UNL     1      29.540   2.147  54.534  1.00  0.00    -0.081 Cl
HETATM   20  C12 UNL     1      26.955   1.348  54.028  1.00  0.00     0.056 A 
ENDBRANCH  11  13
ENDBRANCH   7  11
BRANCH  10  21
HETATM   21  O2  UNL     1      25.077   4.231  49.829  1.00  0.00    -0.347 OA
BRANCH  21  22
HETATM   22  C16 UNL     1      26.397   4.057  49.419  1.00  0.00     0.205 C 
BRANCH  22  23
HETATM   23  C17 UNL     1      26.905   5.317  48.703  1.00  0.00     0.293 C 
BRANCH  23  24
HETATM   24  N4  UNL     1      28.303   5.462  49.005  1.00  0.00     0.080 N 
HETATM   25  H15 UNL     1      28.869   4.818  48.413  1.00  0.00     0.312 HD
HETATM   26  H16 UNL     1      28.498   5.387  50.027  1.00  0.00     0.312 HD
ENDBRANCH  23  24
ENDBRANCH  22  23
ENDBRANCH  21  22
ENDBRANCH  10  21
BRANCH   1  27
HETATM   27  O1  UNL     1      22.926   3.902  48.260  1.00  0.00    -0.353 OA
HETATM   28  C1  UNL     1      22.258   5.107  48.145  1.00  0.00     0.210 C 
ENDBRANCH   1  27
TORSDOF 7
ENDMDL
MODEL 8
REMARK VINA RESULT:      -7.0      3.442      5.977
REMARK  7 active torsions:
REMARK  status: ('A' for Active; 'I' for Inactive)
REMARK    1  A    between atoms: O1_2  and  C2_3 
REMARK    2  A    between atoms: C6_9  and  N3_10 
REMARK    3  A    between atoms: N3_10  and  C7_11 
REMARK    4  A    between atoms: C15_21  and  O2_22 
REMARK    5  A    between atoms: O2_22  and  C16_23 
REMARK    6  A    between atoms: C16_23  and  C17_24 
REMARK    7  A    between atoms: C17_24  and  N4_25 
ROOT
HETATM    1  C2  UNL     1      24.589  -0.377  53.879  1.00  0.00     0.103 A 
HETATM    2  C3  UNL     1      23.211  -0.509  53.776  1.00  0.00     0.072 A 
HETATM    3  C4  UNL     1      22.494   0.149  52.788  1.00  0.00     0.075 A 
HETATM    4  N1  UNL     1      21.163   0.029  52.665  1.00  0.00    -0.241 NA
HETATM    5  C5  UNL     1      20.536   0.697  51.668  1.00  0.00     0.236 A 
HETATM    6  N2  UNL     1      21.218   1.479  50.798  1.00  0.00    -0.224 NA
HETATM    7  C6  UNL     1      22.544   1.631  50.879  1.00  0.00     0.142 A 
HETATM    8  C13 UNL     1      23.193   0.951  51.894  1.00  0.00     0.042 A 
HETATM    9  C14 UNL     1      24.555   1.094  51.981  1.00  0.00     0.057 A 
HETATM   10  C15 UNL     1      25.249   0.430  52.972  1.00  0.00     0.103 A 
ENDROOT
BRANCH   7  11
HETATM   11  N3  UNL     1      23.158   2.463  49.905  1.00  0.00    -0.340 N 
HETATM   12  H6  UNL     1      22.924   1.969  49.020  1.00  0.00     0.167 HD
BRANCH  11  13
HETATM   13  C7  UNL     1      23.909   3.662  49.981  1.00  0.00     0.035 A 
HETATM   14  C8  UNL     1      23.378   4.717  50.699  1.00  0.00     0.032 A 
HETATM   15  C9  UNL     1      24.162   5.850  50.752  1.00  0.00     0.046 A 
HETATM   16  C10 UNL     1      25.414   5.954  50.132  1.00  0.00     0.138 A 
HETATM   17  F1  UNL     1      26.107   7.137  50.257  1.00  0.00    -0.204 F 
HETATM   18  C11 UNL     1      25.892   4.870  49.432  1.00  0.00     0.074 A 
HETATM   19 CL1  UNL     1      27.471   4.997  48.650  1.00  0.00    -0.081 Cl
HETATM   20  C12 UNL     1      25.138   3.717  49.353  1.00  0.00     0.056 A 
ENDBRANCH  11  13
ENDBRANCH   7  11
BRANCH  10  21
HETATM   21  O2  UNL     1      26.618   0.494  53.160  1.00  0.00    -0.347 OA
BRANCH  21  22
HETATM   22  C16 UNL     1      27.567  -0.435  52.737  1.00  0.00     0.205 C 
BRANCH  22  23
HETATM   23  C17 UNL     1      28.801  -0.392  53.650  1.00  0.00     0.293 C 
BRANCH  23  24
HETATM   24  N4  UNL     1      28.342  -0.259  55.006  1.00  0.00     0.080 N 
HETATM   25  H15 UNL     1      28.952   0.404  55.529  1.00  0.00     0.312 HD
HETATM   26  H16 UNL     1      28.213  -1.182  55.473  1.00  0.00     0.312 HD
ENDBRANCH  23  24
ENDBRANCH  22  23
ENDBRANCH  21  22
ENDBRANCH  10  21
BRANCH   1  27
HETATM   27  O1  UNL     1      25.253  -1.050  54.877  1.00  0.00    -0.353 OA
HETATM   28  C1  UNL     1      25.022  -1.032  56.240  1.00  0.00     0.210 C 
ENDBRANCH   1  27
TORSDOF 7
ENDMDL
MODEL 9
REMARK VINA RESULT:      -7.0      4.286      7.282
REMARK  7 active torsions:
REMARK  status: ('A' for Active; 'I' for Inactive)
REMARK    1  A    between atoms: O1_2  and  C2_3 
REMARK    2  A    between atoms: C6_9  and  N3_10 
REMARK    3  A    between atoms: N3_10  and  C7_11 
REMARK    4  A    between atoms: C15_21  and  O2_22 
REMARK    5  A    between atoms: O2_22  and  C16_23 
REMARK    6  A    between atoms: C16_23  and  C17_24 
REMARK    7  A    between atoms: C17_24  and  N4_25 
ROOT
HETATM    1  C2  UNL     1      25.430   3.382  50.806  1.00  0.00     0.103 A 
HETATM    2  C3  UNL     1      26.120   2.235  51.176  1.00  0.00     0.072 A 
HETATM    3  C4  UNL     1      25.526   1.257  51.958  1.00  0.00     0.075 A 
HETATM    4  N1  UNL     1      26.172   0.137  52.321  1.00  0.00    -0.241 NA
HETATM    5  C5  UNL     1      25.521  -0.776  53.079  1.00  0.00     0.236 A 
HETATM    6  N2  UNL     1      24.241  -0.586  53.478  1.00  0.00    -0.224 NA
HETATM    7  C6  UNL     1      23.555   0.511  53.144  1.00  0.00     0.142 A 
HETATM    8  C13 UNL     1      24.213   1.450  52.369  1.00  0.00     0.042 A 
HETATM    9  C14 UNL     1      23.515   2.578  52.013  1.00  0.00     0.057 A 
HETATM   10  C15 UNL     1      24.125   3.539  51.233  1.00  0.00     0.103 A 
ENDROOT
BRANCH   7  11
HETATM   11  N3  UNL     1      22.214   0.600  53.605  1.00  0.00    -0.340 N 
HETATM   12  H6  UNL     1      22.337   1.032  54.543  1.00  0.00     0.167 HD
BRANCH  11  13
HETATM   13  C7  UNL     1      20.965   0.239  53.044  1.00  0.00     0.035 A 
HETATM   14  C8  UNL     1      20.548   0.904  51.906  1.00  0.00     0.032 A 
HETATM   15  C9  UNL     1      19.333   0.497  51.396  1.00  0.00     0.046 A 
HETATM   16  C10 UNL     1      18.553  -0.517  51.969  1.00  0.00     0.138 A 
HETATM   17  F1  UNL     1      17.357  -0.838  51.368  1.00  0.00    -0.204 F 
HETATM   18  C11 UNL     1      19.021  -1.143  53.102  1.00  0.00     0.074 A 
HETATM   19 CL1  UNL     1      18.042  -2.423  53.826  1.00  0.00    -0.081 Cl
HETATM   20  C12 UNL     1      20.232  -0.766  53.644  1.00  0.00     0.056 A 
ENDBRANCH  11  13
ENDBRANCH   7  11
BRANCH  10  21
HETATM   21  O2  UNL     1      23.526   4.713  50.811  1.00  0.00    -0.347 OA
BRANCH  21  22
HETATM   22  C16 UNL     1      23.287   5.854  51.575  1.00  0.00     0.205 C 
BRANCH  22  23
HETATM   23  C17 UNL     1      23.924   7.085  50.912  1.00  0.00     0.293 C 
BRANCH  23  24
HETATM   24  N4  UNL     1      25.335   7.052  51.185  1.00  0.00     0.080 N 
HETATM   25  H15 UNL     1      25.734   6.129  50.911  1.00  0.00     0.312 HD
HETATM   26  H16 UNL     1      25.556   7.341  52.163  1.00  0.00     0.312 HD
ENDBRANCH  23  24
ENDBRANCH  22  23
ENDBRANCH  21  22
ENDBRANCH  10  21
BRANCH   1  27
HETATM   27  O1  UNL     1      26.063   4.323  50.030  1.00  0.00    -0.353 OA
HETATM   28  C1  UNL     1      27.089   4.151  49.119  1.00  0.00     0.210 C 
ENDBRANCH   1  27
TORSDOF 7
ENDMDL
