MODEL 1
REMARK VINA RESULT:      -7.3      0.000      0.000
REMARK  0 active torsions:
REMARK  status: ('A' for Active; 'I' for Inactive)
ROOT
HETATM    1  F1  UNL     1      27.758   2.871  53.938  1.00  0.00    -0.184 F 
HETATM    2  C1  UNL     1      27.271   1.801  53.281  1.00  0.00     0.207 C 
HETATM    3  C2  UNL     1      26.717   0.754  52.691  1.00  0.00     0.042 C 
HETATM    4  C3  UNL     1      25.618  -0.185  52.576  1.00  0.00     0.027 C 
HETATM    5  C4  UNL     1      24.458  -0.662  52.955  1.00  0.00     0.025 C 
HETATM    6  C5  UNL     1      23.135  -0.978  53.616  1.00  0.00     0.181 C 
HETATM    7  O1  UNL     1      22.111  -0.801  52.579  1.00  0.00    -0.349 OA
HETATM    8  C6  UNL     1      22.082   0.544  52.091  1.00  0.00     0.090 A 
HETATM    9  C7  UNL     1      22.655   1.086  50.976  1.00  0.00     0.041 A 
HETATM   10  C8  UNL     1      22.441   2.431  50.812  1.00  0.00     0.034 A 
HETATM   11  C9  UNL     1      21.699   3.152  51.720  1.00  0.00     0.050 A 
HETATM   12  C10 UNL     1      21.130   2.574  52.836  1.00  0.00     0.057 A 
HETATM   13  C11 UNL     1      21.329   1.224  53.024  1.00  0.00     0.069 A 
HETATM   14 CL1  UNL     1      20.527   0.685  54.483  1.00  0.00    -0.081 Cl
HETATM   15  N1  UNL     1      21.611   4.556  51.418  1.00  0.00    -0.300 N 
HETATM   16  N2  UNL     1      22.434   4.949  52.485  1.00  0.00    -0.294 N 
HETATM   17  C12 UNL     1      23.736   4.701  52.995  1.00  0.00     0.224 C 
HETATM   18  N3  UNL     1      23.890   3.403  52.997  1.00  0.00    -0.236 NA
HETATM   19  C13 UNL     1      25.120   2.804  53.460  1.00  0.00     0.237 C 
HETATM   20  N4  UNL     1      26.162   2.288  54.091  1.00  0.00    -0.214 NA
HETATM   21  H9  UNL     1      21.197   5.250  50.764  1.00  0.00     0.187 HD
HETATM   22  H10 UNL     1      21.885   5.632  53.057  1.00  0.00     0.187 HD
ENDROOT
TORSDOF 0
ENDMDL
MODEL 2
REMARK VINA RESULT:      -7.3      3.414      4.881
REMARK  0 active torsions:
REMARK  status: ('A' for Active; 'I' for Inactive)
ROOT
HETATM    1  F1  UNL     1      19.308   0.341  50.537  1.00  0.00    -0.184 F 
HETATM    2  C1  UNL     1      19.859   0.440  51.762  1.00  0.00     0.207 C 
HETATM    3  C2  UNL     1      20.480   0.505  52.929  1.00  0.00     0.042 C 
HETATM    4  C3  UNL     1      21.675   0.308  53.725  1.00  0.00     0.027 C 
HETATM    5  C4  UNL     1      22.921  -0.069  53.870  1.00  0.00     0.025 C 
HETATM    6  C5  UNL     1      24.338  -0.579  53.722  1.00  0.00     0.181 C 
HETATM    7  O1  UNL     1      25.213   0.555  54.045  1.00  0.00    -0.349 OA
HETATM    8  C6  UNL     1      25.012   1.650  53.144  1.00  0.00     0.090 A 
HETATM    9  C7  UNL     1      24.256   2.778  53.289  1.00  0.00     0.041 A 
HETATM   10  C8  UNL     1      24.272   3.626  52.212  1.00  0.00     0.034 A 
HETATM   11  C9  UNL     1      25.005   3.334  51.084  1.00  0.00     0.050 A 
HETATM   12  C10 UNL     1      25.762   2.186  50.970  1.00  0.00     0.057 A 
HETATM   13  C11 UNL     1      25.763   1.317  52.038  1.00  0.00     0.069 A 
HETATM   14 CL1  UNL     1      26.781  -0.065  51.700  1.00  0.00    -0.081 Cl
HETATM   15  N1  UNL     1      24.874   4.309  50.033  1.00  0.00    -0.300 N 
HETATM   16  N2  UNL     1      24.124   3.468  49.196  1.00  0.00    -0.294 N 
HETATM   17  C12 UNL     1      22.929   2.702  49.222  1.00  0.00     0.224 C 
HETATM   18  N3  UNL     1      22.949   2.025  50.340  1.00  0.00    -0.236 NA
HETATM   19  C13 UNL     1      21.866   1.134  50.685  1.00  0.00     0.237 C 
HETATM   20  N4  UNL     1      20.974   0.173  50.862  1.00  0.00    -0.214 NA
HETATM   21  H9  UNL     1      25.121   5.279  49.753  1.00  0.00     0.187 HD
HETATM   22  H10 UNL     1      24.636   3.411  48.285  1.00  0.00     0.187 HD
ENDROOT
TORSDOF 0
ENDMDL
MODEL 3
REMARK VINA RESULT:      -7.2      3.421      4.929
REMARK  0 active torsions:
REMARK  status: ('A' for Active; 'I' for Inactive)
ROOT
HETATM    1  F1  UNL     1      28.346   4.760  48.584  1.00  0.00    -0.184 F 
HETATM    2  C1  UNL     1      27.178   5.386  48.825  1.00  0.00     0.207 C 
HETATM    3  C2  UNL     1      25.987   5.919  49.047  1.00  0.00     0.042 C 
HETATM    4  C3  UNL     1      24.547   5.776  49.137  1.00  0.00     0.027 C 
HETATM    5  C4  UNL     1      23.445   5.072  49.055  1.00  0.00     0.025 C 
HETATM    6  C5  UNL     1      22.376   4.018  48.879  1.00  0.00     0.181 C 
HETATM    7  O1  UNL     1      21.722   3.878  50.186  1.00  0.00    -0.349 OA
HETATM    8  C6  UNL     1      22.644   3.446  51.193  1.00  0.00     0.090 A 
HETATM    9  C7  UNL     1      23.332   4.172  52.122  1.00  0.00     0.041 A 
HETATM   10  C8  UNL     1      24.156   3.437  52.935  1.00  0.00     0.034 A 
HETATM   11  C9  UNL     1      24.259   2.071  52.800  1.00  0.00     0.050 A 
HETATM   12  C10 UNL     1      23.547   1.366  51.852  1.00  0.00     0.057 A 
HETATM   13  C11 UNL     1      22.712   2.080  51.022  1.00  0.00     0.069 A 
HETATM   14 CL1  UNL     1      21.899   1.010  49.902  1.00  0.00    -0.081 Cl
HETATM   15  N1  UNL     1      25.200   1.464  53.703  1.00  0.00    -0.300 N 
HETATM   16  N2  UNL     1      26.136   1.164  52.701  1.00  0.00    -0.294 N 
HETATM   17  C12 UNL     1      26.880   1.820  51.685  1.00  0.00     0.224 C 
HETATM   18  N3  UNL     1      26.035   2.587  51.047  1.00  0.00    -0.236 NA
HETATM   19  C13 UNL     1      26.470   3.405  49.939  1.00  0.00     0.237 C 
HETATM   20  N4  UNL     1      26.853   3.966  48.804  1.00  0.00    -0.214 NA
HETATM   21  H9  UNL     1      25.370   1.221  54.700  1.00  0.00     0.187 HD
HETATM   22  H10 UNL     1      26.313   0.134  52.749  1.00  0.00     0.187 HD
ENDROOT
TORSDOF 0
ENDMDL
MODEL 4
REMARK VINA RESULT:      -7.1      2.929      3.958
REMARK  0 active torsions:
REMARK  status: ('A' for Active; 'I' for Inactive)
ROOT
HETATM    1  F1  UNL     1      26.441  -0.264  54.566  1.00  0.00    -0.184 F 
HETATM    2  C1  UNL     1      26.054   0.947  54.122  1.00  0.00     0.207 C 
HETATM    3  C2  UNL     1      25.636   2.094  53.611  1.00  0.00     0.042 C 
HETATM    4  C3  UNL     1      24.951   2.823  52.562  1.00  0.00     0.027 C 
HETATM    5  C4  UNL     1      24.306   2.881  51.423  1.00  0.00     0.025 C 
HETATM    6  C5  UNL     1      23.606   2.626  50.107  1.00  0.00     0.181 C 
HETATM    7  O1  UNL     1      22.218   3.069  50.292  1.00  0.00    -0.349 OA
HETATM    8  C6  UNL     1      21.561   2.325  51.324  1.00  0.00     0.090 A 
HETATM    9  C7  UNL     1      21.357   2.638  52.637  1.00  0.00     0.041 A 
HETATM   10  C8  UNL     1      20.696   1.681  53.363  1.00  0.00     0.034 A 
HETATM   11  C9  UNL     1      20.282   0.504  52.783  1.00  0.00     0.050 A 
HETATM   12  C10 UNL     1      20.500   0.219  51.451  1.00  0.00     0.057 A 
HETATM   13  C11 UNL     1      21.162   1.164  50.699  1.00  0.00     0.069 A 
HETATM   14 CL1  UNL     1      21.333   0.619  49.045  1.00  0.00    -0.081 Cl
HETATM   15  N1  UNL     1      19.645  -0.406  53.697  1.00  0.00    -0.300 N 
HETATM   16  N2  UNL     1      20.706  -1.324  53.697  1.00  0.00    -0.294 N 
HETATM   17  C12 UNL     1      22.102  -1.363  53.956  1.00  0.00     0.224 C 
HETATM   18  N3  UNL     1      22.623  -0.345  53.324  1.00  0.00    -0.236 NA
HETATM   19  C13 UNL     1      24.043  -0.088  53.379  1.00  0.00     0.237 C 
HETATM   20  N4  UNL     1      25.360  -0.012  53.272  1.00  0.00    -0.214 NA
HETATM   21  H9  UNL     1      18.786  -0.564  54.262  1.00  0.00     0.187 HD
HETATM   22  H10 UNL     1      20.308  -2.249  53.412  1.00  0.00     0.187 HD
ENDROOT
TORSDOF 0
ENDMDL
MODEL 5
REMARK VINA RESULT:      -7.1      3.276      4.905
REMARK  0 active torsions:
REMARK  status: ('A' for Active; 'I' for Inactive)
ROOT
HETATM    1  F1  UNL     1      22.257   3.426  46.182  1.00  0.00    -0.184 F 
HETATM    2  C1  UNL     1      21.326   2.998  47.056  1.00  0.00     0.207 C 
HETATM    3  C2  UNL     1      20.480   2.538  47.964  1.00  0.00     0.042 C 
HETATM    4  C3  UNL     1      20.232   1.792  49.181  1.00  0.00     0.027 C 
HETATM    5  C4  UNL     1      20.630   1.064  50.195  1.00  0.00     0.025 C 
HETATM    6  C5  UNL     1      21.383   0.257  51.230  1.00  0.00     0.181 C 
HETATM    7  O1  UNL     1      21.195   0.957  52.506  1.00  0.00    -0.349 OA
HETATM    8  C6  UNL     1      21.733   2.284  52.464  1.00  0.00     0.090 A 
HETATM    9  C7  UNL     1      21.109   3.477  52.238  1.00  0.00     0.041 A 
HETATM   10  C8  UNL     1      21.935   4.572  52.250  1.00  0.00     0.034 A 
HETATM   11  C9  UNL     1      23.286   4.445  52.476  1.00  0.00     0.050 A 
HETATM   12  C10 UNL     1      23.887   3.224  52.704  1.00  0.00     0.057 A 
HETATM   13  C11 UNL     1      23.080   2.108  52.698  1.00  0.00     0.069 A 
HETATM   14 CL1  UNL     1      24.024   0.669  53.011  1.00  0.00    -0.081 Cl
HETATM   15  N1  UNL     1      24.009   5.688  52.410  1.00  0.00    -0.300 N 
HETATM   16  N2  UNL     1      24.656   5.375  51.204  1.00  0.00    -0.294 N 
HETATM   17  C12 UNL     1      24.337   4.993  49.874  1.00  0.00     0.224 C 
HETATM   18  N3  UNL     1      23.456   4.032  49.967  1.00  0.00    -0.236 NA
HETATM   19  C13 UNL     1      22.912   3.410  48.783  1.00  0.00     0.237 C 
HETATM   20  N4  UNL     1      22.605   2.721  47.695  1.00  0.00    -0.214 NA
HETATM   21  H9  UNL     1      24.171   6.591  52.898  1.00  0.00     0.187 HD
HETATM   22  H10 UNL     1      25.683   5.458  51.380  1.00  0.00     0.187 HD
ENDROOT
TORSDOF 0
ENDMDL
MODEL 6
REMARK VINA RESULT:      -6.9     11.915     13.461
REMARK  0 active torsions:
REMARK  status: ('A' for Active; 'I' for Inactive)
ROOT
HETATM    1  F1  UNL     1      34.292   4.131  42.727  1.00  0.00    -0.184 F 
HETATM    2  C1  UNL     1      34.270   5.441  43.035  1.00  0.00     0.207 C 
HETATM    3  C2  UNL     1      34.181   6.710  43.401  1.00  0.00     0.042 C 
HETATM    4  C3  UNL     1      33.572   7.738  44.222  1.00  0.00     0.027 C 
HETATM    5  C4  UNL     1      32.714   8.140  45.127  1.00  0.00     0.025 C 
HETATM    6  C5  UNL     1      31.635   8.293  46.175  1.00  0.00     0.181 C 
HETATM    7  O1  UNL     1      32.310   8.775  47.386  1.00  0.00    -0.349 OA
HETATM    8  C6  UNL     1      33.287   7.838  47.853  1.00  0.00     0.090 A 
HETATM    9  C7  UNL     1      34.639   7.811  47.659  1.00  0.00     0.041 A 
HETATM   10  C8  UNL     1      35.284   6.749  48.240  1.00  0.00     0.034 A 
HETATM   11  C9  UNL     1      34.593   5.800  48.958  1.00  0.00     0.050 A 
HETATM   12  C10 UNL     1      33.227   5.858  49.139  1.00  0.00     0.057 A 
HETATM   13  C11 UNL     1      32.554   6.914  48.566  1.00  0.00     0.069 A 
HETATM   14 CL1  UNL     1      30.842   6.811  48.913  1.00  0.00    -0.081 Cl
HETATM   15  N1  UNL     1      35.418   4.733  49.460  1.00  0.00    -0.300 N 
HETATM   16  N2  UNL     1      34.899   3.769  48.581  1.00  0.00    -0.294 N 
HETATM   17  C12 UNL     1      34.726   3.559  47.187  1.00  0.00     0.224 C 
HETATM   18  N3  UNL     1      34.223   4.665  46.706  1.00  0.00    -0.236 NA
HETATM   19  C13 UNL     1      33.923   4.792  45.299  1.00  0.00     0.237 C 
HETATM   20  N4  UNL     1      33.461   4.794  44.059  1.00  0.00    -0.214 NA
HETATM   21  H9  UNL     1      36.154   4.497  50.155  1.00  0.00     0.187 HD
HETATM   22  H10 UNL     1      34.536   2.985  49.169  1.00  0.00     0.187 HD
ENDROOT
TORSDOF 0
ENDMDL
MODEL 7
REMARK VINA RESULT:      -6.9      3.300      4.549
REMARK  0 active torsions:
REMARK  status: ('A' for Active; 'I' for Inactive)
ROOT
HETATM    1  F1  UNL     1      19.864  -0.416  52.024  1.00  0.00    -0.184 F 
HETATM    2  C1  UNL     1      20.978  -0.404  52.781  1.00  0.00     0.207 C 
HETATM    3  C2  UNL     1      22.120  -0.365  53.448  1.00  0.00     0.042 C 
HETATM    4  C3  UNL     1      23.549  -0.126  53.474  1.00  0.00     0.027 C 
HETATM    5  C4  UNL     1      24.682   0.187  52.894  1.00  0.00     0.025 C 
HETATM    6  C5  UNL     1      25.806   0.570  51.958  1.00  0.00     0.181 C 
HETATM    7  O1  UNL     1      26.339   1.842  52.461  1.00  0.00    -0.349 OA
HETATM    8  C6  UNL     1      25.345   2.873  52.447  1.00  0.00     0.090 A 
HETATM    9  C7  UNL     1      24.544   3.333  53.452  1.00  0.00     0.041 A 
HETATM   10  C8  UNL     1      23.678   4.333  53.089  1.00  0.00     0.034 A 
HETATM   11  C9  UNL     1      23.645   4.815  51.801  1.00  0.00     0.050 A 
HETATM   12  C10 UNL     1      24.471   4.331  50.807  1.00  0.00     0.057 A 
HETATM   13  C11 UNL     1      25.350   3.326  51.145  1.00  0.00     0.069 A 
HETATM   14 CL1  UNL     1      26.307   2.857  49.758  1.00  0.00    -0.081 Cl
HETATM   15  N1  UNL     1      22.649   5.831  51.582  1.00  0.00    -0.300 N 
HETATM   16  N2  UNL     1      21.823   5.009  50.799  1.00  0.00    -0.294 N 
HETATM   17  C12 UNL     1      21.152   3.760  50.879  1.00  0.00     0.224 C 
HETATM   18  N3  UNL     1      22.021   2.904  51.349  1.00  0.00    -0.236 NA
HETATM   19  C13 UNL     1      21.659   1.522  51.557  1.00  0.00     0.237 C 
HETATM   20  N4  UNL     1      21.361   0.232  51.527  1.00  0.00    -0.214 NA
HETATM   21  H9  UNL     1      22.396   6.817  51.792  1.00  0.00     0.187 HD
HETATM   22  H10 UNL     1      21.686   5.499  49.885  1.00  0.00     0.187 HD
ENDROOT
TORSDOF 0
ENDMDL
MODEL 8
REMARK VINA RESULT:      -6.7     10.509     12.117
REMARK  0 active torsions:
REMARK  status: ('A' for Active; 'I' for Inactive)
ROOT
HETATM    1  F1  UNL     1      32.269   1.638  47.269  1.00  0.00    -0.184 F 
HETATM    2  C1  UNL     1      33.264   2.451  46.866  1.00  0.00     0.207 C 
HETATM    3  C2  UNL     1      34.177   3.303  46.428  1.00  0.00     0.042 C 
HETATM    4  C3  UNL     1      34.521   4.501  45.688  1.00  0.00     0.027 C 
HETATM    5  C4  UNL     1      34.206   5.536  44.949  1.00  0.00     0.025 C 
HETATM    6  C5  UNL     1      33.541   6.613  44.122  1.00  0.00     0.181 C 
HETATM    7  O1  UNL     1      33.788   7.878  44.826  1.00  0.00    -0.349 OA
HETATM    8  C6  UNL     1      33.213   7.872  46.137  1.00  0.00     0.090 A 
HETATM    9  C7  UNL     1      33.790   7.611  47.347  1.00  0.00     0.041 A 
HETATM   10  C8  UNL     1      32.938   7.676  48.419  1.00  0.00     0.034 A 
HETATM   11  C9  UNL     1      31.607   7.985  48.256  1.00  0.00     0.050 A 
HETATM   12  C10 UNL     1      31.055   8.248  47.019  1.00  0.00     0.057 A 
HETATM   13  C11 UNL     1      31.889   8.189  45.925  1.00  0.00     0.069 A 
HETATM   14 CL1  UNL     1      31.005   8.557  44.461  1.00  0.00    -0.081 Cl
HETATM   15  N1  UNL     1      30.848   7.967  49.478  1.00  0.00    -0.300 N 
HETATM   16  N2  UNL     1      30.136   6.803  49.149  1.00  0.00    -0.294 N 
HETATM   17  C12 UNL     1      30.382   5.455  48.777  1.00  0.00     0.224 C 
HETATM   18  N3  UNL     1      31.292   5.491  47.840  1.00  0.00    -0.236 NA
HETATM   19  C13 UNL     1      31.778   4.274  47.233  1.00  0.00     0.237 C 
HETATM   20  N4  UNL     1      32.035   3.168  46.554  1.00  0.00    -0.214 NA
HETATM   21  H9  UNL     1      30.693   8.467  50.377  1.00  0.00     0.187 HD
HETATM   22  H10 UNL     1      29.120   7.043  49.204  1.00  0.00     0.187 HD
ENDROOT
TORSDOF 0
ENDMDL
MODEL 9
REMARK VINA RESULT:      -6.5     10.636     12.154
REMARK  0 active torsions:
REMARK  status: ('A' for Active; 'I' for Inactive)
ROOT
HETATM    1  F1  UNL     1      35.063   4.411  48.765  1.00  0.00    -0.184 F 
HETATM    2  C1  UNL     1      35.234   5.745  48.683  1.00  0.00     0.207 C 
HETATM    3  C2  UNL     1      35.344   7.054  48.528  1.00  0.00     0.042 C 
HETATM    4  C3  UNL     1      35.003   8.265  47.808  1.00  0.00     0.027 C 
HETATM    5  C4  UNL     1      34.392   8.904  46.841  1.00  0.00     0.025 C 
HETATM    6  C5  UNL     1      33.584   9.345  45.641  1.00  0.00     0.181 C 
HETATM    7  O1  UNL     1      32.552  10.252  46.157  1.00  0.00    -0.349 OA
HETATM    8  C6  UNL     1      31.687   9.591  47.088  1.00  0.00     0.090 A 
HETATM    9  C7  UNL     1      31.714   9.577  48.453  1.00  0.00     0.041 A 
HETATM   10  C8  UNL     1      30.735   8.819  49.043  1.00  0.00     0.034 A 
HETATM   11  C9  UNL     1      29.808   8.136  48.288  1.00  0.00     0.050 A 
HETATM   12  C10 UNL     1      29.806   8.174  46.908  1.00  0.00     0.057 A 
HETATM   13  C11 UNL     1      30.779   8.928  46.291  1.00  0.00     0.069 A 
HETATM   14 CL1  UNL     1      30.602   8.852  44.552  1.00  0.00    -0.081 Cl
HETATM   15  N1  UNL     1      28.882   7.357  49.064  1.00  0.00    -0.300 N 
HETATM   16  N2  UNL     1      29.420   6.121  48.671  1.00  0.00    -0.294 N 
HETATM   17  C12 UNL     1      30.664   5.435  48.671  1.00  0.00     0.224 C 
HETATM   18  N3  UNL     1      31.550   6.277  48.210  1.00  0.00    -0.236 NA
HETATM   19  C13 UNL     1      32.936   5.895  48.078  1.00  0.00     0.237 C 
HETATM   20  N4  UNL     1      34.141   5.443  47.768  1.00  0.00    -0.214 NA
HETATM   21  H9  UNL     1      28.074   7.418  49.716  1.00  0.00     0.187 HD
HETATM   22  H10 UNL     1      28.637   5.567  48.254  1.00  0.00     0.187 HD
ENDROOT
TORSDOF 0
ENDMDL
