MODEL 1
REMARK VINA RESULT:      -8.0      0.000      0.000
REMARK  1 active torsions:
REMARK  status: ('A' for Active; 'I' for Inactive)
REMARK       I    between atoms: C3_3  and  N1_5 
REMARK    1  A    between atoms: N1_5  and  C4_6 
ROOT
HETATM    1  C1  UNL     1      29.690  -1.126  53.457  1.00  0.00     0.022 C 
HETATM    2  C2  UNL     1      28.677  -0.544  53.713  1.00  0.00    -0.016 C 
HETATM    3  C3  UNL     1      27.463   0.136  53.997  1.00  0.00     0.299 C 
HETATM    4  O1  UNL     1      27.377   0.911  54.972  1.00  0.00    -0.258 OA
HETATM    5  N1  UNL     1      26.219   0.130  53.369  1.00  0.00    -0.319 N 
HETATM    6  H2  UNL     1      26.445  -0.551  52.573  1.00  0.00     0.169 HD
ENDROOT
BRANCH   5   7
HETATM    7  C4  UNL     1      24.874   0.434  53.101  1.00  0.00     0.028 C 
HETATM    8  C5  UNL     1      24.526   1.299  52.195  1.00  0.00     0.028 C 
HETATM    9  C6  UNL     1      25.375   2.104  51.312  1.00  0.00     0.067 C 
HETATM   10  S1  UNL     1      22.930   1.731  51.708  1.00  0.00    -0.004 SA
HETATM   11  C7  UNL     1      24.530   3.054  50.522  1.00  0.00     0.129 C 
HETATM   12  N2  UNL     1      23.157   2.816  50.688  1.00  0.00    -0.166 NA
HETATM   13  N3  UNL     1      21.673   1.607  52.748  1.00  0.00    -0.340 N 
HETATM   14  C8  UNL     1      20.578   2.469  52.743  1.00  0.00     0.159 C 
HETATM   15  C13 UNL     1      21.521   0.369  53.466  1.00  0.00     0.096 C 
HETATM   16  C9  UNL     1      19.524   1.849  51.858  1.00  0.00    -0.004 C 
HETATM   17  C10 UNL     1      19.443   0.541  52.076  1.00  0.00    -0.084 C 
HETATM   18  C11 UNL     1      18.430  -0.204  51.258  1.00  0.00     0.043 C 
HETATM   19  C12 UNL     1      20.235  -0.283  53.032  1.00  0.00     0.059 C 
HETATM   20  C14 UNL     1      22.664  -0.584  53.131  1.00  0.00     0.032 C 
HETATM   21  C15 UNL     1      23.869  -0.287  53.944  1.00  0.00     0.060 C 
ENDBRANCH   5   7
TORSDOF 1
ENDMDL
MODEL 2
REMARK VINA RESULT:      -7.8      1.430      3.013
REMARK  1 active torsions:
REMARK  status: ('A' for Active; 'I' for Inactive)
REMARK       I    between atoms: C3_3  and  N1_5 
REMARK    1  A    between atoms: N1_5  and  C4_6 
ROOT
HETATM    1  C1  UNL     1      30.126  -1.220  53.787  1.00  0.00     0.022 C 
HETATM    2  C2  UNL     1      29.108  -0.609  53.932  1.00  0.00    -0.016 C 
HETATM    3  C3  UNL     1      27.888   0.103  54.085  1.00  0.00     0.299 C 
HETATM    4  O1  UNL     1      27.753   0.950  54.990  1.00  0.00    -0.258 OA
HETATM    5  N1  UNL     1      26.688   0.062  53.379  1.00  0.00    -0.319 N 
HETATM    6  H2  UNL     1      26.954  -0.680  52.652  1.00  0.00     0.169 HD
ENDROOT
BRANCH   5   7
HETATM    7  C4  UNL     1      25.367   0.358  53.002  1.00  0.00     0.028 C 
HETATM    8  C5  UNL     1      24.341  -0.088  53.665  1.00  0.00     0.028 C 
HETATM    9  C6  UNL     1      24.310  -0.941  54.857  1.00  0.00     0.067 C 
HETATM   10  S1  UNL     1      22.674   0.237  53.369  1.00  0.00    -0.004 SA
HETATM   11  C7  UNL     1      22.895  -1.300  55.188  1.00  0.00     0.129 C 
HETATM   12  N2  UNL     1      21.966  -0.601  54.403  1.00  0.00    -0.166 NA
HETATM   13  N3  UNL     1      22.144   0.597  51.864  1.00  0.00    -0.340 N 
HETATM   14  C8  UNL     1      20.886   0.239  51.382  1.00  0.00     0.159 C 
HETATM   15  C13 UNL     1      22.856   1.609  51.130  1.00  0.00     0.096 C 
HETATM   16  C9  UNL     1      19.952   1.391  51.668  1.00  0.00    -0.004 C 
HETATM   17  C10 UNL     1      20.549   2.549  51.409  1.00  0.00    -0.084 C 
HETATM   18  C11 UNL     1      19.731   3.783  51.650  1.00  0.00     0.043 C 
HETATM   19  C12 UNL     1      21.933   2.778  50.907  1.00  0.00     0.059 C 
HETATM   20  C14 UNL     1      24.053   2.105  51.934  1.00  0.00     0.032 C 
HETATM   21  C15 UNL     1      25.220   1.203  51.775  1.00  0.00     0.060 C 
ENDBRANCH   5   7
TORSDOF 1
ENDMDL
MODEL 3
REMARK VINA RESULT:      -7.5      2.891      4.750
REMARK  1 active torsions:
REMARK  status: ('A' for Active; 'I' for Inactive)
REMARK       I    between atoms: C3_3  and  N1_5 
REMARK    1  A    between atoms: N1_5  and  C4_6 
ROOT
HETATM    1  C1  UNL     1      29.018   5.487  48.191  1.00  0.00     0.022 C 
HETATM    2  C2  UNL     1      27.960   5.147  48.635  1.00  0.00    -0.016 C 
HETATM    3  C3  UNL     1      26.716   4.726  49.175  1.00  0.00     0.299 C 
HETATM    4  O1  UNL     1      25.660   5.328  48.893  1.00  0.00    -0.258 OA
HETATM    5  N1  UNL     1      26.377   3.687  50.038  1.00  0.00    -0.319 N 
HETATM    6  H2  UNL     1      27.354   3.270  50.179  1.00  0.00     0.169 HD
ENDROOT
BRANCH   5   7
HETATM    7  C4  UNL     1      25.594   2.835  50.836  1.00  0.00     0.028 C 
HETATM    8  C5  UNL     1      26.056   2.279  51.917  1.00  0.00     0.028 C 
HETATM    9  C6  UNL     1      27.391   2.388  52.514  1.00  0.00     0.067 C 
HETATM   10  S1  UNL     1      25.208   1.270  53.027  1.00  0.00    -0.004 SA
HETATM   11  C7  UNL     1      27.498   1.466  53.688  1.00  0.00     0.129 C 
HETATM   12  N2  UNL     1      26.269   0.881  54.025  1.00  0.00    -0.166 NA
HETATM   13  N3  UNL     1      23.940   0.362  52.536  1.00  0.00    -0.340 N 
HETATM   14  C8  UNL     1      23.626  -0.884  53.076  1.00  0.00     0.159 C 
HETATM   15  C13 UNL     1      22.913   1.012  51.766  1.00  0.00     0.096 C 
HETATM   16  C9  UNL     1      22.646  -0.652  54.200  1.00  0.00    -0.004 C 
HETATM   17  C10 UNL     1      21.744   0.258  53.850  1.00  0.00    -0.084 C 
HETATM   18  C11 UNL     1      20.703   0.587  54.880  1.00  0.00     0.043 C 
HETATM   19  C12 UNL     1      21.634   0.996  52.561  1.00  0.00     0.059 C 
HETATM   20  C14 UNL     1      23.284   2.468  51.506  1.00  0.00     0.032 C 
HETATM   21  C15 UNL     1      24.200   2.593  50.346  1.00  0.00     0.060 C 
ENDBRANCH   5   7
TORSDOF 1
ENDMDL
MODEL 4
REMARK VINA RESULT:      -7.3      1.740      2.116
REMARK  1 active torsions:
REMARK  status: ('A' for Active; 'I' for Inactive)
REMARK       I    between atoms: C3_3  and  N1_5 
REMARK    1  A    between atoms: N1_5  and  C4_6 
ROOT
HETATM    1  C1  UNL     1      29.982  -0.458  53.746  1.00  0.00     0.022 C 
HETATM    2  C2  UNL     1      29.128   0.375  53.651  1.00  0.00    -0.016 C 
HETATM    3  C3  UNL     1      28.100   1.347  53.524  1.00  0.00     0.299 C 
HETATM    4  O1  UNL     1      28.191   2.451  54.098  1.00  0.00    -0.258 OA
HETATM    5  N1  UNL     1      26.891   1.343  52.832  1.00  0.00    -0.319 N 
HETATM    6  H2  UNL     1      26.958   0.366  52.397  1.00  0.00     0.169 HD
ENDROOT
BRANCH   5   7
HETATM    7  C4  UNL     1      25.652   1.784  52.337  1.00  0.00     0.028 C 
HETATM    8  C5  UNL     1      25.556   2.550  51.291  1.00  0.00     0.028 C 
HETATM    9  C6  UNL     1      26.623   3.101  50.449  1.00  0.00     0.067 C 
HETATM   10  S1  UNL     1      24.119   3.118  50.529  1.00  0.00    -0.004 SA
HETATM   11  C7  UNL     1      26.037   4.034  49.435  1.00  0.00     0.129 C 
HETATM   12  N2  UNL     1      24.635   4.008  49.427  1.00  0.00    -0.166 NA
HETATM   13  N3  UNL     1      22.737   3.312  51.383  1.00  0.00    -0.340 N 
HETATM   14  C8  UNL     1      21.795   4.304  51.114  1.00  0.00     0.159 C 
HETATM   15  C13 UNL     1      22.310   2.221  52.217  1.00  0.00     0.096 C 
HETATM   16  C9  UNL     1      20.779   3.712  50.168  1.00  0.00    -0.004 C 
HETATM   17  C10 UNL     1      20.474   2.471  50.530  1.00  0.00    -0.084 C 
HETATM   18  C11 UNL     1      19.470   1.759  49.671  1.00  0.00     0.043 C 
HETATM   19  C12 UNL     1      21.004   1.692  51.684  1.00  0.00     0.059 C 
HETATM   20  C14 UNL     1      23.327   1.086  52.171  1.00  0.00     0.032 C 
HETATM   21  C15 UNL     1      24.451   1.330  53.107  1.00  0.00     0.060 C 
ENDBRANCH   5   7
TORSDOF 1
ENDMDL
MODEL 5
REMARK VINA RESULT:      -7.3      3.140      4.476
REMARK  1 active torsions:
REMARK  status: ('A' for Active; 'I' for Inactive)
REMARK       I    between atoms: C3_3  and  N1_5 
REMARK    1  A    between atoms: N1_5  and  C4_6 
ROOT
HETATM    1  C1  UNL     1      28.457   5.417  48.357  1.00  0.00     0.022 C 
HETATM    2  C2  UNL     1      27.330   5.222  48.705  1.00  0.00    -0.016 C 
HETATM    3  C3  UNL     1      25.998   4.969  49.129  1.00  0.00     0.299 C 
HETATM    4  O1  UNL     1      25.082   5.778  48.876  1.00  0.00    -0.258 OA
HETATM    5  N1  UNL     1      25.428   3.914  49.838  1.00  0.00    -0.319 N 
HETATM    6  H2  UNL     1      26.308   3.316  49.972  1.00  0.00     0.169 HD
ENDROOT
BRANCH   5   7
HETATM    7  C4  UNL     1      24.458   3.129  50.485  1.00  0.00     0.028 C 
HETATM    8  C5  UNL     1      23.454   2.603  49.848  1.00  0.00     0.028 C 
HETATM    9  C6  UNL     1      23.112   2.697  48.425  1.00  0.00     0.067 C 
HETATM   10  S1  UNL     1      22.227   1.573  50.482  1.00  0.00    -0.004 SA
HETATM   11  C7  UNL     1      21.793   2.033  48.176  1.00  0.00     0.129 C 
HETATM   12  N2  UNL     1      21.316   1.348  49.303  1.00  0.00    -0.166 NA
HETATM   13  N3  UNL     1      21.794   1.654  52.057  1.00  0.00    -0.340 N 
HETATM   14  C8  UNL     1      20.499   1.420  52.517  1.00  0.00     0.159 C 
HETATM   15  C13 UNL     1      22.845   1.630  53.040  1.00  0.00     0.096 C 
HETATM   16  C9  UNL     1      20.409  -0.045  52.873  1.00  0.00    -0.004 C 
HETATM   17  C10 UNL     1      21.509  -0.438  53.506  1.00  0.00    -0.084 C 
HETATM   18  C11 UNL     1      21.553  -1.879  53.921  1.00  0.00     0.043 C 
HETATM   19  C12 UNL     1      22.708   0.373  53.859  1.00  0.00     0.059 C 
HETATM   20  C14 UNL     1      24.210   1.597  52.359  1.00  0.00     0.032 C 
HETATM   21  C15 UNL     1      24.646   2.958  51.960  1.00  0.00     0.060 C 
ENDBRANCH   5   7
TORSDOF 1
ENDMDL
MODEL 6
REMARK VINA RESULT:      -7.1      2.769      6.900
REMARK  1 active torsions:
REMARK  status: ('A' for Active; 'I' for Inactive)
REMARK       I    between atoms: C3_3  and  N1_5 
REMARK    1  A    between atoms: N1_5  and  C4_6 
ROOT
HETATM    1  C1  UNL     1      21.860   5.487  47.521  1.00  0.00     0.022 C 
HETATM    2  C2  UNL     1      22.302   4.504  48.042  1.00  0.00    -0.016 C 
HETATM    3  C3  UNL     1      22.836   3.352  48.678  1.00  0.00     0.299 C 
HETATM    4  O1  UNL     1      22.570   2.208  48.257  1.00  0.00    -0.258 OA
HETATM    5  N1  UNL     1      23.676   3.198  49.778  1.00  0.00    -0.319 N 
HETATM    6  H2  UNL     1      23.821   4.233  50.017  1.00  0.00     0.169 HD
ENDROOT
BRANCH   5   7
HETATM    7  C4  UNL     1      24.452   2.574  50.770  1.00  0.00     0.028 C 
HETATM    8  C5  UNL     1      23.979   1.626  51.525  1.00  0.00     0.028 C 
HETATM    9  C6  UNL     1      22.638   1.033  51.533  1.00  0.00     0.067 C 
HETATM   10  S1  UNL     1      24.816   0.725  52.732  1.00  0.00    -0.004 SA
HETATM   11  C7  UNL     1      22.520   0.061  52.666  1.00  0.00     0.129 C 
HETATM   12  N2  UNL     1      23.746  -0.167  53.308  1.00  0.00    -0.166 NA
HETATM   13  N3  UNL     1      26.090   1.371  53.529  1.00  0.00    -0.340 N 
HETATM   14  C8  UNL     1      26.399   1.082  54.858  1.00  0.00     0.159 C 
HETATM   15  C13 UNL     1      27.124   1.990  52.743  1.00  0.00     0.096 C 
HETATM   16  C9  UNL     1      27.368  -0.076  54.850  1.00  0.00    -0.004 C 
HETATM   17  C10 UNL     1      28.273   0.081  53.891  1.00  0.00    -0.084 C 
HETATM   18  C11 UNL     1      29.303  -1.003  53.770  1.00  0.00     0.043 C 
HETATM   19  C12 UNL     1      28.396   1.201  52.915  1.00  0.00     0.059 C 
HETATM   20  C14 UNL     1      26.755   1.965  51.263  1.00  0.00     0.032 C 
HETATM   21  C15 UNL     1      25.850   3.087  50.914  1.00  0.00     0.060 C 
ENDBRANCH   5   7
TORSDOF 1
ENDMDL
MODEL 7
REMARK VINA RESULT:      -7.0      1.681      3.206
REMARK  1 active torsions:
REMARK  status: ('A' for Active; 'I' for Inactive)
REMARK       I    between atoms: C3_3  and  N1_5 
REMARK    1  A    between atoms: N1_5  and  C4_6 
ROOT
HETATM    1  C1  UNL     1      28.568  -0.173  54.102  1.00  0.00     0.022 C 
HETATM    2  C2  UNL     1      27.556   0.455  53.991  1.00  0.00    -0.016 C 
HETATM    3  C3  UNL     1      26.344   1.181  53.847  1.00  0.00     0.299 C 
HETATM    4  O1  UNL     1      26.243   2.347  54.280  1.00  0.00    -0.258 OA
HETATM    5  N1  UNL     1      25.118   0.849  53.275  1.00  0.00    -0.319 N 
HETATM    6  H2  UNL     1      25.356  -0.145  52.951  1.00  0.00     0.169 HD
ENDROOT
BRANCH   5   7
HETATM    7  C4  UNL     1      23.784   0.968  52.849  1.00  0.00     0.028 C 
HETATM    8  C5  UNL     1      22.834   0.221  53.329  1.00  0.00     0.028 C 
HETATM    9  C6  UNL     1      22.913  -0.840  54.338  1.00  0.00     0.067 C 
HETATM   10  S1  UNL     1      21.153   0.288  52.959  1.00  0.00    -0.004 SA
HETATM   11  C7  UNL     1      21.581  -1.509  54.477  1.00  0.00     0.129 C 
HETATM   12  N2  UNL     1      20.573  -0.851  53.758  1.00  0.00    -0.166 NA
HETATM   13  N3  UNL     1      20.634   0.833  51.506  1.00  0.00    -0.340 N 
HETATM   14  C8  UNL     1      19.495   0.354  50.862  1.00  0.00     0.159 C 
HETATM   15  C13 UNL     1      21.170   2.082  51.033  1.00  0.00     0.096 C 
HETATM   16  C9  UNL     1      18.342   1.237  51.274  1.00  0.00    -0.004 C 
HETATM   17  C10 UNL     1      18.714   2.513  51.283  1.00  0.00    -0.084 C 
HETATM   18  C11 UNL     1      17.660   3.505  51.677  1.00  0.00     0.043 C 
HETATM   19  C12 UNL     1      20.049   3.085  50.951  1.00  0.00     0.059 C 
HETATM   20  C14 UNL     1      22.208   2.621  52.012  1.00  0.00     0.032 C 
HETATM   21  C15 UNL     1      23.534   1.995  51.790  1.00  0.00     0.060 C 
ENDBRANCH   5   7
TORSDOF 1
ENDMDL
MODEL 8
REMARK VINA RESULT:      -6.9      3.357      4.729
REMARK  1 active torsions:
REMARK  status: ('A' for Active; 'I' for Inactive)
REMARK       I    between atoms: C3_3  and  N1_5 
REMARK    1  A    between atoms: N1_5  and  C4_6 
ROOT
HETATM    1  C1  UNL     1      26.746  -1.732  52.694  1.00  0.00     0.022 C 
HETATM    2  C2  UNL     1      26.549  -0.560  52.828  1.00  0.00    -0.016 C 
HETATM    3  C3  UNL     1      26.300   0.832  52.966  1.00  0.00     0.299 C 
HETATM    4  O1  UNL     1      26.769   1.472  53.929  1.00  0.00    -0.258 OA
HETATM    5  N1  UNL     1      25.576   1.732  52.189  1.00  0.00    -0.319 N 
HETATM    6  H2  UNL     1      25.252   1.058  51.421  1.00  0.00     0.169 HD
ENDROOT
BRANCH   5   7
HETATM    7  C4  UNL     1      24.999   2.940  51.760  1.00  0.00     0.028 C 
HETATM    8  C5  UNL     1      25.493   3.632  50.776  1.00  0.00     0.028 C 
HETATM    9  C6  UNL     1      26.672   3.354  49.950  1.00  0.00     0.067 C 
HETATM   10  S1  UNL     1      24.869   5.088  50.096  1.00  0.00    -0.004 SA
HETATM   11  C7  UNL     1      26.925   4.502  49.024  1.00  0.00     0.129 C 
HETATM   12  N2  UNL     1      25.892   5.451  49.050  1.00  0.00    -0.166 NA
HETATM   13  N3  UNL     1      23.976   6.120  50.996  1.00  0.00    -0.340 N 
HETATM   14  C8  UNL     1      23.987   7.504  50.826  1.00  0.00     0.159 C 
HETATM   15  C13 UNL     1      22.886   5.569  51.758  1.00  0.00     0.096 C 
HETATM   16  C9  UNL     1      22.874   7.845  49.864  1.00  0.00    -0.004 C 
HETATM   17  C10 UNL     1      21.786   7.136  50.141  1.00  0.00    -0.084 C 
HETATM   18  C11 UNL     1      20.597   7.377  49.258  1.00  0.00     0.043 C 
HETATM   19  C12 UNL     1      21.595   6.127  51.221  1.00  0.00     0.059 C 
HETATM   20  C14 UNL     1      22.841   4.053  51.601  1.00  0.00     0.032 C 
HETATM   21  C15 UNL     1      23.792   3.387  52.525  1.00  0.00     0.060 C 
ENDBRANCH   5   7
TORSDOF 1
ENDMDL
MODEL 9
REMARK VINA RESULT:      -6.6      4.265      6.077
REMARK  1 active torsions:
REMARK  status: ('A' for Active; 'I' for Inactive)
REMARK       I    between atoms: C3_3  and  N1_5 
REMARK    1  A    between atoms: N1_5  and  C4_6 
ROOT
HETATM    1  C1  UNL     1      29.657   8.210  46.941  1.00  0.00     0.022 C 
HETATM    2  C2  UNL     1      29.202   7.266  47.519  1.00  0.00    -0.016 C 
HETATM    3  C3  UNL     1      28.641   6.158  48.208  1.00  0.00     0.299 C 
HETATM    4  O1  UNL     1      29.296   5.107  48.369  1.00  0.00    -0.258 OA
HETATM    5  N1  UNL     1      27.397   5.960  48.802  1.00  0.00    -0.319 N 
HETATM    6  H2  UNL     1      26.966   6.920  48.596  1.00  0.00     0.169 HD
ENDROOT
BRANCH   5   7
HETATM    7  C4  UNL     1      26.349   5.328  49.492  1.00  0.00     0.028 C 
HETATM    8  C5  UNL     1      25.346   5.991  49.988  1.00  0.00     0.028 C 
HETATM    9  C6  UNL     1      25.088   7.434  49.959  1.00  0.00     0.067 C 
HETATM   10  S1  UNL     1      23.963   5.359  50.798  1.00  0.00    -0.004 SA
HETATM   11  C7  UNL     1      23.871   7.749  50.772  1.00  0.00     0.129 C 
HETATM   12  N2  UNL     1      23.196   6.594  51.197  1.00  0.00    -0.166 NA
HETATM   13  N3  UNL     1      24.042   3.945  51.616  1.00  0.00    -0.340 N 
HETATM   14  C8  UNL     1      23.306   3.676  52.769  1.00  0.00     0.159 C 
HETATM   15  C13 UNL     1      24.626   2.816  50.942  1.00  0.00     0.096 C 
HETATM   16  C9  UNL     1      22.021   3.012  52.334  1.00  0.00    -0.004 C 
HETATM   17  C10 UNL     1      22.257   2.124  51.375  1.00  0.00    -0.084 C 
HETATM   18  C11 UNL     1      21.061   1.387  50.848  1.00  0.00     0.043 C 
HETATM   19  C12 UNL     1      23.563   1.766  50.754  1.00  0.00     0.059 C 
HETATM   20  C14 UNL     1      25.130   3.224  49.560  1.00  0.00     0.032 C 
HETATM   21  C15 UNL     1      26.475   3.844  49.638  1.00  0.00     0.060 C 
ENDBRANCH   5   7
TORSDOF 1
ENDMDL
