MODEL 1
REMARK VINA RESULT:      -7.6      0.000      0.000
REMARK  5 active torsions:
REMARK  status: ('A' for Active; 'I' for Inactive)
REMARK    1  A    between atoms: C3_3  and  C4_4 
REMARK    2  A    between atoms: C3_3  and  C14_18 
REMARK    3  A    between atoms: C7_8  and  S1_9 
REMARK    4  A    between atoms: S1_9  and  C8_10 
REMARK    5  A    between atoms: C13_15  and  N1_16 
ROOT
HETATM    1  C4  UNL     1      21.720   1.653  52.120  1.00  0.00     0.034 C 
HETATM    2  C5  UNL     1      22.946   2.108  52.274  1.00  0.00     0.032 C 
HETATM    3  C6  UNL     1      23.746   3.368  52.061  1.00  0.00     0.228 C 
HETATM    4  O1  UNL     1      24.486   3.420  53.235  1.00  0.00    -0.352 OA
HETATM    5  C7  UNL     1      24.948   2.127  53.469  1.00  0.00     0.287 C 
HETATM    6  N2  UNL     1      23.970   1.254  52.818  1.00  0.00    -0.357 N 
HETATM    7  H17 UNL     1      24.223   0.268  52.891  1.00  0.00     0.162 HD
ENDROOT
BRANCH   5   8
HETATM    8  S1  UNL     1      26.611   1.940  52.838  1.00  0.00    -0.105 SA
BRANCH   8   9
HETATM    9  C8  UNL     1      27.432   0.676  53.843  1.00  0.00     0.104 A 
HETATM   10  C9  UNL     1      27.081  -0.709  53.432  1.00  0.00     0.048 A 
HETATM   11  C10 UNL     1      28.321  -1.475  53.178  1.00  0.00    -0.025 A 
HETATM   12  C11 UNL     1      29.619  -1.241  53.222  1.00  0.00    -0.002 A 
HETATM   13  C12 UNL     1      29.963   0.115  53.623  1.00  0.00     0.025 A 
HETATM   14  C13 UNL     1      28.896   0.853  53.866  1.00  0.00     0.017 A 
BRANCH  14  15
HETATM   15  N1  UNL     1      29.152   2.217  54.268  1.00  0.00    -0.401 N 
HETATM   16  H15 UNL     1      28.666   3.130  54.163  1.00  0.00     0.156 HD
HETATM   17  H16 UNL     1      29.481   3.136  54.627  1.00  0.00     0.156 HD
ENDBRANCH  14  15
ENDBRANCH   8   9
ENDBRANCH   5   8
BRANCH   1  18
HETATM   18  C3  UNL     1      20.809   0.533  52.260  1.00  0.00    -0.053 C 
HETATM   19  C2  UNL     1      19.972   0.264  51.241  1.00  0.00    -0.023 C 
HETATM   20  C1  UNL     1      20.037   1.134  50.040  1.00  0.00     0.036 C 
BRANCH  18  21
HETATM   21  C14 UNL     1      20.740  -0.366  53.469  1.00  0.00    -0.024 C 
HETATM   22  C15 UNL     1      21.865  -1.393  53.461  1.00  0.00     0.019 C 
HETATM   23  C16 UNL     1      19.420  -1.083  53.517  1.00  0.00     0.019 C 
HETATM   24  C17 UNL     1      20.862   0.476  54.717  1.00  0.00     0.019 C 
ENDBRANCH  18  21
ENDBRANCH   1  18
TORSDOF 5
ENDMDL
MODEL 2
REMARK VINA RESULT:      -7.3      3.520      6.037
REMARK  5 active torsions:
REMARK  status: ('A' for Active; 'I' for Inactive)
REMARK    1  A    between atoms: C3_3  and  C4_4 
REMARK    2  A    between atoms: C3_3  and  C14_18 
REMARK    3  A    between atoms: C7_8  and  S1_9 
REMARK    4  A    between atoms: S1_9  and  C8_10 
REMARK    5  A    between atoms: C13_15  and  N1_16 
ROOT
HETATM    1  C4  UNL     1      23.454   0.844  52.015  1.00  0.00     0.034 C 
HETATM    2  C5  UNL     1      23.085   1.883  51.297  1.00  0.00     0.032 C 
HETATM    3  C6  UNL     1      22.124   2.242  50.192  1.00  0.00     0.228 C 
HETATM    4  O1  UNL     1      21.620   3.451  50.654  1.00  0.00    -0.352 OA
HETATM    5  C7  UNL     1      22.710   4.178  51.128  1.00  0.00     0.287 C 
HETATM    6  N2  UNL     1      23.694   3.169  51.522  1.00  0.00    -0.357 N 
HETATM    7  H17 UNL     1      24.563   3.586  51.858  1.00  0.00     0.162 HD
ENDROOT
BRANCH   5   8
HETATM    8  S1  UNL     1      23.300   5.302  49.867  1.00  0.00    -0.105 SA
BRANCH   8   9
HETATM    9  C8  UNL     1      25.067   5.569  50.166  1.00  0.00     0.104 A 
HETATM   10  C9  UNL     1      25.917   5.150  49.021  1.00  0.00     0.048 A 
HETATM   11  C10 UNL     1      26.794   6.274  48.622  1.00  0.00    -0.025 A 
HETATM   12  C11 UNL     1      27.000   7.516  49.017  1.00  0.00    -0.002 A 
HETATM   13  C12 UNL     1      26.167   7.928  50.138  1.00  0.00     0.025 A 
HETATM   14  C13 UNL     1      25.358   6.966  50.543  1.00  0.00     0.017 A 
BRANCH  14  15
HETATM   15  N1  UNL     1      24.493   7.295  51.651  1.00  0.00    -0.401 N 
HETATM   16  H15 UNL     1      24.532   7.192  52.685  1.00  0.00     0.156 HD
HETATM   17  H16 UNL     1      23.764   7.594  52.330  1.00  0.00     0.156 HD
ENDBRANCH  14  15
ENDBRANCH   8   9
ENDBRANCH   5   8
BRANCH   1  18
HETATM   18  C3  UNL     1      24.313   0.330  53.066  1.00  0.00    -0.053 C 
HETATM   19  C2  UNL     1      23.777  -0.507  53.973  1.00  0.00    -0.023 C 
HETATM   20  C1  UNL     1      22.338  -0.849  53.837  1.00  0.00     0.036 C 
BRANCH  18  21
HETATM   21  C14 UNL     1      25.778   0.661  53.209  1.00  0.00    -0.024 C 
HETATM   22  C15 UNL     1      25.977   2.053  53.793  1.00  0.00     0.019 C 
HETATM   23  C16 UNL     1      26.467   0.584  51.875  1.00  0.00     0.019 C 
HETATM   24  C17 UNL     1      26.424  -0.347  54.129  1.00  0.00     0.019 C 
ENDBRANCH  18  21
ENDBRANCH   1  18
TORSDOF 5
ENDMDL
MODEL 3
REMARK VINA RESULT:      -7.2      2.995      7.944
REMARK  5 active torsions:
REMARK  status: ('A' for Active; 'I' for Inactive)
REMARK    1  A    between atoms: C3_3  and  C4_4 
REMARK    2  A    between atoms: C3_3  and  C14_18 
REMARK    3  A    between atoms: C7_8  and  S1_9 
REMARK    4  A    between atoms: S1_9  and  C8_10 
REMARK    5  A    between atoms: C13_15  and  N1_16 
ROOT
HETATM    1  C4  UNL     1      25.225  -0.438  53.897  1.00  0.00     0.034 C 
HETATM    2  C5  UNL     1      23.968  -0.719  54.168  1.00  0.00     0.032 C 
HETATM    3  C6  UNL     1      23.137  -1.397  55.228  1.00  0.00     0.228 C 
HETATM    4  O1  UNL     1      22.082  -0.504  55.357  1.00  0.00    -0.352 OA
HETATM    5  C7  UNL     1      21.712  -0.139  54.065  1.00  0.00     0.287 C 
HETATM    6  N2  UNL     1      22.925  -0.306  53.263  1.00  0.00    -0.357 N 
HETATM    7  H17 UNL     1      22.768  -0.100  52.276  1.00  0.00     0.162 HD
ENDROOT
BRANCH   5   8
HETATM    8  S1  UNL     1      20.340  -1.143  53.508  1.00  0.00    -0.105 SA
BRANCH   8   9
HETATM    9  C8  UNL     1      19.078  -0.018  52.855  1.00  0.00     0.104 A 
HETATM   10  C9  UNL     1      19.534   0.729  51.654  1.00  0.00     0.048 A 
HETATM   11  C10 UNL     1      18.560   0.538  50.556  1.00  0.00    -0.025 A 
HETATM   12  C11 UNL     1      17.425  -0.112  50.384  1.00  0.00    -0.002 A 
HETATM   13  C12 UNL     1      16.978  -0.845  51.559  1.00  0.00     0.025 A 
HETATM   14  C13 UNL     1      17.807  -0.715  52.578  1.00  0.00     0.017 A 
BRANCH  14  15
HETATM   15  N1  UNL     1      17.436  -1.417  53.785  1.00  0.00    -0.401 N 
HETATM   16  H15 UNL     1      16.759  -1.264  54.560  1.00  0.00     0.156 HD
HETATM   17  H16 UNL     1      17.288  -2.037  54.607  1.00  0.00     0.156 HD
ENDBRANCH  14  15
ENDBRANCH   8   9
ENDBRANCH   5   8
BRANCH   1  18
HETATM   18  C3  UNL     1      26.167   0.173  52.978  1.00  0.00    -0.053 C 
HETATM   19  C2  UNL     1      26.947  -0.636  52.238  1.00  0.00    -0.023 C 
HETATM   20  C1  UNL     1      26.790  -2.102  52.411  1.00  0.00     0.036 C 
BRANCH  18  21
HETATM   21  C14 UNL     1      26.329   1.660  52.783  1.00  0.00    -0.024 C 
HETATM   22  C15 UNL     1      25.165   2.428  53.395  1.00  0.00     0.019 C 
HETATM   23  C16 UNL     1      26.422   1.991  51.320  1.00  0.00     0.019 C 
HETATM   24  C17 UNL     1      27.609   2.108  53.448  1.00  0.00     0.019 C 
ENDBRANCH  18  21
ENDBRANCH   1  18
TORSDOF 5
ENDMDL
MODEL 4
REMARK VINA RESULT:      -6.9      2.238      3.410
REMARK  5 active torsions:
REMARK  status: ('A' for Active; 'I' for Inactive)
REMARK    1  A    between atoms: C3_3  and  C4_4 
REMARK    2  A    between atoms: C3_3  and  C14_18 
REMARK    3  A    between atoms: C7_8  and  S1_9 
REMARK    4  A    between atoms: S1_9  and  C8_10 
REMARK    5  A    between atoms: C13_15  and  N1_16 
ROOT
HETATM    1  C4  UNL     1      19.929  -0.376  53.318  1.00  0.00     0.034 C 
HETATM    2  C5  UNL     1      21.195  -0.213  53.639  1.00  0.00     0.032 C 
HETATM    3  C6  UNL     1      22.159  -0.546  54.750  1.00  0.00     0.228 C 
HETATM    4  O1  UNL     1      23.271  -0.959  54.029  1.00  0.00    -0.352 OA
HETATM    5  C7  UNL     1      23.428  -0.048  52.987  1.00  0.00     0.287 C 
HETATM    6  N2  UNL     1      22.084   0.477  52.739  1.00  0.00    -0.357 N 
HETATM    7  H17 UNL     1      22.076   1.191  52.010  1.00  0.00     0.162 HD
ENDROOT
BRANCH   5   8
HETATM    8  S1  UNL     1      24.618   1.209  53.438  1.00  0.00    -0.105 SA
BRANCH   8   9
HETATM    9  C8  UNL     1      26.267   0.538  53.097  1.00  0.00     0.104 A 
HETATM   10  C9  UNL     1      27.139   1.492  52.362  1.00  0.00     0.048 A 
HETATM   11  C10 UNL     1      28.411   1.663  53.099  1.00  0.00    -0.025 A 
HETATM   12  C11 UNL     1      28.944   1.196  54.212  1.00  0.00    -0.002 A 
HETATM   13  C12 UNL     1      28.091   0.263  54.933  1.00  0.00     0.025 A 
HETATM   14  C13 UNL     1      26.936   0.066  54.325  1.00  0.00     0.017 A 
BRANCH  14  15
HETATM   15  N1  UNL     1      26.027  -0.846  54.979  1.00  0.00    -0.401 N 
HETATM   16  H15 UNL     1      24.998  -0.907  55.114  1.00  0.00     0.156 HD
HETATM   17  H16 UNL     1      25.515  -1.591  55.493  1.00  0.00     0.156 HD
ENDBRANCH  14  15
ENDBRANCH   8   9
ENDBRANCH   5   8
BRANCH   1  18
HETATM   18  C3  UNL     1      18.877  -0.140  52.347  1.00  0.00    -0.053 C 
HETATM   19  C2  UNL     1      17.805  -0.953  52.364  1.00  0.00    -0.023 C 
HETATM   20  C1  UNL     1      17.770  -2.039  53.376  1.00  0.00     0.036 C 
BRANCH  18  21
HETATM   21  C14 UNL     1      18.893   0.965  51.321  1.00  0.00    -0.024 C 
HETATM   22  C15 UNL     1      19.209   2.311  51.962  1.00  0.00     0.019 C 
HETATM   23  C16 UNL     1      17.567   1.052  50.621  1.00  0.00     0.019 C 
HETATM   24  C17 UNL     1      19.951   0.662  50.286  1.00  0.00     0.019 C 
ENDBRANCH  18  21
ENDBRANCH   1  18
TORSDOF 5
ENDMDL
MODEL 5
REMARK VINA RESULT:      -6.9      2.681      6.802
REMARK  5 active torsions:
REMARK  status: ('A' for Active; 'I' for Inactive)
REMARK    1  A    between atoms: C3_3  and  C4_4 
REMARK    2  A    between atoms: C3_3  and  C14_18 
REMARK    3  A    between atoms: C7_8  and  S1_9 
REMARK    4  A    between atoms: S1_9  and  C8_10 
REMARK    5  A    between atoms: C13_15  and  N1_16 
ROOT
HETATM    1  C4  UNL     1      25.112  -0.339  53.212  1.00  0.00     0.034 C 
HETATM    2  C5  UNL     1      23.820  -0.149  53.044  1.00  0.00     0.032 C 
HETATM    3  C6  UNL     1      22.500  -0.737  53.475  1.00  0.00     0.228 C 
HETATM    4  O1  UNL     1      21.772   0.411  53.758  1.00  0.00    -0.352 OA
HETATM    5  C7  UNL     1      22.028   1.307  52.722  1.00  0.00     0.287 C 
HETATM    6  N2  UNL     1      23.351   0.934  52.219  1.00  0.00    -0.357 N 
HETATM    7  H17 UNL     1      23.637   1.504  51.423  1.00  0.00     0.162 HD
ENDROOT
BRANCH   5   8
HETATM    8  S1  UNL     1      20.737   1.210  51.488  1.00  0.00    -0.105 SA
BRANCH   8   9
HETATM    9  C8  UNL     1      20.997   2.577  50.327  1.00  0.00     0.104 A 
HETATM   10  C9  UNL     1      21.429   3.832  50.996  1.00  0.00     0.048 A 
HETATM   11  C10 UNL     1      22.673   4.324  50.363  1.00  0.00    -0.025 A 
HETATM   12  C11 UNL     1      23.468   3.936  49.385  1.00  0.00    -0.002 A 
HETATM   13  C12 UNL     1      23.047   2.707  48.729  1.00  0.00     0.025 A 
HETATM   14  C13 UNL     1      21.938   2.215  49.249  1.00  0.00     0.017 A 
BRANCH  14  15
HETATM   15  N1  UNL     1      21.453   0.991  48.656  1.00  0.00    -0.401 N 
HETATM   16  H15 UNL     1      21.790   0.009  48.589  1.00  0.00     0.156 HD
HETATM   17  H16 UNL     1      20.970   0.204  48.177  1.00  0.00     0.156 HD
ENDBRANCH  14  15
ENDBRANCH   8   9
ENDBRANCH   5   8
BRANCH   1  18
HETATM   18  C3  UNL     1      26.459   0.098  52.898  1.00  0.00    -0.053 C 
HETATM   19  C2  UNL     1      27.366  -0.837  52.558  1.00  0.00    -0.023 C 
HETATM   20  C1  UNL     1      26.926  -2.255  52.528  1.00  0.00     0.036 C 
BRANCH  18  21
HETATM   21  C14 UNL     1      26.917   1.535  52.913  1.00  0.00    -0.024 C 
HETATM   22  C15 UNL     1      28.393   1.642  53.275  1.00  0.00     0.019 C 
HETATM   23  C16 UNL     1      26.110   2.332  53.898  1.00  0.00     0.019 C 
HETATM   24  C17 UNL     1      26.709   2.133  51.542  1.00  0.00     0.019 C 
ENDBRANCH  18  21
ENDBRANCH   1  18
TORSDOF 5
ENDMDL
MODEL 6
REMARK VINA RESULT:      -6.9      4.260      6.366
REMARK  5 active torsions:
REMARK  status: ('A' for Active; 'I' for Inactive)
REMARK    1  A    between atoms: C3_3  and  C4_4 
REMARK    2  A    between atoms: C3_3  and  C14_18 
REMARK    3  A    between atoms: C7_8  and  S1_9 
REMARK    4  A    between atoms: S1_9  and  C8_10 
REMARK    5  A    between atoms: C13_15  and  N1_16 
ROOT
HETATM    1  C4  UNL     1      24.209   1.813  51.220  1.00  0.00     0.034 C 
HETATM    2  C5  UNL     1      24.305   3.003  50.665  1.00  0.00     0.032 C 
HETATM    3  C6  UNL     1      24.196   3.660  49.312  1.00  0.00     0.228 C 
HETATM    4  O1  UNL     1      23.461   4.796  49.622  1.00  0.00    -0.352 OA
HETATM    5  C7  UNL     1      24.005   5.312  50.796  1.00  0.00     0.287 C 
HETATM    6  N2  UNL     1      24.593   4.157  51.478  1.00  0.00    -0.357 N 
HETATM    7  H17 UNL     1      25.060   4.417  52.347  1.00  0.00     0.162 HD
ENDROOT
BRANCH   5   8
HETATM    8  S1  UNL     1      25.187   6.600  50.418  1.00  0.00    -0.105 SA
BRANCH   8   9
HETATM    9  C8  UNL     1      25.674   6.394  48.684  1.00  0.00     0.104 A 
HETATM   10  C9  UNL     1      25.267   7.539  47.828  1.00  0.00     0.048 A 
HETATM   11  C10 UNL     1      26.448   8.053  47.100  1.00  0.00    -0.025 A 
HETATM   12  C11 UNL     1      27.732   7.758  47.027  1.00  0.00    -0.002 A 
HETATM   13  C12 UNL     1      28.132   6.638  47.866  1.00  0.00     0.025 A 
HETATM   14  C13 UNL     1      27.119   6.131  48.544  1.00  0.00     0.017 A 
BRANCH  14  15
HETATM   15  N1  UNL     1      27.433   5.015  49.406  1.00  0.00    -0.401 N 
HETATM   16  H15 UNL     1      26.891   4.348  49.992  1.00  0.00     0.156 HD
HETATM   17  H16 UNL     1      27.823   4.244  49.985  1.00  0.00     0.156 HD
ENDBRANCH  14  15
ENDBRANCH   8   9
ENDBRANCH   5   8
BRANCH   1  18
HETATM   18  C3  UNL     1      24.277   1.027  52.437  1.00  0.00    -0.053 C 
HETATM   19  C2  UNL     1      23.124   0.598  52.981  1.00  0.00    -0.023 C 
HETATM   20  C1  UNL     1      21.856   0.961  52.299  1.00  0.00     0.036 C 
BRANCH  18  21
HETATM   21  C14 UNL     1      25.558   0.642  53.135  1.00  0.00    -0.024 C 
HETATM   22  C15 UNL     1      25.326  -0.480  54.139  1.00  0.00     0.019 C 
HETATM   23  C16 UNL     1      26.144   1.827  53.849  1.00  0.00     0.019 C 
HETATM   24  C17 UNL     1      26.559   0.172  52.106  1.00  0.00     0.019 C 
ENDBRANCH  18  21
ENDBRANCH   1  18
TORSDOF 5
ENDMDL
MODEL 7
REMARK VINA RESULT:      -6.8      2.763      3.972
REMARK  5 active torsions:
REMARK  status: ('A' for Active; 'I' for Inactive)
REMARK    1  A    between atoms: C3_3  and  C4_4 
REMARK    2  A    between atoms: C3_3  and  C14_18 
REMARK    3  A    between atoms: C7_8  and  S1_9 
REMARK    4  A    between atoms: S1_9  and  C8_10 
REMARK    5  A    between atoms: C13_15  and  N1_16 
ROOT
HETATM    1  C4  UNL     1      22.617   4.734  51.899  1.00  0.00     0.034 C 
HETATM    2  C5  UNL     1      23.568   3.875  52.201  1.00  0.00     0.032 C 
HETATM    3  C6  UNL     1      24.326   3.364  53.399  1.00  0.00     0.228 C 
HETATM    4  O1  UNL     1      24.341   1.999  53.148  1.00  0.00    -0.352 OA
HETATM    5  C7  UNL     1      24.648   1.848  51.797  1.00  0.00     0.287 C 
HETATM    6  N2  UNL     1      24.180   3.083  51.165  1.00  0.00    -0.357 N 
HETATM    7  H17 UNL     1      24.384   3.108  50.165  1.00  0.00     0.162 HD
ENDROOT
BRANCH   5   8
HETATM    8  S1  UNL     1      26.400   1.555  51.589  1.00  0.00    -0.105 SA
BRANCH   8   9
HETATM    9  C8  UNL     1      26.967   0.624  53.037  1.00  0.00     0.104 A 
HETATM   10  C9  UNL     1      27.207  -0.813  52.744  1.00  0.00     0.048 A 
HETATM   11  C10 UNL     1      28.577  -1.179  53.168  1.00  0.00    -0.025 A 
HETATM   12  C11 UNL     1      29.605  -0.565  53.722  1.00  0.00    -0.002 A 
HETATM   13  C12 UNL     1      29.372   0.843  54.008  1.00  0.00     0.025 A 
HETATM   14  C13 UNL     1      28.162   1.234  53.652  1.00  0.00     0.017 A 
BRANCH  14  15
HETATM   15  N1  UNL     1      27.851   2.622  53.900  1.00  0.00    -0.401 N 
HETATM   16  H15 UNL     1      27.443   3.406  53.350  1.00  0.00     0.156 HD
HETATM   17  H16 UNL     1      27.689   3.593  54.236  1.00  0.00     0.156 HD
ENDBRANCH  14  15
ENDBRANCH   8   9
ENDBRANCH   5   8
BRANCH   1  18
HETATM   18  C3  UNL     1      21.799   5.332  50.861  1.00  0.00    -0.053 C 
HETATM   19  C2  UNL     1      22.181   6.520  50.358  1.00  0.00    -0.023 C 
HETATM   20  C1  UNL     1      23.416   7.140  50.899  1.00  0.00     0.036 C 
BRANCH  18  21
HETATM   21  C14 UNL     1      20.548   4.709  50.294  1.00  0.00    -0.024 C 
HETATM   22  C15 UNL     1      19.624   5.764  49.700  1.00  0.00     0.019 C 
HETATM   23  C16 UNL     1      19.808   3.951  51.360  1.00  0.00     0.019 C 
HETATM   24  C17 UNL     1      20.932   3.734  49.206  1.00  0.00     0.019 C 
ENDBRANCH  18  21
ENDBRANCH   1  18
TORSDOF 5
ENDMDL
MODEL 8
REMARK VINA RESULT:      -6.8      3.346      5.321
REMARK  5 active torsions:
REMARK  status: ('A' for Active; 'I' for Inactive)
REMARK    1  A    between atoms: C3_3  and  C4_4 
REMARK    2  A    between atoms: C3_3  and  C14_18 
REMARK    3  A    between atoms: C7_8  and  S1_9 
REMARK    4  A    between atoms: S1_9  and  C8_10 
REMARK    5  A    between atoms: C13_15  and  N1_16 
ROOT
HETATM    1  C4  UNL     1      22.511   0.525  52.053  1.00  0.00     0.034 C 
HETATM    2  C5  UNL     1      22.214   1.644  51.425  1.00  0.00     0.032 C 
HETATM    3  C6  UNL     1      21.636   2.115  50.115  1.00  0.00     0.228 C 
HETATM    4  O1  UNL     1      20.781   3.122  50.544  1.00  0.00    -0.352 OA
HETATM    5  C7  UNL     1      21.482   3.856  51.499  1.00  0.00     0.287 C 
HETATM    6  N2  UNL     1      22.449   2.913  52.064  1.00  0.00    -0.357 N 
HETATM    7  H17 UNL     1      23.053   3.350  52.760  1.00  0.00     0.162 HD
ENDROOT
BRANCH   5   8
HETATM    8  S1  UNL     1      22.236   5.292  50.745  1.00  0.00    -0.105 SA
BRANCH   8   9
HETATM    9  C8  UNL     1      24.030   5.043  50.784  1.00  0.00     0.104 A 
HETATM   10  C9  UNL     1      24.524   4.212  49.655  1.00  0.00     0.048 A 
HETATM   11  C10 UNL     1      25.604   4.935  48.947  1.00  0.00    -0.025 A 
HETATM   12  C11 UNL     1      26.216   6.098  49.066  1.00  0.00    -0.002 A 
HETATM   13  C12 UNL     1      25.732   6.914  50.170  1.00  0.00     0.025 A 
HETATM   14  C13 UNL     1      24.764   6.322  50.844  1.00  0.00     0.017 A 
BRANCH  14  15
HETATM   15  N1  UNL     1      24.225   7.069  51.957  1.00  0.00    -0.401 N 
HETATM   16  H15 UNL     1      23.306   7.130  52.440  1.00  0.00     0.156 HD
HETATM   17  H16 UNL     1      23.994   7.676  52.769  1.00  0.00     0.156 HD
ENDBRANCH  14  15
ENDBRANCH   8   9
ENDBRANCH   5   8
BRANCH   1  18
HETATM   18  C3  UNL     1      23.043  -0.096  53.251  1.00  0.00    -0.053 C 
HETATM   19  C2  UNL     1      24.375  -0.066  53.444  1.00  0.00    -0.023 C 
HETATM   20  C1  UNL     1      25.211   0.603  52.415  1.00  0.00     0.036 C 
BRANCH  18  21
HETATM   21  C14 UNL     1      22.205  -0.769  54.310  1.00  0.00    -0.024 C 
HETATM   22  C15 UNL     1      21.511  -2.009  53.761  1.00  0.00     0.019 C 
HETATM   23  C16 UNL     1      21.169   0.181  54.841  1.00  0.00     0.019 C 
HETATM   24  C17 UNL     1      23.097  -1.180  55.457  1.00  0.00     0.019 C 
ENDBRANCH  18  21
ENDBRANCH   1  18
TORSDOF 5
ENDMDL
MODEL 9
REMARK VINA RESULT:      -6.7      4.864      8.216
REMARK  5 active torsions:
REMARK  status: ('A' for Active; 'I' for Inactive)
REMARK    1  A    between atoms: C3_3  and  C4_4 
REMARK    2  A    between atoms: C3_3  and  C14_18 
REMARK    3  A    between atoms: C7_8  and  S1_9 
REMARK    4  A    between atoms: S1_9  and  C8_10 
REMARK    5  A    between atoms: C13_15  and  N1_16 
ROOT
HETATM    1  C4  UNL     1      26.174   6.611  48.688  1.00  0.00     0.034 C 
HETATM    2  C5  UNL     1      25.478   5.627  49.218  1.00  0.00     0.032 C 
HETATM    3  C6  UNL     1      24.190   4.874  49.000  1.00  0.00     0.228 C 
HETATM    4  O1  UNL     1      24.604   3.565  49.210  1.00  0.00    -0.352 OA
HETATM    5  C7  UNL     1      25.419   3.584  50.340  1.00  0.00     0.287 C 
HETATM    6  N2  UNL     1      25.973   4.938  50.382  1.00  0.00    -0.357 N 
HETATM    7  H17 UNL     1      26.568   5.087  51.198  1.00  0.00     0.162 HD
ENDROOT
BRANCH   5   8
HETATM    8  S1  UNL     1      24.470   3.151  51.793  1.00  0.00    -0.105 SA
BRANCH   8   9
HETATM    9  C8  UNL     1      24.154   1.368  51.721  1.00  0.00     0.104 A 
HETATM   10  C9  UNL     1      24.651   0.643  52.920  1.00  0.00     0.048 A 
HETATM   11  C10 UNL     1      23.550  -0.156  53.503  1.00  0.00    -0.025 A 
HETATM   12  C11 UNL     1      22.278  -0.376  53.232  1.00  0.00    -0.002 A 
HETATM   13  C12 UNL     1      21.789   0.335  52.059  1.00  0.00     0.025 A 
HETATM   14  C13 UNL     1      22.727   1.069  51.490  1.00  0.00     0.017 A 
BRANCH  14  15
HETATM   15  N1  UNL     1      22.322   1.811  50.319  1.00  0.00    -0.401 N 
HETATM   16  H15 UNL     1      21.481   1.841  49.708  1.00  0.00     0.156 HD
HETATM   17  H16 UNL     1      22.184   2.421  49.488  1.00  0.00     0.156 HD
ENDBRANCH  14  15
ENDBRANCH   8   9
ENDBRANCH   5   8
BRANCH   1  18
HETATM   18  C3  UNL     1      27.368   7.432  48.753  1.00  0.00    -0.053 C 
HETATM   19  C2  UNL     1      27.306   8.590  49.436  1.00  0.00    -0.023 C 
HETATM   20  C1  UNL     1      26.016   8.950  50.078  1.00  0.00     0.036 C 
BRANCH  18  21
HETATM   21  C14 UNL     1      28.687   7.074  48.115  1.00  0.00    -0.024 C 
HETATM   22  C15 UNL     1      28.940   5.573  48.172  1.00  0.00     0.019 C 
HETATM   23  C16 UNL     1      29.815   7.789  48.804  1.00  0.00     0.019 C 
HETATM   24  C17 UNL     1      28.670   7.508  46.669  1.00  0.00     0.019 C 
ENDBRANCH  18  21
ENDBRANCH   1  18
TORSDOF 5
ENDMDL
