MODEL 1
REMARK VINA RESULT:      -6.2      0.000      0.000
REMARK  1 active torsions:
REMARK  status: ('A' for Active; 'I' for Inactive)
REMARK    1  A    between atoms: O1_2  and  C2_3 
ROOT
HETATM    1  C2  UNL     1      23.666   3.028  51.380  1.00  0.00     0.062 C 
HETATM    2  C3  UNL     1      23.932   2.808  52.679  1.00  0.00     0.037 C 
HETATM    3  C4  UNL     1      23.890   1.388  53.102  1.00  0.00     0.302 C 
HETATM    4  N1  UNL     1      25.195   0.935  53.552  1.00  0.00     0.095 N 
HETATM    5  C5  UNL     1      25.759  -0.059  52.696  1.00  0.00     0.292 C 
HETATM    6  C6  UNL     1      26.805   0.564  51.757  1.00  0.00     0.156 C 
HETATM    7  N2  UNL     1      26.603   1.989  51.637  1.00  0.00    -0.349 N 
HETATM    8  C7  UNL     1      27.067   2.470  52.963  1.00  0.00     0.156 C 
HETATM    9  C8  UNL     1      26.096   1.935  53.983  1.00  0.00     0.292 C 
HETATM   10  C9  UNL     1      26.048   2.327  50.374  1.00  0.00     0.223 C 
HETATM   11  O2  UNL     1      26.151   3.464  50.894  1.00  0.00    -0.273 OA
HETATM   12  C10 UNL     1      25.516   3.251  49.326  1.00  0.00     0.138 C 
HETATM   13  C11 UNL     1      25.010   4.513  49.952  1.00  0.00    -0.051 A 
HETATM   14  C12 UNL     1      25.708   5.617  49.940  1.00  0.00     0.005 A 
HETATM   15  C13 UNL     1      25.349   6.900  50.505  1.00  0.00     0.007 A 
HETATM   16  C14 UNL     1      24.176   6.978  51.112  1.00  0.00     0.046 A 
HETATM   17  S1  UNL     1      22.951   5.698  51.337  1.00  0.00    -0.125 SA
HETATM   18  C15 UNL     1      23.617   4.233  50.539  1.00  0.00     0.137 A 
ENDROOT
BRANCH   1  19
HETATM   19  O1  UNL     1      23.394   1.791  50.753  1.00  0.00    -0.359 OA
HETATM   20  C1  UNL     1      22.284   1.596  49.908  1.00  0.00     0.209 C 
ENDBRANCH   1  19
TORSDOF 1
ENDMDL
MODEL 2
REMARK VINA RESULT:      -6.1      2.188      4.090
REMARK  1 active torsions:
REMARK  status: ('A' for Active; 'I' for Inactive)
REMARK    1  A    between atoms: O1_2  and  C2_3 
ROOT
HETATM    1  C2  UNL     1      24.306   2.635  51.776  1.00  0.00     0.062 C 
HETATM    2  C3  UNL     1      25.492   2.107  51.430  1.00  0.00     0.037 C 
HETATM    3  C4  UNL     1      26.569   2.250  52.439  1.00  0.00     0.302 C 
HETATM    4  N1  UNL     1      27.004   0.953  52.929  1.00  0.00     0.095 N 
HETATM    5  C5  UNL     1      26.692   0.752  54.307  1.00  0.00     0.292 C 
HETATM    6  C6  UNL     1      25.436  -0.122  54.458  1.00  0.00     0.156 C 
HETATM    7  N2  UNL     1      24.650  -0.103  53.246  1.00  0.00    -0.349 N 
HETATM    8  C7  UNL     1      25.482  -0.927  52.334  1.00  0.00     0.156 C 
HETATM    9  C8  UNL     1      26.753  -0.155  52.090  1.00  0.00     0.292 C 
HETATM   10  C9  UNL     1      23.475   0.679  53.407  1.00  0.00     0.223 C 
HETATM   11  O2  UNL     1      23.338   0.297  52.220  1.00  0.00    -0.273 OA
HETATM   12  C10 UNL     1      22.188   1.304  52.974  1.00  0.00     0.138 C 
HETATM   13  C11 UNL     1      22.162   1.466  51.485  1.00  0.00    -0.051 A 
HETATM   14  C12 UNL     1      21.507   0.640  50.714  1.00  0.00     0.005 A 
HETATM   15  C13 UNL     1      21.398   0.672  49.272  1.00  0.00     0.007 A 
HETATM   16  C14 UNL     1      22.037   1.646  48.646  1.00  0.00     0.046 A 
HETATM   17  S1  UNL     1      23.033   2.954  49.343  1.00  0.00    -0.125 SA
HETATM   18  C15 UNL     1      22.991   2.707  51.122  1.00  0.00     0.137 A 
ENDROOT
BRANCH   1  19
HETATM   19  O1  UNL     1      24.424   3.219  53.058  1.00  0.00    -0.359 OA
HETATM   20  C1  UNL     1      23.860   4.470  53.377  1.00  0.00     0.209 C 
ENDBRANCH   1  19
TORSDOF 1
ENDMDL
MODEL 3
REMARK VINA RESULT:      -5.8      3.115      5.557
REMARK  1 active torsions:
REMARK  status: ('A' for Active; 'I' for Inactive)
REMARK    1  A    between atoms: O1_2  and  C2_3 
ROOT
HETATM    1  C2  UNL     1      23.919   3.612  50.873  1.00  0.00     0.062 C 
HETATM    2  C3  UNL     1      23.390   4.616  51.592  1.00  0.00     0.037 C 
HETATM    3  C4  UNL     1      23.947   5.961  51.310  1.00  0.00     0.302 C 
HETATM    4  N1  UNL     1      22.932   6.845  50.762  1.00  0.00     0.095 N 
HETATM    5  C5  UNL     1      23.196   7.215  49.409  1.00  0.00     0.292 C 
HETATM    6  C6  UNL     1      22.340   6.381  48.442  1.00  0.00     0.156 C 
HETATM    7  N2  UNL     1      21.885   5.166  49.077  1.00  0.00    -0.349 N 
HETATM    8  C7  UNL     1      20.859   5.683  50.017  1.00  0.00     0.156 C 
HETATM    9  C8  UNL     1      21.588   6.513  51.041  1.00  0.00     0.292 C 
HETATM   10  C9  UNL     1      22.589   4.034  48.586  1.00  0.00     0.223 C 
HETATM   11  O2  UNL     1      21.813   3.486  49.406  1.00  0.00    -0.273 OA
HETATM   12  C10 UNL     1      22.934   2.582  48.493  1.00  0.00     0.138 C 
HETATM   13  C11 UNL     1      22.572   1.878  49.765  1.00  0.00    -0.051 A 
HETATM   14  C12 UNL     1      21.486   1.159  49.869  1.00  0.00     0.005 A 
HETATM   15  C13 UNL     1      21.012   0.432  51.026  1.00  0.00     0.007 A 
HETATM   16  C14 UNL     1      21.755   0.499  52.119  1.00  0.00     0.046 A 
HETATM   17  S1  UNL     1      23.290   1.376  52.371  1.00  0.00    -0.125 SA
HETATM   18  C15 UNL     1      23.668   2.166  50.802  1.00  0.00     0.137 A 
ENDROOT
BRANCH   1  19
HETATM   19  O1  UNL     1      24.914   4.138  50.019  1.00  0.00    -0.359 OA
HETATM   20  C1  UNL     1      26.185   3.546  49.878  1.00  0.00     0.209 C 
ENDBRANCH   1  19
TORSDOF 1
ENDMDL
MODEL 4
REMARK VINA RESULT:      -5.8      3.064      5.109
REMARK  1 active torsions:
REMARK  status: ('A' for Active; 'I' for Inactive)
REMARK    1  A    between atoms: O1_2  and  C2_3 
ROOT
HETATM    1  C2  UNL     1      22.524   0.796  52.442  1.00  0.00     0.062 C 
HETATM    2  C3  UNL     1      22.116   0.232  51.291  1.00  0.00     0.037 C 
HETATM    3  C4  UNL     1      20.672   0.378  50.990  1.00  0.00     0.302 C 
HETATM    4  N1  UNL     1      20.464   1.162  49.784  1.00  0.00     0.095 N 
HETATM    5  C5  UNL     1      19.826   2.412  50.042  1.00  0.00     0.292 C 
HETATM    6  C6  UNL     1      20.856   3.554  50.058  1.00  0.00     0.156 C 
HETATM    7  N2  UNL     1      22.186   3.041  50.293  1.00  0.00    -0.349 N 
HETATM    8  C7  UNL     1      22.488   2.383  48.997  1.00  0.00     0.156 C 
HETATM    9  C8  UNL     1      21.543   1.216  48.873  1.00  0.00     0.292 C 
HETATM   10  C9  UNL     1      22.627   3.340  51.609  1.00  0.00     0.223 C 
HETATM   11  O2  UNL     1      23.629   2.730  51.162  1.00  0.00    -0.273 OA
HETATM   12  C10 UNL     1      23.589   3.337  52.755  1.00  0.00     0.138 C 
HETATM   13  C11 UNL     1      24.542   2.188  52.633  1.00  0.00    -0.051 A 
HETATM   14  C12 UNL     1      25.760   2.347  52.188  1.00  0.00     0.005 A 
HETATM   15  C13 UNL     1      26.779   1.335  52.014  1.00  0.00     0.007 A 
HETATM   16  C14 UNL     1      26.451   0.095  52.338  1.00  0.00     0.046 A 
HETATM   17  S1  UNL     1      24.898  -0.517  52.971  1.00  0.00    -0.125 SA
HETATM   18  C15 UNL     1      23.825   0.917  53.114  1.00  0.00     0.137 A 
ENDROOT
BRANCH   1  19
HETATM   19  O1  UNL     1      21.409   1.385  53.080  1.00  0.00    -0.359 OA
HETATM   20  C1  UNL     1      20.792   0.814  54.211  1.00  0.00     0.209 C 
ENDBRANCH   1  19
TORSDOF 1
ENDMDL
MODEL 5
REMARK VINA RESULT:      -5.8      8.531     10.148
REMARK  1 active torsions:
REMARK  status: ('A' for Active; 'I' for Inactive)
REMARK    1  A    between atoms: O1_2  and  C2_3 
ROOT
HETATM    1  C2  UNL     1      32.725   7.487  46.045  1.00  0.00     0.062 C 
HETATM    2  C3  UNL     1      32.187   6.336  45.606  1.00  0.00     0.037 C 
HETATM    3  C4  UNL     1      33.110   5.448  44.859  1.00  0.00     0.302 C 
HETATM    4  N1  UNL     1      33.310   4.191  45.559  1.00  0.00     0.095 N 
HETATM    5  C5  UNL     1      34.648   4.029  46.030  1.00  0.00     0.292 C 
HETATM    6  C6  UNL     1      34.737   4.353  47.531  1.00  0.00     0.156 C 
HETATM    7  N2  UNL     1      33.621   5.172  47.946  1.00  0.00    -0.349 N 
HETATM    8  C7  UNL     1      32.504   4.195  47.917  1.00  0.00     0.156 C 
HETATM    9  C8  UNL     1      32.302   3.811  46.474  1.00  0.00     0.292 C 
HETATM   10  C9  UNL     1      34.025   6.514  48.176  1.00  0.00     0.223 C 
HETATM   11  O2  UNL     1      32.803   6.590  48.451  1.00  0.00    -0.273 OA
HETATM   12  C10 UNL     1      33.827   7.949  48.547  1.00  0.00     0.138 C 
HETATM   13  C11 UNL     1      32.403   8.354  48.324  1.00  0.00    -0.051 A 
HETATM   14  C12 UNL     1      31.549   8.442  49.308  1.00  0.00     0.005 A 
HETATM   15  C13 UNL     1      30.152   8.814  49.238  1.00  0.00     0.007 A 
HETATM   16  C14 UNL     1      29.668   9.098  48.041  1.00  0.00     0.046 A 
HETATM   17  S1  UNL     1      30.512   9.088  46.467  1.00  0.00    -0.125 SA
HETATM   18  C15 UNL     1      32.210   8.622  46.823  1.00  0.00     0.137 A 
ENDROOT
BRANCH   1  19
HETATM   19  O1  UNL     1      34.079   7.539  45.643  1.00  0.00    -0.359 OA
HETATM   20  C1  UNL     1      34.656   8.688  45.067  1.00  0.00     0.209 C 
ENDBRANCH   1  19
TORSDOF 1
ENDMDL
MODEL 6
REMARK VINA RESULT:      -5.7      2.926      5.528
REMARK  1 active torsions:
REMARK  status: ('A' for Active; 'I' for Inactive)
REMARK    1  A    between atoms: O1_2  and  C2_3 
ROOT
HETATM    1  C2  UNL     1      23.083   1.877  52.104  1.00  0.00     0.062 C 
HETATM    2  C3  UNL     1      22.921   3.086  52.668  1.00  0.00     0.037 C 
HETATM    3  C4  UNL     1      23.937   4.100  52.298  1.00  0.00     0.302 C 
HETATM    4  N1  UNL     1      23.334   5.208  51.578  1.00  0.00     0.095 N 
HETATM    5  C5  UNL     1      23.770   5.287  50.221  1.00  0.00     0.292 C 
HETATM    6  C6  UNL     1      22.713   4.694  49.275  1.00  0.00     0.156 C 
HETATM    7  N2  UNL     1      21.825   3.807  49.991  1.00  0.00    -0.349 N 
HETATM    8  C7  UNL     1      21.014   4.768  50.782  1.00  0.00     0.156 C 
HETATM    9  C8  UNL     1      21.949   5.409  51.774  1.00  0.00     0.292 C 
HETATM   10  C9  UNL     1      22.094   2.447  49.681  1.00  0.00     0.223 C 
HETATM   11  O2  UNL     1      21.138   2.317  50.484  1.00  0.00    -0.273 OA
HETATM   12  C10 UNL     1      21.896   0.968  49.768  1.00  0.00     0.138 C 
HETATM   13  C11 UNL     1      21.250   0.604  51.069  1.00  0.00    -0.051 A 
HETATM   14  C12 UNL     1      19.975   0.333  51.154  1.00  0.00     0.005 A 
HETATM   15  C13 UNL     1      19.223  -0.027  52.336  1.00  0.00     0.007 A 
HETATM   16  C14 UNL     1      19.892  -0.089  53.475  1.00  0.00     0.046 A 
HETATM   17  S1  UNL     1      21.628   0.215  53.765  1.00  0.00    -0.125 SA
HETATM   18  C15 UNL     1      22.332   0.615  52.161  1.00  0.00     0.137 A 
ENDROOT
BRANCH   1  19
HETATM   19  O1  UNL     1      24.237   1.905  51.288  1.00  0.00    -0.359 OA
HETATM   20  C1  UNL     1      25.428   1.237  51.633  1.00  0.00     0.209 C 
ENDBRANCH   1  19
TORSDOF 1
ENDMDL
MODEL 7
REMARK VINA RESULT:      -5.6      2.543      3.472
REMARK  1 active torsions:
REMARK  status: ('A' for Active; 'I' for Inactive)
REMARK    1  A    between atoms: O1_2  and  C2_3 
ROOT
HETATM    1  C2  UNL     1      21.668   4.644  50.709  1.00  0.00     0.062 C 
HETATM    2  C3  UNL     1      21.752   4.091  51.931  1.00  0.00     0.037 C 
HETATM    3  C4  UNL     1      20.607   3.233  52.318  1.00  0.00     0.302 C 
HETATM    4  N1  UNL     1      21.025   1.854  52.510  1.00  0.00     0.095 N 
HETATM    5  C5  UNL     1      20.465   0.969  51.540  1.00  0.00     0.292 C 
HETATM    6  C6  UNL     1      21.492   0.648  50.442  1.00  0.00     0.156 C 
HETATM    7  N2  UNL     1      22.528   1.654  50.398  1.00  0.00    -0.349 N 
HETATM    8  C7  UNL     1      23.299   1.345  51.629  1.00  0.00     0.156 C 
HETATM    9  C8  UNL     1      22.392   1.644  52.795  1.00  0.00     0.292 C 
HETATM   10  C9  UNL     1      22.377   2.500  49.267  1.00  0.00     0.223 C 
HETATM   11  O2  UNL     1      23.407   2.992  49.789  1.00  0.00    -0.273 OA
HETATM   12  C10 UNL     1      22.736   3.632  48.358  1.00  0.00     0.138 C 
HETATM   13  C11 UNL     1      23.527   4.665  49.099  1.00  0.00    -0.051 A 
HETATM   14  C12 UNL     1      24.826   4.748  48.988  1.00  0.00     0.005 A 
HETATM   15  C13 UNL     1      25.713   5.686  49.642  1.00  0.00     0.007 A 
HETATM   16  C14 UNL     1      25.156   6.568  50.455  1.00  0.00     0.046 A 
HETATM   17  S1  UNL     1      23.430   6.769  50.867  1.00  0.00    -0.125 SA
HETATM   18  C15 UNL     1      22.551   5.518  49.923  1.00  0.00     0.137 A 
ENDROOT
BRANCH   1  19
HETATM   19  O1  UNL     1      20.452   4.247  50.111  1.00  0.00    -0.359 OA
HETATM   20  C1  UNL     1      19.584   5.159  49.477  1.00  0.00     0.209 C 
ENDBRANCH   1  19
TORSDOF 1
ENDMDL
MODEL 8
REMARK VINA RESULT:      -5.6      2.792      4.646
REMARK  1 active torsions:
REMARK  status: ('A' for Active; 'I' for Inactive)
REMARK    1  A    between atoms: O1_2  and  C2_3 
ROOT
HETATM    1  C2  UNL     1      23.436   2.465  50.972  1.00  0.00     0.062 C 
HETATM    2  C3  UNL     1      22.690   2.079  49.923  1.00  0.00     0.037 C 
HETATM    3  C4  UNL     1      21.630   1.089  50.229  1.00  0.00     0.302 C 
HETATM    4  N1  UNL     1      20.309   1.641  49.982  1.00  0.00     0.095 N 
HETATM    5  C5  UNL     1      19.543   1.792  51.177  1.00  0.00     0.292 C 
HETATM    6  C6  UNL     1      19.565   3.255  51.653  1.00  0.00     0.156 C 
HETATM    7  N2  UNL     1      20.693   3.960  51.091  1.00  0.00    -0.349 N 
HETATM    8  C7  UNL     1      20.276   4.113  49.674  1.00  0.00     0.156 C 
HETATM    9  C8  UNL     1      20.237   2.727  49.082  1.00  0.00     0.292 C 
HETATM   10  C9  UNL     1      21.699   4.185  52.068  1.00  0.00     0.223 C 
HETATM   11  O2  UNL     1      22.224   4.728  51.065  1.00  0.00    -0.273 OA
HETATM   12  C10 UNL     1      23.012   4.688  52.576  1.00  0.00     0.138 C 
HETATM   13  C11 UNL     1      23.994   4.812  51.452  1.00  0.00    -0.051 A 
HETATM   14  C12 UNL     1      24.269   5.964  50.902  1.00  0.00     0.005 A 
HETATM   15  C13 UNL     1      25.186   6.231  49.815  1.00  0.00     0.007 A 
HETATM   16  C14 UNL     1      25.826   5.192  49.304  1.00  0.00     0.046 A 
HETATM   17  S1  UNL     1      25.715   3.473  49.777  1.00  0.00    -0.125 SA
HETATM   18  C15 UNL     1      24.547   3.412  51.140  1.00  0.00     0.137 A 
ENDROOT
BRANCH   1  19
HETATM   19  O1  UNL     1      22.992   1.778  52.125  1.00  0.00    -0.359 OA
HETATM   20  C1  UNL     1      23.877   1.143  53.019  1.00  0.00     0.209 C 
ENDBRANCH   1  19
TORSDOF 1
ENDMDL
MODEL 9
REMARK VINA RESULT:      -5.6      2.918      4.918
REMARK  1 active torsions:
REMARK  status: ('A' for Active; 'I' for Inactive)
REMARK    1  A    between atoms: O1_2  and  C2_3 
ROOT
HETATM    1  C2  UNL     1      22.417   3.984  51.056  1.00  0.00     0.062 C 
HETATM    2  C3  UNL     1      21.578   2.934  51.017  1.00  0.00     0.037 C 
HETATM    3  C4  UNL     1      20.213   3.231  50.520  1.00  0.00     0.302 C 
HETATM    4  N1  UNL     1      19.936   2.516  49.286  1.00  0.00     0.095 N 
HETATM    5  C5  UNL     1      19.782   3.387  48.167  1.00  0.00     0.292 C 
HETATM    6  C6  UNL     1      21.067   3.420  47.323  1.00  0.00     0.156 C 
HETATM    7  N2  UNL     1      22.203   2.983  48.102  1.00  0.00    -0.349 N 
HETATM    8  C7  UNL     1      21.950   1.523  48.207  1.00  0.00     0.156 C 
HETATM    9  C8  UNL     1      20.707   1.358  49.042  1.00  0.00     0.292 C 
HETATM   10  C9  UNL     1      23.039   4.076  48.452  1.00  0.00     0.223 C 
HETATM   11  O2  UNL     1      23.666   3.126  48.981  1.00  0.00    -0.273 OA
HETATM   12  C10 UNL     1      24.221   4.734  49.088  1.00  0.00     0.138 C 
HETATM   13  C11 UNL     1      24.731   3.904  50.226  1.00  0.00    -0.051 A 
HETATM   14  C12 UNL     1      25.782   3.138  50.104  1.00  0.00     0.005 A 
HETATM   15  C13 UNL     1      26.379   2.286  51.109  1.00  0.00     0.007 A 
HETATM   16  C14 UNL     1      25.799   2.267  52.298  1.00  0.00     0.046 A 
HETATM   17  S1  UNL     1      24.356   3.163  52.847  1.00  0.00    -0.125 SA
HETATM   18  C15 UNL     1      23.825   4.150  51.443  1.00  0.00     0.137 A 
ENDROOT
BRANCH   1  19
HETATM   19  O1  UNL     1      21.730   5.133  50.606  1.00  0.00    -0.359 OA
HETATM   20  C1  UNL     1      21.888   6.397  51.207  1.00  0.00     0.209 C 
ENDBRANCH   1  19
TORSDOF 1
ENDMDL
