MODEL 1
REMARK VINA RESULT:      -7.8      0.000      0.000
REMARK  4 active torsions:
REMARK  status: ('A' for Active; 'I' for Inactive)
REMARK    1  A    between atoms: O1_2  and  C2_3 
REMARK    2  A    between atoms: C7_8  and  C8_9 
REMARK    3  A    between atoms: S1_12  and  C11_13 
REMARK    4  A    between atoms: C11_13  and  N1_14 
ROOT
HETATM    1  C8  UNL     1      22.001   0.654  52.443  1.00  0.00    -0.020 C 
HETATM    2  C9  UNL     1      22.881  -0.236  52.850  1.00  0.00     0.087 A 
HETATM    3  C10 UNL     1      22.830  -0.549  54.114  1.00  0.00    -0.022 A 
HETATM    4  S1  UNL     1      24.467  -0.361  53.508  1.00  0.00    -0.142 SA
HETATM    5  C15 UNL     1      21.493  -0.729  54.716  1.00  0.00     0.070 C 
HETATM    6  C16 UNL     1      20.579   0.377  54.311  1.00  0.00    -0.021 C 
HETATM    7  C17 UNL     1      20.802   1.076  53.198  1.00  0.00     0.006 C 
ENDROOT
BRANCH   1   8
HETATM    8  C7  UNL     1      22.218   1.285  51.137  1.00  0.00     0.005 A 
HETATM    9  C2  UNL     1      23.023   2.375  50.853  1.00  0.00     0.079 A 
HETATM   10  C3  UNL     1      23.109   2.839  49.557  1.00  0.00     0.037 A 
HETATM   11  C4  UNL     1      22.390   2.212  48.561  1.00  0.00     0.003 A 
HETATM   12  C5  UNL     1      21.573   1.124  48.789  1.00  0.00     0.001 A 
HETATM   13  C6  UNL     1      21.503   0.674  50.102  1.00  0.00     0.015 A 
BRANCH   9  14
HETATM   14  O1  UNL     1      23.651   2.850  51.996  1.00  0.00    -0.355 OA
HETATM   15  C1  UNL     1      23.465   4.205  52.360  1.00  0.00     0.210 C 
ENDBRANCH   9  14
ENDBRANCH   1   8
BRANCH   4  16
HETATM   16  C11 UNL     1      25.725  -0.648  54.789  1.00  0.00     0.344 C 
BRANCH  16  17
HETATM   17  N1  UNL     1      26.540   0.539  54.819  1.00  0.00     0.121 N 
HETATM   18  C12 UNL     1      27.936   0.220  54.604  1.00  0.00     0.302 C 
HETATM   19  C13 UNL     1      28.431   1.476  53.900  1.00  0.00     0.200 C 
HETATM   20  O2  UNL     1      27.355   2.371  53.932  1.00  0.00    -0.361 OA
HETATM   21  C14 UNL     1      26.270   1.481  53.771  1.00  0.00     0.441 C 
ENDBRANCH  16  17
ENDBRANCH   4  16
TORSDOF 4
ENDMDL
MODEL 2
REMARK VINA RESULT:      -7.4      1.803      4.058
REMARK  4 active torsions:
REMARK  status: ('A' for Active; 'I' for Inactive)
REMARK    1  A    between atoms: O1_2  and  C2_3 
REMARK    2  A    between atoms: C7_8  and  C8_9 
REMARK    3  A    between atoms: S1_12  and  C11_13 
REMARK    4  A    between atoms: C11_13  and  N1_14 
ROOT
HETATM    1  C8  UNL     1      23.203   1.681  52.035  1.00  0.00    -0.020 C 
HETATM    2  C9  UNL     1      24.170   2.310  52.667  1.00  0.00     0.087 A 
HETATM    3  C10 UNL     1      25.092   2.839  51.914  1.00  0.00    -0.022 A 
HETATM    4  S1  UNL     1      25.731   2.048  53.345  1.00  0.00    -0.142 SA
HETATM    5  C15 UNL     1      24.652   3.529  50.684  1.00  0.00     0.070 C 
HETATM    6  C16 UNL     1      23.644   2.710  49.952  1.00  0.00    -0.021 C 
HETATM    7  C17 UNL     1      22.915   1.793  50.589  1.00  0.00     0.006 C 
ENDROOT
BRANCH   1   8
HETATM    8  C7  UNL     1      22.333   0.797  52.817  1.00  0.00     0.005 A 
HETATM    9  C2  UNL     1      21.036   1.045  53.232  1.00  0.00     0.079 A 
HETATM   10  C3  UNL     1      20.361   0.093  53.967  1.00  0.00     0.037 A 
HETATM   11  C4  UNL     1      20.989  -1.094  54.282  1.00  0.00     0.003 A 
HETATM   12  C5  UNL     1      22.279  -1.392  53.895  1.00  0.00     0.001 A 
HETATM   13  C6  UNL     1      22.938  -0.418  53.154  1.00  0.00     0.015 A 
BRANCH   9  14
HETATM   14  O1  UNL     1      20.601   2.294  52.809  1.00  0.00    -0.355 OA
HETATM   15  C1  UNL     1      19.446   2.371  51.995  1.00  0.00     0.210 C 
ENDBRANCH   9  14
ENDBRANCH   1   8
BRANCH   4  16
HETATM   16  C11 UNL     1      27.543   2.148  53.450  1.00  0.00     0.344 C 
BRANCH  16  17
HETATM   17  N1  UNL     1      28.032   0.825  53.159  1.00  0.00     0.121 N 
HETATM   18  C12 UNL     1      29.389   0.653  53.634  1.00  0.00     0.302 C 
HETATM   19  C13 UNL     1      29.407  -0.831  53.974  1.00  0.00     0.200 C 
HETATM   20  O2  UNL     1      28.175  -1.330  53.534  1.00  0.00    -0.361 OA
HETATM   21  C14 UNL     1      27.331  -0.235  53.824  1.00  0.00     0.441 C 
ENDBRANCH  16  17
ENDBRANCH   4  16
TORSDOF 4
ENDMDL
MODEL 3
REMARK VINA RESULT:      -7.2      1.127      1.922
REMARK  4 active torsions:
REMARK  status: ('A' for Active; 'I' for Inactive)
REMARK    1  A    between atoms: O1_2  and  C2_3 
REMARK    2  A    between atoms: C7_8  and  C8_9 
REMARK    3  A    between atoms: S1_12  and  C11_13 
REMARK    4  A    between atoms: C11_13  and  N1_14 
ROOT
HETATM    1  C8  UNL     1      22.262   0.728  52.485  1.00  0.00    -0.020 C 
HETATM    2  C9  UNL     1      23.146  -0.165  52.876  1.00  0.00     0.087 A 
HETATM    3  C10 UNL     1      23.062  -0.542  54.120  1.00  0.00    -0.022 A 
HETATM    4  S1  UNL     1      24.713  -0.295  53.577  1.00  0.00    -0.142 SA
HETATM    5  C15 UNL     1      21.710  -0.774  54.670  1.00  0.00     0.070 C 
HETATM    6  C16 UNL     1      20.788   0.334  54.290  1.00  0.00    -0.021 C 
HETATM    7  C17 UNL     1      21.032   1.091  53.220  1.00  0.00     0.006 C 
ENDROOT
BRANCH   1   8
HETATM    8  C7  UNL     1      22.507   1.426  51.218  1.00  0.00     0.005 A 
HETATM    9  C2  UNL     1      21.744   1.367  50.064  1.00  0.00     0.079 A 
HETATM   10  C3  UNL     1      22.126   2.094  48.957  1.00  0.00     0.037 A 
HETATM   11  C4  UNL     1      23.265   2.871  49.013  1.00  0.00     0.003 A 
HETATM   12  C5  UNL     1      24.060   2.965  50.135  1.00  0.00     0.001 A 
HETATM   13  C6  UNL     1      23.656   2.224  51.239  1.00  0.00     0.015 A 
BRANCH   9  14
HETATM   14  O1  UNL     1      20.649   0.530  50.227  1.00  0.00    -0.355 OA
HETATM   15  C1  UNL     1      19.359   1.037  49.940  1.00  0.00     0.210 C 
ENDBRANCH   9  14
ENDBRANCH   1   8
BRANCH   4  16
HETATM   16  C11 UNL     1      25.935  -0.622  54.882  1.00  0.00     0.344 C 
BRANCH  16  17
HETATM   17  N1  UNL     1      26.797   0.531  54.918  1.00  0.00     0.121 N 
HETATM   18  C12 UNL     1      28.172   0.165  54.650  1.00  0.00     0.302 C 
HETATM   19  C13 UNL     1      28.694   1.421  53.965  1.00  0.00     0.200 C 
HETATM   20  O2  UNL     1      27.655   2.355  54.056  1.00  0.00    -0.361 OA
HETATM   21  C14 UNL     1      26.532   1.512  53.906  1.00  0.00     0.441 C 
ENDBRANCH  16  17
ENDBRANCH   4  16
TORSDOF 4
ENDMDL
MODEL 4
REMARK VINA RESULT:      -7.0      1.968      3.541
REMARK  4 active torsions:
REMARK  status: ('A' for Active; 'I' for Inactive)
REMARK    1  A    between atoms: O1_2  and  C2_3 
REMARK    2  A    between atoms: C7_8  and  C8_9 
REMARK    3  A    between atoms: S1_12  and  C11_13 
REMARK    4  A    between atoms: C11_13  and  N1_14 
ROOT
HETATM    1  C8  UNL     1      23.959   2.348  51.137  1.00  0.00    -0.020 C 
HETATM    2  C9  UNL     1      24.900   1.886  51.932  1.00  0.00     0.087 A 
HETATM    3  C10 UNL     1      26.095   1.813  51.418  1.00  0.00    -0.022 A 
HETATM    4  S1  UNL     1      25.672   0.419  52.397  1.00  0.00    -0.142 SA
HETATM    5  C15 UNL     1      26.542   2.942  50.576  1.00  0.00     0.070 C 
HETATM    6  C16 UNL     1      25.473   3.339  49.616  1.00  0.00    -0.021 C 
HETATM    7  C17 UNL     1      24.193   3.062  49.863  1.00  0.00     0.006 C 
ENDROOT
BRANCH   1   8
HETATM    8  C7  UNL     1      22.562   2.145  51.536  1.00  0.00     0.005 A 
HETATM    9  C2  UNL     1      21.726   3.053  52.163  1.00  0.00     0.079 A 
HETATM   10  C3  UNL     1      20.432   2.690  52.467  1.00  0.00     0.037 A 
HETATM   11  C4  UNL     1      19.987   1.425  52.146  1.00  0.00     0.003 A 
HETATM   12  C5  UNL     1      20.777   0.482  51.523  1.00  0.00     0.001 A 
HETATM   13  C6  UNL     1      22.077   0.871  51.225  1.00  0.00     0.015 A 
BRANCH   9  14
HETATM   14  O1  UNL     1      22.375   4.259  52.393  1.00  0.00    -0.355 OA
HETATM   15  C1  UNL     1      21.936   5.410  51.695  1.00  0.00     0.210 C 
ENDBRANCH   9  14
ENDBRANCH   1   8
BRANCH   4  16
HETATM   16  C11 UNL     1      27.005  -0.814  52.471  1.00  0.00     0.344 C 
BRANCH  16  17
HETATM   17  N1  UNL     1      27.818  -0.455  53.604  1.00  0.00     0.121 N 
HETATM   18  C12 UNL     1      28.964   0.331  53.198  1.00  0.00     0.302 C 
HETATM   19  C13 UNL     1      29.174   1.216  54.420  1.00  0.00     0.200 C 
HETATM   20  O2  UNL     1      28.269   0.749  55.380  1.00  0.00    -0.361 OA
HETATM   21  C14 UNL     1      27.174   0.400  54.559  1.00  0.00     0.441 C 
ENDBRANCH  16  17
ENDBRANCH   4  16
TORSDOF 4
ENDMDL
MODEL 5
REMARK VINA RESULT:      -6.7      2.948      6.259
REMARK  4 active torsions:
REMARK  status: ('A' for Active; 'I' for Inactive)
REMARK    1  A    between atoms: O1_2  and  C2_3 
REMARK    2  A    between atoms: C7_8  and  C8_9 
REMARK    3  A    between atoms: S1_12  and  C11_13 
REMARK    4  A    between atoms: C11_13  and  N1_14 
ROOT
HETATM    1  C8  UNL     1      24.046   2.164  52.246  1.00  0.00    -0.020 C 
HETATM    2  C9  UNL     1      23.246   2.015  51.212  1.00  0.00     0.087 A 
HETATM    3  C10 UNL     1      22.290   2.892  51.101  1.00  0.00    -0.022 A 
HETATM    4  S1  UNL     1      21.776   1.252  50.744  1.00  0.00    -0.142 SA
HETATM    5  C15 UNL     1      22.625   4.303  51.384  1.00  0.00     0.070 C 
HETATM    6  C16 UNL     1      23.431   4.414  52.633  1.00  0.00    -0.021 C 
HETATM    7  C17 UNL     1      24.141   3.380  53.083  1.00  0.00     0.006 C 
ENDROOT
BRANCH   1   8
HETATM    8  C7  UNL     1      24.919   1.042  52.606  1.00  0.00     0.005 A 
HETATM    9  C2  UNL     1      24.603  -0.047  53.402  1.00  0.00     0.079 A 
HETATM   10  C3  UNL     1      25.554  -1.017  53.638  1.00  0.00     0.037 A 
HETATM   11  C4  UNL     1      26.809  -0.889  53.079  1.00  0.00     0.003 A 
HETATM   12  C5  UNL     1      27.176   0.174  52.280  1.00  0.00     0.001 A 
HETATM   13  C6  UNL     1      26.201   1.138  52.056  1.00  0.00     0.015 A 
BRANCH   9  14
HETATM   14  O1  UNL     1      23.294   0.025  53.859  1.00  0.00    -0.355 OA
HETATM   15  C1  UNL     1      22.799  -1.025  54.669  1.00  0.00     0.210 C 
ENDBRANCH   9  14
ENDBRANCH   1   8
BRANCH   4  16
HETATM   16  C11 UNL     1      20.016   1.151  50.299  1.00  0.00     0.344 C 
BRANCH  16  17
HETATM   17  N1  UNL     1      19.320   0.790  51.507  1.00  0.00     0.121 N 
HETATM   18  C12 UNL     1      18.149  -0.010  51.216  1.00  0.00     0.302 C 
HETATM   19  C13 UNL     1      18.066  -0.890  52.456  1.00  0.00     0.200 C 
HETATM   20  O2  UNL     1      19.054  -0.409  53.323  1.00  0.00    -0.361 OA
HETATM   21  C14 UNL     1      20.062  -0.055  52.399  1.00  0.00     0.441 C 
ENDBRANCH  16  17
ENDBRANCH   4  16
TORSDOF 4
ENDMDL
MODEL 6
REMARK VINA RESULT:      -6.6      2.557      6.064
REMARK  4 active torsions:
REMARK  status: ('A' for Active; 'I' for Inactive)
REMARK    1  A    between atoms: O1_2  and  C2_3 
REMARK    2  A    between atoms: C7_8  and  C8_9 
REMARK    3  A    between atoms: S1_12  and  C11_13 
REMARK    4  A    between atoms: C11_13  and  N1_14 
ROOT
HETATM    1  C8  UNL     1      25.085   0.699  53.332  1.00  0.00    -0.020 C 
HETATM    2  C9  UNL     1      24.500   1.715  52.734  1.00  0.00     0.087 A 
HETATM    3  C10 UNL     1      23.270   1.519  52.353  1.00  0.00    -0.022 A 
HETATM    4  S1  UNL     1      24.234   2.390  51.173  1.00  0.00    -0.142 SA
HETATM    5  C15 UNL     1      22.379   0.792  53.281  1.00  0.00     0.070 C 
HETATM    6  C16 UNL     1      23.060  -0.414  53.831  1.00  0.00    -0.021 C 
HETATM    7  C17 UNL     1      24.391  -0.490  53.870  1.00  0.00     0.006 C 
ENDROOT
BRANCH   1   8
HETATM    8  C7  UNL     1      26.544   0.739  53.481  1.00  0.00     0.005 A 
HETATM    9  C2  UNL     1      27.413  -0.338  53.537  1.00  0.00     0.079 A 
HETATM   10  C3  UNL     1      28.766  -0.114  53.681  1.00  0.00     0.037 A 
HETATM   11  C4  UNL     1      29.236   1.180  53.772  1.00  0.00     0.003 A 
HETATM   12  C5  UNL     1      28.415   2.287  53.723  1.00  0.00     0.001 A 
HETATM   13  C6  UNL     1      27.055   2.037  53.576  1.00  0.00     0.015 A 
BRANCH   9  14
HETATM   14  O1  UNL     1      26.732  -1.542  53.428  1.00  0.00    -0.355 OA
HETATM   15  C1  UNL     1      27.104  -2.442  52.400  1.00  0.00     0.210 C 
ENDBRANCH   9  14
ENDBRANCH   1   8
BRANCH   4  16
HETATM   16  C11 UNL     1      23.291   2.822  49.680  1.00  0.00     0.344 C 
BRANCH  16  17
HETATM   17  N1  UNL     1      22.863   4.186  49.861  1.00  0.00     0.121 N 
HETATM   18  C12 UNL     1      21.549   4.245  50.467  1.00  0.00     0.302 C 
HETATM   19  C13 UNL     1      21.638   5.542  51.260  1.00  0.00     0.200 C 
HETATM   20  O2  UNL     1      22.868   6.111  50.909  1.00  0.00    -0.361 OA
HETATM   21  C14 UNL     1      23.663   4.951  50.773  1.00  0.00     0.441 C 
ENDBRANCH  16  17
ENDBRANCH   4  16
TORSDOF 4
ENDMDL
MODEL 7
REMARK VINA RESULT:      -6.5      3.583      5.644
REMARK  4 active torsions:
REMARK  status: ('A' for Active; 'I' for Inactive)
REMARK    1  A    between atoms: O1_2  and  C2_3 
REMARK    2  A    between atoms: C7_8  and  C8_9 
REMARK    3  A    between atoms: S1_12  and  C11_13 
REMARK    4  A    between atoms: C11_13  and  N1_14 
ROOT
HETATM    1  C8  UNL     1      24.790   2.390  52.458  1.00  0.00    -0.020 C 
HETATM    2  C9  UNL     1      25.420   2.365  51.302  1.00  0.00     0.087 A 
HETATM    3  C10 UNL     1      26.708   2.555  51.353  1.00  0.00    -0.022 A 
HETATM    4  S1  UNL     1      25.931   3.398  50.023  1.00  0.00    -0.142 SA
HETATM    5  C15 UNL     1      27.452   1.886  52.440  1.00  0.00     0.070 C 
HETATM    6  C16 UNL     1      26.746   2.053  53.742  1.00  0.00    -0.021 C 
HETATM    7  C17 UNL     1      25.437   2.301  53.784  1.00  0.00     0.006 C 
ENDROOT
BRANCH   1   8
HETATM    8  C7  UNL     1      23.329   2.515  52.440  1.00  0.00     0.005 A 
HETATM    9  C2  UNL     1      22.397   1.499  52.565  1.00  0.00     0.079 A 
HETATM   10  C3  UNL     1      21.052   1.800  52.525  1.00  0.00     0.037 A 
HETATM   11  C4  UNL     1      20.652   3.109  52.358  1.00  0.00     0.003 A 
HETATM   12  C5  UNL     1      21.538   4.159  52.228  1.00  0.00     0.001 A 
HETATM   13  C6  UNL     1      22.888   3.831  52.272  1.00  0.00     0.015 A 
BRANCH   9  14
HETATM   14  O1  UNL     1      23.014   0.265  52.722  1.00  0.00    -0.355 OA
HETATM   15  C1  UNL     1      22.585  -0.579  53.774  1.00  0.00     0.210 C 
ENDBRANCH   9  14
ENDBRANCH   1   8
BRANCH   4  16
HETATM   16  C11 UNL     1      27.107   4.348  49.014  1.00  0.00     0.344 C 
BRANCH  16  17
HETATM   17  N1  UNL     1      26.482   5.622  48.767  1.00  0.00     0.121 N 
HETATM   18  C12 UNL     1      25.672   6.034  49.894  1.00  0.00     0.302 C 
HETATM   19  C13 UNL     1      25.794   7.550  49.819  1.00  0.00     0.200 C 
HETATM   20  O2  UNL     1      26.494   7.810  48.635  1.00  0.00    -0.361 OA
HETATM   21  C14 UNL     1      27.393   6.720  48.618  1.00  0.00     0.441 C 
ENDBRANCH  16  17
ENDBRANCH   4  16
TORSDOF 4
ENDMDL
MODEL 8
REMARK VINA RESULT:      -6.4      7.907      9.995
REMARK  4 active torsions:
REMARK  status: ('A' for Active; 'I' for Inactive)
REMARK    1  A    between atoms: O1_2  and  C2_3 
REMARK    2  A    between atoms: C7_8  and  C8_9 
REMARK    3  A    between atoms: S1_12  and  C11_13 
REMARK    4  A    between atoms: C11_13  and  N1_14 
ROOT
HETATM    1  C8  UNL     1      28.919   7.214  47.798  1.00  0.00    -0.020 C 
HETATM    2  C9  UNL     1      30.040   7.389  48.465  1.00  0.00     0.087 A 
HETATM    3  C10 UNL     1      31.072   7.754  47.758  1.00  0.00    -0.022 A 
HETATM    4  S1  UNL     1      31.453   6.545  48.973  1.00  0.00    -0.142 SA
HETATM    5  C15 UNL     1      30.850   8.769  46.708  1.00  0.00     0.070 C 
HETATM    6  C16 UNL     1      29.631   8.448  45.912  1.00  0.00    -0.021 C 
HETATM    7  C17 UNL     1      28.663   7.686  46.421  1.00  0.00     0.006 C 
ENDROOT
BRANCH   1   8
HETATM    8  C7  UNL     1      27.829   6.495  48.466  1.00  0.00     0.005 A 
HETATM    9  C2  UNL     1      26.713   7.041  49.079  1.00  0.00     0.079 A 
HETATM   10  C3  UNL     1      25.781   6.209  49.662  1.00  0.00     0.037 A 
HETATM   11  C4  UNL     1      25.973   4.844  49.630  1.00  0.00     0.003 A 
HETATM   12  C5  UNL     1      27.066   4.248  49.035  1.00  0.00     0.001 A 
HETATM   13  C6  UNL     1      27.991   5.107  48.453  1.00  0.00     0.015 A 
BRANCH   9  14
HETATM   14  O1  UNL     1      26.720   8.427  48.995  1.00  0.00    -0.355 OA
HETATM   15  C1  UNL     1      27.035   9.175  50.155  1.00  0.00     0.210 C 
ENDBRANCH   9  14
ENDBRANCH   1   8
BRANCH   4  16
HETATM   16  C11 UNL     1      33.209   6.076  48.967  1.00  0.00     0.344 C 
BRANCH  16  17
HETATM   17  N1  UNL     1      33.378   5.184  47.849  1.00  0.00     0.121 N 
HETATM   18  C12 UNL     1      34.703   4.598  47.844  1.00  0.00     0.302 C 
HETATM   19  C13 UNL     1      34.432   3.239  47.211  1.00  0.00     0.200 C 
HETATM   20  O2  UNL     1      33.090   3.272  46.815  1.00  0.00    -0.361 OA
HETATM   21  C14 UNL     1      32.526   4.030  47.866  1.00  0.00     0.441 C 
ENDBRANCH  16  17
ENDBRANCH   4  16
TORSDOF 4
ENDMDL
MODEL 9
REMARK VINA RESULT:      -6.3      3.106      5.467
REMARK  4 active torsions:
REMARK  status: ('A' for Active; 'I' for Inactive)
REMARK    1  A    between atoms: O1_2  and  C2_3 
REMARK    2  A    between atoms: C7_8  and  C8_9 
REMARK    3  A    between atoms: S1_12  and  C11_13 
REMARK    4  A    between atoms: C11_13  and  N1_14 
ROOT
HETATM    1  C8  UNL     1      22.805   1.445  52.028  1.00  0.00    -0.020 C 
HETATM    2  C9  UNL     1      22.698   2.731  52.290  1.00  0.00     0.087 A 
HETATM    3  C10 UNL     1      21.905   3.406  51.508  1.00  0.00    -0.022 A 
HETATM    4  S1  UNL     1      23.397   4.252  51.885  1.00  0.00    -0.142 SA
HETATM    5  C15 UNL     1      20.622   2.776  51.132  1.00  0.00     0.070 C 
HETATM    6  C16 UNL     1      20.830   1.355  50.733  1.00  0.00    -0.021 C 
HETATM    7  C17 UNL     1      21.893   0.673  51.157  1.00  0.00     0.006 C 
ENDROOT
BRANCH   1   8
HETATM    8  C7  UNL     1      23.913   0.710  52.646  1.00  0.00     0.005 A 
HETATM    9  C2  UNL     1      23.857  -0.125  53.749  1.00  0.00     0.079 A 
HETATM   10  C3  UNL     1      25.007  -0.740  54.197  1.00  0.00     0.037 A 
HETATM   11  C4  UNL     1      26.199  -0.514  53.542  1.00  0.00     0.003 A 
HETATM   12  C5  UNL     1      26.311   0.308  52.440  1.00  0.00     0.001 A 
HETATM   13  C6  UNL     1      25.139   0.916  52.006  1.00  0.00     0.015 A 
BRANCH   9  14
HETATM   14  O1  UNL     1      22.566  -0.210  54.251  1.00  0.00    -0.355 OA
HETATM   15  C1  UNL     1      22.026  -1.491  54.522  1.00  0.00     0.210 C 
ENDBRANCH   9  14
ENDBRANCH   1   8
BRANCH   4  16
HETATM   16  C11 UNL     1      23.494   5.885  51.094  1.00  0.00     0.344 C 
BRANCH  16  17
HETATM   17  N1  UNL     1      24.869   6.054  50.697  1.00  0.00     0.121 N 
HETATM   18  C12 UNL     1      25.199   5.196  49.579  1.00  0.00     0.302 C 
HETATM   19  C13 UNL     1      26.252   6.027  48.858  1.00  0.00     0.200 C 
HETATM   20  O2  UNL     1      26.492   7.128  49.688  1.00  0.00    -0.361 OA
HETATM   21  C14 UNL     1      25.195   7.358  50.198  1.00  0.00     0.441 C 
ENDBRANCH  16  17
ENDBRANCH   4  16
TORSDOF 4
ENDMDL
