MODEL 1
REMARK VINA RESULT:      -6.6      0.000      0.000
REMARK  7 active torsions:
REMARK  status: ('A' for Active; 'I' for Inactive)
REMARK    1  A    between atoms: C2_2  and  C3_4 
REMARK    2  A    between atoms: C3_4  and  S1_5 
REMARK    3  A    between atoms: S1_5  and  C4_6 
REMARK    4  A    between atoms: C4_6  and  C5_7 
REMARK    5  A    between atoms: C6_8  and  N1_9 
REMARK    6  A    between atoms: N1_9  and  C7_10 
REMARK    7  A    between atoms: C12_17  and  N4_18 
ROOT
HETATM    1  C7  UNL     1      26.095   3.964  50.009  1.00  0.00     0.141 A 
HETATM    2  N2  UNL     1      27.142   4.054  49.172  1.00  0.00    -0.224 NA
HETATM    3  C8  UNL     1      27.530   5.225  48.607  1.00  0.00     0.236 A 
HETATM    4  N3  UNL     1      26.828   6.328  48.907  1.00  0.00    -0.241 NA
HETATM    5  C9  UNL     1      25.778   6.334  49.724  1.00  0.00     0.073 A 
HETATM    6  C10 UNL     1      25.411   5.139  50.279  1.00  0.00     0.042 A 
HETATM    7  C11 UNL     1      24.318   4.867  51.193  1.00  0.00     0.065 C 
HETATM    8  C12 UNL     1      23.355   5.718  51.531  1.00  0.00     0.099 C 
HETATM    9  N5  UNL     1      23.076   7.067  51.160  1.00  0.00    -0.353 N 
HETATM   10  C13 UNL     1      24.018   7.921  50.521  1.00  0.00     0.092 C 
HETATM   11  C14 UNL     1      25.160   7.657  49.909  1.00  0.00     0.049 C 
HETATM   12  H12 UNL     1      22.116   7.441  51.374  1.00  0.00     0.166 HD
ENDROOT
BRANCH   1  13
HETATM   13  N1  UNL     1      25.759   2.692  50.558  1.00  0.00    -0.350 N 
HETATM   14  H7  UNL     1      24.832   2.643  50.116  1.00  0.00     0.166 HD
BRANCH  13  15
HETATM   15  C6  UNL     1      26.305   1.687  51.401  1.00  0.00     0.087 C 
HETATM   16  C5  UNL     1      25.467   1.332  52.342  1.00  0.00     0.006 C 
BRANCH  16  17
HETATM   17  C4  UNL     1      25.413   0.404  53.469  1.00  0.00     0.152 C 
BRANCH  17  18
HETATM   18  S1  UNL     1      26.887  -0.415  53.388  1.00  0.00    -0.270 SA
BRANCH  18  19
HETATM   19  C3  UNL     1      27.908   0.194  54.587  1.00  0.00     0.169 C 
BRANCH  19  20
HETATM   20  C2  UNL     1      28.932   1.039  53.945  1.00  0.00    -0.007 C 
HETATM   21  C1  UNL     1      28.918   2.356  53.852  1.00  0.00     0.028 C 
HETATM   22 BR1  UNL     1      29.795  -0.648  53.590  1.00  0.00    -0.055 Br
ENDBRANCH  19  20
ENDBRANCH  18  19
ENDBRANCH  17  18
ENDBRANCH  16  17
ENDBRANCH  13  15
ENDBRANCH   1  13
BRANCH   8  23
HETATM   23  N4  UNL     1      22.408   5.176  52.454  1.00  0.00    -0.385 N 
HETATM   24  H10 UNL     1      22.572   5.138  53.485  1.00  0.00     0.157 HD
HETATM   25  H11 UNL     1      21.478   4.775  52.174  1.00  0.00     0.157 HD
ENDBRANCH   8  23
TORSDOF 7
ENDMDL
MODEL 2
REMARK VINA RESULT:      -6.6      3.392      5.426
REMARK  7 active torsions:
REMARK  status: ('A' for Active; 'I' for Inactive)
REMARK    1  A    between atoms: C2_2  and  C3_4 
REMARK    2  A    between atoms: C3_4  and  S1_5 
REMARK    3  A    between atoms: S1_5  and  C4_6 
REMARK    4  A    between atoms: C4_6  and  C5_7 
REMARK    5  A    between atoms: C6_8  and  N1_9 
REMARK    6  A    between atoms: N1_9  and  C7_10 
REMARK    7  A    between atoms: C12_17  and  N4_18 
ROOT
HETATM    1  C7  UNL     1      24.015   1.765  51.603  1.00  0.00     0.141 A 
HETATM    2  N2  UNL     1      23.494   2.599  50.686  1.00  0.00    -0.224 NA
HETATM    3  C8  UNL     1      22.168   2.877  50.619  1.00  0.00     0.236 A 
HETATM    4  N3  UNL     1      21.358   2.288  51.511  1.00  0.00    -0.241 NA
HETATM    5  C9  UNL     1      21.784   1.450  52.453  1.00  0.00     0.073 A 
HETATM    6  C10 UNL     1      23.125   1.189  52.496  1.00  0.00     0.042 A 
HETATM    7  C11 UNL     1      23.847   0.324  53.410  1.00  0.00     0.065 C 
HETATM    8  C12 UNL     1      23.300  -0.517  54.282  1.00  0.00     0.099 C 
HETATM    9  N5  UNL     1      21.948  -0.840  54.604  1.00  0.00    -0.353 N 
HETATM   10  C13 UNL     1      20.833  -0.045  54.216  1.00  0.00     0.092 C 
HETATM   11  C14 UNL     1      20.720   0.922  53.321  1.00  0.00     0.049 C 
HETATM   12  H12 UNL     1      21.777  -1.718  55.159  1.00  0.00     0.166 HD
ENDROOT
BRANCH   1  13
HETATM   13  N1  UNL     1      25.421   1.531  51.601  1.00  0.00    -0.350 N 
HETATM   14  H7  UNL     1      25.344   0.508  51.533  1.00  0.00     0.166 HD
BRANCH  13  15
HETATM   15  C6  UNL     1      26.648   2.246  51.658  1.00  0.00     0.087 C 
HETATM   16  C5  UNL     1      27.293   2.017  52.774  1.00  0.00     0.006 C 
BRANCH  16  17
HETATM   17  C4  UNL     1      28.541   2.417  53.421  1.00  0.00     0.152 C 
BRANCH  17  18
HETATM   18  S1  UNL     1      28.968   1.067  54.341  1.00  0.00    -0.270 SA
BRANCH  18  19
HETATM   19  C3  UNL     1      27.900  -0.190  53.981  1.00  0.00     0.169 C 
BRANCH  19  20
HETATM   20  C2  UNL     1      28.660  -1.284  53.348  1.00  0.00    -0.007 C 
HETATM   21  C1  UNL     1      29.951  -1.526  53.485  1.00  0.00     0.028 C 
HETATM   22 BR1  UNL     1      26.950  -1.741  52.583  1.00  0.00    -0.055 Br
ENDBRANCH  19  20
ENDBRANCH  18  19
ENDBRANCH  17  18
ENDBRANCH  16  17
ENDBRANCH  13  15
ENDBRANCH   1  13
BRANCH   8  23
HETATM   23  N4  UNL     1      24.256  -1.244  55.056  1.00  0.00    -0.385 N 
HETATM   24  H10 UNL     1      24.176  -1.375  56.089  1.00  0.00     0.157 HD
HETATM   25  H11 UNL     1      25.111  -1.703  54.652  1.00  0.00     0.157 HD
ENDBRANCH   8  23
TORSDOF 7
ENDMDL
MODEL 3
REMARK VINA RESULT:      -6.5      4.463      6.871
REMARK  7 active torsions:
REMARK  status: ('A' for Active; 'I' for Inactive)
REMARK    1  A    between atoms: C2_2  and  C3_4 
REMARK    2  A    between atoms: C3_4  and  S1_5 
REMARK    3  A    between atoms: S1_5  and  C4_6 
REMARK    4  A    between atoms: C4_6  and  C5_7 
REMARK    5  A    between atoms: C6_8  and  N1_9 
REMARK    6  A    between atoms: N1_9  and  C7_10 
REMARK    7  A    between atoms: C12_17  and  N4_18 
ROOT
HETATM    1  C7  UNL     1      24.698   1.636  51.762  1.00  0.00     0.141 A 
HETATM    2  N2  UNL     1      25.032   2.558  50.842  1.00  0.00    -0.224 NA
HETATM    3  C8  UNL     1      26.290   3.050  50.721  1.00  0.00     0.236 A 
HETATM    4  N3  UNL     1      27.227   2.587  51.561  1.00  0.00    -0.241 NA
HETATM    5  C9  UNL     1      26.990   1.677  52.502  1.00  0.00     0.073 A 
HETATM    6  C10 UNL     1      25.713   1.199  52.600  1.00  0.00     0.042 A 
HETATM    7  C11 UNL     1      25.187   0.213  53.526  1.00  0.00     0.065 C 
HETATM    8  C12 UNL     1      25.828  -0.290  54.575  1.00  0.00     0.099 C 
HETATM    9  N5  UNL     1      27.130  -0.069  55.117  1.00  0.00    -0.353 N 
HETATM   10  C13 UNL     1      28.180   0.578  54.406  1.00  0.00     0.092 C 
HETATM   11  C14 UNL     1      28.166   1.317  53.310  1.00  0.00     0.049 C 
HETATM   12  H12 UNL     1      27.312  -0.406  56.096  1.00  0.00     0.166 HD
ENDROOT
BRANCH   1  13
HETATM   13  N1  UNL     1      23.352   1.174  51.818  1.00  0.00    -0.350 N 
HETATM   14  H7  UNL     1      23.405   0.850  52.792  1.00  0.00     0.166 HD
BRANCH  13  15
HETATM   15  C6  UNL     1      22.192   1.082  50.999  1.00  0.00     0.087 C 
HETATM   16  C5  UNL     1      21.131   1.553  51.604  1.00  0.00     0.006 C 
BRANCH  16  17
HETATM   17  C4  UNL     1      19.708   1.741  51.333  1.00  0.00     0.152 C 
BRANCH  17  18
HETATM   18  S1  UNL     1      18.995   0.330  51.923  1.00  0.00    -0.270 SA
BRANCH  18  19
HETATM   19  C3  UNL     1      19.701  -0.049  53.410  1.00  0.00     0.169 C 
BRANCH  19  20
HETATM   20  C2  UNL     1      19.438  -1.470  53.705  1.00  0.00    -0.007 C 
HETATM   21  C1  UNL     1      18.286  -2.100  53.570  1.00  0.00     0.028 C 
HETATM   22 BR1  UNL     1      21.304  -1.492  54.187  1.00  0.00    -0.055 Br
ENDBRANCH  19  20
ENDBRANCH  18  19
ENDBRANCH  17  18
ENDBRANCH  16  17
ENDBRANCH  13  15
ENDBRANCH   1  13
BRANCH   8  23
HETATM   23  N4  UNL     1      25.063  -1.246  55.311  1.00  0.00    -0.385 N 
HETATM   24  H10 UNL     1      24.997  -1.246  56.353  1.00  0.00     0.157 HD
HETATM   25  H11 UNL     1      24.509  -2.021  54.868  1.00  0.00     0.157 HD
ENDBRANCH   8  23
TORSDOF 7
ENDMDL
MODEL 4
REMARK VINA RESULT:      -6.5      3.844      5.979
REMARK  7 active torsions:
REMARK  status: ('A' for Active; 'I' for Inactive)
REMARK    1  A    between atoms: C2_2  and  C3_4 
REMARK    2  A    between atoms: C3_4  and  S1_5 
REMARK    3  A    between atoms: S1_5  and  C4_6 
REMARK    4  A    between atoms: C4_6  and  C5_7 
REMARK    5  A    between atoms: C6_8  and  N1_9 
REMARK    6  A    between atoms: N1_9  and  C7_10 
REMARK    7  A    between atoms: C12_17  and  N4_18 
ROOT
HETATM    1  C7  UNL     1      22.478   2.059  52.470  1.00  0.00     0.141 A 
HETATM    2  N2  UNL     1      22.027   2.906  51.529  1.00  0.00    -0.224 NA
HETATM    3  C8  UNL     1      20.775   2.827  51.013  1.00  0.00     0.236 A 
HETATM    4  N3  UNL     1      19.968   1.859  51.471  1.00  0.00    -0.241 NA
HETATM    5  C9  UNL     1      20.328   0.977  52.400  1.00  0.00     0.073 A 
HETATM    6  C10 UNL     1      21.595   1.081  52.902  1.00  0.00     0.042 A 
HETATM    7  C11 UNL     1      22.237   0.259  53.911  1.00  0.00     0.065 C 
HETATM    8  C12 UNL     1      21.753  -0.870  54.418  1.00  0.00     0.099 C 
HETATM    9  N5  UNL     1      20.553  -1.606  54.182  1.00  0.00    -0.353 N 
HETATM   10  C13 UNL     1      19.420  -1.072  53.507  1.00  0.00     0.092 C 
HETATM   11  C14 UNL     1      19.282   0.004  52.751  1.00  0.00     0.049 C 
HETATM   12  H12 UNL     1      20.516  -2.598  54.531  1.00  0.00     0.166 HD
ENDROOT
BRANCH   1  13
HETATM   13  N1  UNL     1      23.808   2.216  52.957  1.00  0.00    -0.350 N 
HETATM   14  H7  UNL     1      23.529   2.459  53.915  1.00  0.00     0.166 HD
BRANCH  13  15
HETATM   15  C6  UNL     1      25.155   2.127  52.507  1.00  0.00     0.087 C 
HETATM   16  C5  UNL     1      25.510   0.888  52.276  1.00  0.00     0.006 C 
BRANCH  16  17
HETATM   17  C4  UNL     1      26.688   0.153  51.822  1.00  0.00     0.152 C 
BRANCH  17  18
HETATM   18  S1  UNL     1      27.148  -0.746  53.175  1.00  0.00    -0.270 SA
BRANCH  18  19
HETATM   19  C3  UNL     1      27.637   0.321  54.389  1.00  0.00     0.169 C 
BRANCH  19  20
HETATM   20  C2  UNL     1      28.773   1.115  53.885  1.00  0.00    -0.007 C 
HETATM   21  C1  UNL     1      28.803   2.424  53.716  1.00  0.00     0.028 C 
HETATM   22 BR1  UNL     1      29.648  -0.600  53.780  1.00  0.00    -0.055 Br
ENDBRANCH  19  20
ENDBRANCH  18  19
ENDBRANCH  17  18
ENDBRANCH  16  17
ENDBRANCH  13  15
ENDBRANCH   1  13
BRANCH   8  23
HETATM   23  N4  UNL     1      22.602  -1.468  55.399  1.00  0.00    -0.385 N 
HETATM   24  H10 UNL     1      22.284  -1.700  56.366  1.00  0.00     0.157 HD
HETATM   25  H11 UNL     1      23.608  -1.723  55.229  1.00  0.00     0.157 HD
ENDBRANCH   8  23
TORSDOF 7
ENDMDL
MODEL 5
REMARK VINA RESULT:      -6.5      3.494      6.840
REMARK  7 active torsions:
REMARK  status: ('A' for Active; 'I' for Inactive)
REMARK    1  A    between atoms: C2_2  and  C3_4 
REMARK    2  A    between atoms: C3_4  and  S1_5 
REMARK    3  A    between atoms: S1_5  and  C4_6 
REMARK    4  A    between atoms: C4_6  and  C5_7 
REMARK    5  A    between atoms: C6_8  and  N1_9 
REMARK    6  A    between atoms: N1_9  and  C7_10 
REMARK    7  A    between atoms: C12_17  and  N4_18 
ROOT
HETATM    1  C7  UNL     1      24.206   2.237  53.132  1.00  0.00     0.141 A 
HETATM    2  N2  UNL     1      23.012   1.626  53.045  1.00  0.00    -0.224 NA
HETATM    3  C8  UNL     1      22.879   0.276  53.048  1.00  0.00     0.236 A 
HETATM    4  N3  UNL     1      23.994  -0.464  53.142  1.00  0.00    -0.241 NA
HETATM    5  C9  UNL     1      25.216   0.053  53.232  1.00  0.00     0.073 A 
HETATM    6  C10 UNL     1      25.319   1.417  53.227  1.00  0.00     0.042 A 
HETATM    7  C11 UNL     1      26.517   2.232  53.312  1.00  0.00     0.065 C 
HETATM    8  C12 UNL     1      27.767   1.788  53.242  1.00  0.00     0.099 C 
HETATM    9  N5  UNL     1      28.329   0.487  53.075  1.00  0.00    -0.353 N 
HETATM   10  C13 UNL     1      27.594  -0.719  53.254  1.00  0.00     0.092 C 
HETATM   11  C14 UNL     1      26.293  -0.945  53.326  1.00  0.00     0.049 C 
HETATM   12  H12 UNL     1      29.344   0.427  52.805  1.00  0.00     0.166 HD
ENDROOT
BRANCH   1  13
HETATM   13  N1  UNL     1      24.252   3.662  53.122  1.00  0.00    -0.350 N 
HETATM   14  H7  UNL     1      24.948   3.737  53.874  1.00  0.00     0.166 HD
BRANCH  13  15
HETATM   15  C6  UNL     1      23.674   4.770  52.445  1.00  0.00     0.087 C 
HETATM   16  C5  UNL     1      23.390   4.485  51.199  1.00  0.00     0.006 C 
BRANCH  16  17
HETATM   17  C4  UNL     1      22.812   5.141  50.028  1.00  0.00     0.152 C 
BRANCH  17  18
HETATM   18  S1  UNL     1      23.936   4.845  48.805  1.00  0.00    -0.270 SA
BRANCH  18  19
HETATM   19  C3  UNL     1      25.335   5.733  49.132  1.00  0.00     0.169 C 
BRANCH  19  20
HETATM   20  C2  UNL     1      26.485   4.810  49.140  1.00  0.00    -0.007 C 
HETATM   21  C1  UNL     1      26.476   3.547  49.527  1.00  0.00     0.028 C 
HETATM   22 BR1  UNL     1      27.439   6.334  48.446  1.00  0.00    -0.055 Br
ENDBRANCH  19  20
ENDBRANCH  18  19
ENDBRANCH  17  18
ENDBRANCH  16  17
ENDBRANCH  13  15
ENDBRANCH   1  13
BRANCH   8  23
HETATM   23  N4  UNL     1      28.750   2.819  53.357  1.00  0.00    -0.385 N 
HETATM   24  H10 UNL     1      29.196   3.085  54.263  1.00  0.00     0.157 HD
HETATM   25  H11 UNL     1      29.101   3.389  52.547  1.00  0.00     0.157 HD
ENDBRANCH   8  23
TORSDOF 7
ENDMDL
MODEL 6
REMARK VINA RESULT:      -6.5      1.719      3.044
REMARK  7 active torsions:
REMARK  status: ('A' for Active; 'I' for Inactive)
REMARK    1  A    between atoms: C2_2  and  C3_4 
REMARK    2  A    between atoms: C3_4  and  S1_5 
REMARK    3  A    between atoms: S1_5  and  C4_6 
REMARK    4  A    between atoms: C4_6  and  C5_7 
REMARK    5  A    between atoms: C6_8  and  N1_9 
REMARK    6  A    between atoms: N1_9  and  C7_10 
REMARK    7  A    between atoms: C12_17  and  N4_18 
ROOT
HETATM    1  C7  UNL     1      25.230   3.363  50.006  1.00  0.00     0.141 A 
HETATM    2  N2  UNL     1      23.956   3.008  50.245  1.00  0.00    -0.224 NA
HETATM    3  C8  UNL     1      22.899   3.748  49.827  1.00  0.00     0.236 A 
HETATM    4  N3  UNL     1      23.153   4.877  49.150  1.00  0.00    -0.241 NA
HETATM    5  C9  UNL     1      24.380   5.307  48.867  1.00  0.00     0.073 A 
HETATM    6  C10 UNL     1      25.426   4.540  49.301  1.00  0.00     0.042 A 
HETATM    7  C11 UNL     1      26.847   4.773  49.130  1.00  0.00     0.065 C 
HETATM    8  C12 UNL     1      27.403   5.884  48.656  1.00  0.00     0.099 C 
HETATM    9  N5  UNL     1      26.862   7.120  48.192  1.00  0.00    -0.353 N 
HETATM   10  C13 UNL     1      25.492   7.303  47.853  1.00  0.00     0.092 C 
HETATM   11  C14 UNL     1      24.423   6.570  48.115  1.00  0.00     0.049 C 
HETATM   12  H12 UNL     1      27.521   7.934  48.099  1.00  0.00     0.166 HD
ENDROOT
BRANCH   1  13
HETATM   13  N1  UNL     1      26.280   2.524  50.481  1.00  0.00    -0.350 N 
HETATM   14  H7  UNL     1      26.726   2.404  49.563  1.00  0.00     0.166 HD
BRANCH  13  15
HETATM   15  C6  UNL     1      26.751   1.940  51.689  1.00  0.00     0.087 C 
HETATM   16  C5  UNL     1      26.171   0.792  51.933  1.00  0.00     0.006 C 
BRANCH  16  17
HETATM   17  C4  UNL     1      26.202  -0.258  52.949  1.00  0.00     0.152 C 
BRANCH  17  18
HETATM   18  S1  UNL     1      26.644   0.559  54.358  1.00  0.00    -0.270 SA
BRANCH  18  19
HETATM   19  C3  UNL     1      28.164   0.007  54.847  1.00  0.00     0.169 C 
BRANCH  19  20
HETATM   20  C2  UNL     1      29.195   0.834  54.192  1.00  0.00    -0.007 C 
HETATM   21  C1  UNL     1      29.279   2.151  54.216  1.00  0.00     0.028 C 
HETATM   22 BR1  UNL     1      29.887  -0.871  53.614  1.00  0.00    -0.055 Br
ENDBRANCH  19  20
ENDBRANCH  18  19
ENDBRANCH  17  18
ENDBRANCH  16  17
ENDBRANCH  13  15
ENDBRANCH   1  13
BRANCH   8  23
HETATM   23  N4  UNL     1      28.830   5.832  48.599  1.00  0.00    -0.385 N 
HETATM   24  H10 UNL     1      29.355   5.123  48.040  1.00  0.00     0.157 HD
HETATM   25  H11 UNL     1      29.463   6.498  49.109  1.00  0.00     0.157 HD
ENDBRANCH   8  23
TORSDOF 7
ENDMDL
MODEL 7
REMARK VINA RESULT:      -6.4      2.844      3.602
REMARK  7 active torsions:
REMARK  status: ('A' for Active; 'I' for Inactive)
REMARK    1  A    between atoms: C2_2  and  C3_4 
REMARK    2  A    between atoms: C3_4  and  S1_5 
REMARK    3  A    between atoms: S1_5  and  C4_6 
REMARK    4  A    between atoms: C4_6  and  C5_7 
REMARK    5  A    between atoms: C6_8  and  N1_9 
REMARK    6  A    between atoms: N1_9  and  C7_10 
REMARK    7  A    between atoms: C12_17  and  N4_18 
ROOT
HETATM    1  C7  UNL     1      22.351   1.566  51.545  1.00  0.00     0.141 A 
HETATM    2  N2  UNL     1      21.770   0.764  50.637  1.00  0.00    -0.224 NA
HETATM    3  C8  UNL     1      21.316   1.219  49.442  1.00  0.00     0.236 A 
HETATM    4  N3  UNL     1      21.461   2.524  49.173  1.00  0.00    -0.241 NA
HETATM    5  C9  UNL     1      22.022   3.393  50.010  1.00  0.00     0.073 A 
HETATM    6  C10 UNL     1      22.471   2.905  51.206  1.00  0.00     0.042 A 
HETATM    7  C11 UNL     1      23.115   3.625  52.289  1.00  0.00     0.065 C 
HETATM    8  C12 UNL     1      23.236   4.945  52.383  1.00  0.00     0.099 C 
HETATM    9  N5  UNL     1      22.823   6.021  51.543  1.00  0.00    -0.353 N 
HETATM   10  C13 UNL     1      22.419   5.854  50.189  1.00  0.00     0.092 C 
HETATM   11  C14 UNL     1      22.075   4.774  49.507  1.00  0.00     0.049 C 
HETATM   12  H12 UNL     1      22.821   6.988  51.958  1.00  0.00     0.166 HD
ENDROOT
BRANCH   1  13
HETATM   13  N1  UNL     1      22.800   1.003  52.775  1.00  0.00    -0.350 N 
HETATM   14  H7  UNL     1      22.313   1.683  53.372  1.00  0.00     0.166 HD
BRANCH  13  15
HETATM   15  C6  UNL     1      23.602  -0.067  53.259  1.00  0.00     0.087 C 
HETATM   16  C5  UNL     1      24.880   0.187  53.133  1.00  0.00     0.006 C 
BRANCH  16  17
HETATM   17  C4  UNL     1      26.160  -0.458  53.419  1.00  0.00     0.152 C 
BRANCH  17  18
HETATM   18  S1  UNL     1      26.661   0.264  54.860  1.00  0.00    -0.270 SA
BRANCH  18  19
HETATM   19  C3  UNL     1      28.345   0.174  54.950  1.00  0.00     0.169 C 
BRANCH  19  20
HETATM   20  C2  UNL     1      28.917   1.003  53.872  1.00  0.00    -0.007 C 
HETATM   21  C1  UNL     1      28.613   2.260  53.602  1.00  0.00     0.028 C 
HETATM   22 BR1  UNL     1      29.933  -0.588  53.480  1.00  0.00    -0.055 Br
ENDBRANCH  19  20
ENDBRANCH  18  19
ENDBRANCH  17  18
ENDBRANCH  16  17
ENDBRANCH  13  15
ENDBRANCH   1  13
BRANCH   8  23
HETATM   23  N4  UNL     1      23.920   5.375  53.562  1.00  0.00    -0.385 N 
HETATM   24  H10 UNL     1      24.250   6.356  53.706  1.00  0.00     0.157 HD
HETATM   25  H11 UNL     1      24.144   4.747  54.374  1.00  0.00     0.157 HD
ENDBRANCH   8  23
TORSDOF 7
ENDMDL
MODEL 8
REMARK VINA RESULT:      -6.4      4.448      6.816
REMARK  7 active torsions:
REMARK  status: ('A' for Active; 'I' for Inactive)
REMARK    1  A    between atoms: C2_2  and  C3_4 
REMARK    2  A    between atoms: C3_4  and  S1_5 
REMARK    3  A    between atoms: S1_5  and  C4_6 
REMARK    4  A    between atoms: C4_6  and  C5_7 
REMARK    5  A    between atoms: C6_8  and  N1_9 
REMARK    6  A    between atoms: N1_9  and  C7_10 
REMARK    7  A    between atoms: C12_17  and  N4_18 
ROOT
HETATM    1  C7  UNL     1      22.602   0.009  52.931  1.00  0.00     0.141 A 
HETATM    2  N2  UNL     1      23.190  -0.457  54.046  1.00  0.00    -0.224 NA
HETATM    3  C8  UNL     1      22.518  -1.170  54.985  1.00  0.00     0.236 A 
HETATM    4  N3  UNL     1      21.215  -1.409  54.777  1.00  0.00    -0.241 NA
HETATM    5  C9  UNL     1      20.550  -0.988  53.704  1.00  0.00     0.073 A 
HETATM    6  C10 UNL     1      21.254  -0.273  52.775  1.00  0.00     0.042 A 
HETATM    7  C11 UNL     1      20.780   0.298  51.528  1.00  0.00     0.065 C 
HETATM    8  C12 UNL     1      19.512   0.373  51.138  1.00  0.00     0.099 C 
HETATM    9  N5  UNL     1      18.284  -0.038  51.738  1.00  0.00    -0.353 N 
HETATM   10  C13 UNL     1      18.207  -0.940  52.836  1.00  0.00     0.092 C 
HETATM   11  C14 UNL     1      19.129  -1.365  53.683  1.00  0.00     0.049 C 
HETATM   12  H12 UNL     1      17.394   0.355  51.339  1.00  0.00     0.166 HD
ENDROOT
BRANCH   1  13
HETATM   13  N1  UNL     1      23.385   0.747  51.997  1.00  0.00    -0.350 N 
HETATM   14  H7  UNL     1      23.147   0.158  51.190  1.00  0.00     0.166 HD
BRANCH  13  15
HETATM   15  C6  UNL     1      24.242   1.881  51.943  1.00  0.00     0.087 C 
HETATM   16  C5  UNL     1      25.504   1.535  51.886  1.00  0.00     0.006 C 
BRANCH  16  17
HETATM   17  C4  UNL     1      26.814   2.177  51.816  1.00  0.00     0.152 C 
BRANCH  17  18
HETATM   18  S1  UNL     1      27.642   1.551  53.147  1.00  0.00    -0.270 SA
BRANCH  18  19
HETATM   19  C3  UNL     1      26.841   0.161  53.674  1.00  0.00     0.169 C 
BRANCH  19  20
HETATM   20  C2  UNL     1      27.503  -1.015  53.078  1.00  0.00    -0.007 C 
HETATM   21  C1  UNL     1      26.922  -1.980  52.390  1.00  0.00     0.028 C 
HETATM   22 BR1  UNL     1      29.096  -0.231  53.832  1.00  0.00    -0.055 Br
ENDBRANCH  19  20
ENDBRANCH  18  19
ENDBRANCH  17  18
ENDBRANCH  16  17
ENDBRANCH  13  15
ENDBRANCH   1  13
BRANCH   8  23
HETATM   23  N4  UNL     1      19.340   0.987  49.859  1.00  0.00    -0.385 N 
HETATM   24  H10 UNL     1      20.139   1.276  49.251  1.00  0.00     0.157 HD
HETATM   25  H11 UNL     1      18.405   1.197  49.429  1.00  0.00     0.157 HD
ENDBRANCH   8  23
TORSDOF 7
ENDMDL
MODEL 9
REMARK VINA RESULT:      -6.4      3.754      7.001
REMARK  7 active torsions:
REMARK  status: ('A' for Active; 'I' for Inactive)
REMARK    1  A    between atoms: C2_2  and  C3_4 
REMARK    2  A    between atoms: C3_4  and  S1_5 
REMARK    3  A    between atoms: S1_5  and  C4_6 
REMARK    4  A    between atoms: C4_6  and  C5_7 
REMARK    5  A    between atoms: C6_8  and  N1_9 
REMARK    6  A    between atoms: N1_9  and  C7_10 
REMARK    7  A    between atoms: C12_17  and  N4_18 
ROOT
HETATM    1  C7  UNL     1      25.811   2.700  51.302  1.00  0.00     0.141 A 
HETATM    2  N2  UNL     1      24.581   2.450  50.820  1.00  0.00    -0.224 NA
HETATM    3  C8  UNL     1      23.736   1.558  51.396  1.00  0.00     0.236 A 
HETATM    4  N3  UNL     1      24.160   0.909  52.490  1.00  0.00    -0.241 NA
HETATM    5  C9  UNL     1      25.359   1.092  53.038  1.00  0.00     0.073 A 
HETATM    6  C10 UNL     1      26.189   1.997  52.436  1.00  0.00     0.042 A 
HETATM    7  C11 UNL     1      27.533   2.384  52.821  1.00  0.00     0.065 C 
HETATM    8  C12 UNL     1      28.276   1.793  53.751  1.00  0.00     0.099 C 
HETATM    9  N5  UNL     1      28.049   0.683  54.618  1.00  0.00    -0.353 N 
HETATM   10  C13 UNL     1      26.762   0.129  54.869  1.00  0.00     0.092 C 
HETATM   11  C14 UNL     1      25.611   0.274  54.234  1.00  0.00     0.049 C 
HETATM   12  H12 UNL     1      28.886   0.258  55.092  1.00  0.00     0.166 HD
ENDROOT
BRANCH   1  13
HETATM   13  N1  UNL     1      26.632   3.654  50.634  1.00  0.00    -0.350 N 
HETATM   14  H7  UNL     1      27.224   3.854  51.450  1.00  0.00     0.166 HD
BRANCH  13  15
HETATM   15  C6  UNL     1      26.785   4.261  49.358  1.00  0.00     0.087 C 
HETATM   16  C5  UNL     1      26.226   5.444  49.311  1.00  0.00     0.006 C 
BRANCH  16  17
HETATM   17  C4  UNL     1      26.036   6.530  48.352  1.00  0.00     0.152 C 
BRANCH  17  18
HETATM   18  S1  UNL     1      27.334   7.566  48.653  1.00  0.00    -0.270 SA
BRANCH  18  19
HETATM   19  C3  UNL     1      28.502   7.328  47.457  1.00  0.00     0.169 C 
BRANCH  19  20
HETATM   20  C2  UNL     1      29.704   6.748  48.085  1.00  0.00    -0.007 C 
HETATM   21  C1  UNL     1      30.118   5.498  47.986  1.00  0.00     0.028 C 
HETATM   22 BR1  UNL     1      29.940   8.533  48.777  1.00  0.00    -0.055 Br
ENDBRANCH  19  20
ENDBRANCH  18  19
ENDBRANCH  17  18
ENDBRANCH  16  17
ENDBRANCH  13  15
ENDBRANCH   1  13
BRANCH   8  23
HETATM   23  N4  UNL     1      29.564   2.390  53.920  1.00  0.00    -0.385 N 
HETATM   24  H10 UNL     1      29.709   3.419  54.018  1.00  0.00     0.157 HD
HETATM   25  H11 UNL     1      30.463   1.847  53.960  1.00  0.00     0.157 HD
ENDBRANCH   8  23
TORSDOF 7
ENDMDL
