MODEL 1
REMARK VINA RESULT:     -10.5      0.000      0.000
REMARK  3 active torsions:
REMARK  status: ('A' for Active; 'I' for Inactive)
REMARK    1  A    between atoms: N1_2  and  C2_3 
REMARK    2  A    between atoms: N2_13  and  O1_14 
REMARK    3  A    between atoms: C12_15  and  O2_16 
ROOT
HETATM    1  C2  UNL     1      22.013   3.673  51.075  1.00  0.00     0.097 C 
HETATM    2  C3  UNL     1      21.300   2.481  51.352  1.00  0.00     0.091 C 
HETATM    3  C4  UNL     1      20.121   1.854  50.871  1.00  0.00    -0.035 A 
HETATM    4  C5  UNL     1      19.157   2.158  49.972  1.00  0.00     0.009 A 
HETATM    5  C6  UNL     1      18.049   1.340  49.838  1.00  0.00     0.001 A 
HETATM    6  C7  UNL     1      17.916   0.207  50.619  1.00  0.00     0.001 A 
HETATM    7  C8  UNL     1      18.834  -0.203  51.564  1.00  0.00     0.014 A 
HETATM    8  C9  UNL     1      19.912   0.667  51.633  1.00  0.00    -0.001 A 
HETATM    9  C10 UNL     1      20.932   0.077  52.521  1.00  0.00     0.065 C 
HETATM   10  C11 UNL     1      20.888  -0.983  53.292  1.00  0.00     0.150 C 
HETATM   11  N2  UNL     1      22.019  -1.337  54.085  1.00  0.00    -0.237 N 
HETATM   12  C12 UNL     1      23.181  -1.703  54.737  1.00  0.00     0.271 C 
HETATM   13  C13 UNL     1      24.462  -0.994  54.599  1.00  0.00     0.042 C 
HETATM   14  C14 UNL     1      25.045   0.066  54.086  1.00  0.00     0.005 A 
HETATM   15  C15 UNL     1      24.267   0.933  53.387  1.00  0.00     0.064 A 
HETATM   16  N3  UNL     1      24.917   1.892  52.691  1.00  0.00    -0.311 N 
HETATM   17  C16 UNL     1      26.198   1.620  52.996  1.00  0.00     0.049 A 
HETATM   18  C17 UNL     1      27.310   2.270  52.593  1.00  0.00     0.030 A 
HETATM   19  C18 UNL     1      28.533   1.817  53.033  1.00  0.00     0.002 A 
HETATM   20  C19 UNL     1      28.696   0.722  53.875  1.00  0.00     0.001 A 
HETATM   21  C20 UNL     1      27.525   0.065  54.279  1.00  0.00     0.014 A 
HETATM   22  C21 UNL     1      26.304   0.523  53.835  1.00  0.00     0.003 A 
HETATM   23  C22 UNL     1      24.241   2.741  51.752  1.00  0.00     0.145 C 
HETATM   24  C23 UNL     1      25.171   3.354  50.698  1.00  0.00     0.072 C 
HETATM   25  O3  UNL     1      23.568   1.789  50.850  1.00  0.00    -0.335 OA
HETATM   26  C24 UNL     1      22.373   1.379  51.211  1.00  0.00     0.241 C 
HETATM   27  N4  UNL     1      22.165   0.773  52.531  1.00  0.00    -0.325 N 
HETATM   28  C25 UNL     1      22.993   0.833  53.618  1.00  0.00     0.124 C 
HETATM   29  C26 UNL     1      23.170   3.661  52.166  1.00  0.00     0.060 C 
HETATM   30  C27 UNL     1      23.592   5.065  52.449  1.00  0.00     0.017 C 
ENDROOT
BRANCH   1  31
HETATM   31  N1  UNL     1      21.359   4.919  51.113  1.00  0.00    -0.420 N 
HETATM   32  C1  UNL     1      20.888   5.479  49.905  1.00  0.00     0.140 C 
HETATM   33  H4  UNL     1      20.871   5.123  51.981  1.00  0.00     0.153 HD
ENDBRANCH   1  31
BRANCH  11  34
HETATM   34  O1  UNL     1      21.088  -1.012  55.080  1.00  0.00    -0.285 OA
HETATM   35  H12 UNL     1      20.334  -1.628  54.899  1.00  0.00     0.245 HD
ENDBRANCH  11  34
BRANCH  12  36
HETATM   36  O2  UNL     1      22.963  -1.774  56.144  1.00  0.00    -0.371 OA
HETATM   37  H14 UNL     1      23.085  -2.744  56.377  1.00  0.00     0.212 HD
ENDBRANCH  12  36
TORSDOF 3
ENDMDL
MODEL 2
REMARK VINA RESULT:     -10.4      1.785      3.037
REMARK  3 active torsions:
REMARK  status: ('A' for Active; 'I' for Inactive)
REMARK    1  A    between atoms: N1_2  and  C2_3 
REMARK    2  A    between atoms: N2_13  and  O1_14 
REMARK    3  A    between atoms: C12_15  and  O2_16 
ROOT
HETATM    1  C2  UNL     1      19.070   2.111  51.312  1.00  0.00     0.097 C 
HETATM    2  C3  UNL     1      19.221   0.905  52.039  1.00  0.00     0.091 C 
HETATM    3  C4  UNL     1      18.414  -0.225  52.332  1.00  0.00    -0.035 A 
HETATM    4  C5  UNL     1      17.141  -0.603  52.075  1.00  0.00     0.009 A 
HETATM    5  C6  UNL     1      16.632  -1.760  52.638  1.00  0.00     0.001 A 
HETATM    6  C7  UNL     1      17.417  -2.540  53.467  1.00  0.00     0.001 A 
HETATM    7  C8  UNL     1      18.727  -2.256  53.798  1.00  0.00     0.014 A 
HETATM    8  C9  UNL     1      19.159  -1.085  53.192  1.00  0.00    -0.001 A 
HETATM    9  C10 UNL     1      20.607  -0.941  53.436  1.00  0.00     0.065 C 
HETATM   10  C11 UNL     1      21.420  -1.627  54.202  1.00  0.00     0.150 C 
HETATM   11  N2  UNL     1      22.798  -1.267  54.285  1.00  0.00    -0.237 N 
HETATM   12  C12 UNL     1      24.142  -0.954  54.236  1.00  0.00     0.271 C 
HETATM   13  C13 UNL     1      24.715   0.081  53.362  1.00  0.00     0.042 C 
HETATM   14  C14 UNL     1      24.425   1.047  52.519  1.00  0.00     0.005 A 
HETATM   15  C15 UNL     1      23.111   1.293  52.277  1.00  0.00     0.064 A 
HETATM   16  N3  UNL     1      22.840   2.135  51.254  1.00  0.00    -0.311 N 
HETATM   17  C16 UNL     1      24.077   2.459  50.841  1.00  0.00     0.049 A 
HETATM   18  C17 UNL     1      24.434   3.294  49.843  1.00  0.00     0.030 A 
HETATM   19  C18 UNL     1      25.773   3.484  49.590  1.00  0.00     0.002 A 
HETATM   20  C19 UNL     1      26.792   2.865  50.306  1.00  0.00     0.001 A 
HETATM   21  C20 UNL     1      26.394   2.003  51.339  1.00  0.00     0.014 A 
HETATM   22  C21 UNL     1      25.052   1.817  51.586  1.00  0.00     0.003 A 
HETATM   23  C22 UNL     1      21.507   2.323  50.757  1.00  0.00     0.145 C 
HETATM   24  C23 UNL     1      21.457   2.846  49.317  1.00  0.00     0.072 C 
HETATM   25  O3  UNL     1      21.056   0.953  50.455  1.00  0.00    -0.335 OA
HETATM   26  C24 UNL     1      20.502   0.283  51.442  1.00  0.00     0.241 C 
HETATM   27  N4  UNL     1      21.215   0.114  52.714  1.00  0.00    -0.325 N 
HETATM   28  C25 UNL     1      22.293   0.823  53.168  1.00  0.00     0.124 C 
HETATM   29  C26 UNL     1      20.434   2.877  51.598  1.00  0.00     0.060 C 
HETATM   30  C27 UNL     1      20.206   4.347  51.477  1.00  0.00     0.017 C 
ENDROOT
BRANCH   1  31
HETATM   31  N1  UNL     1      17.992   2.975  51.583  1.00  0.00    -0.420 N 
HETATM   32  C1  UNL     1      16.836   2.898  50.776  1.00  0.00     0.140 C 
HETATM   33  H4  UNL     1      17.904   3.263  52.553  1.00  0.00     0.153 HD
ENDBRANCH   1  31
BRANCH  11  34
HETATM   34  O1  UNL     1      22.371  -0.991  55.591  1.00  0.00    -0.285 OA
HETATM   35  H12 UNL     1      21.536  -1.517  55.676  1.00  0.00     0.245 HD
ENDBRANCH  11  34
BRANCH  12  36
HETATM   36  O2  UNL     1      24.629  -0.630  55.536  1.00  0.00    -0.371 OA
HETATM   37  H14 UNL     1      25.538  -0.232  55.380  1.00  0.00     0.212 HD
ENDBRANCH  12  36
TORSDOF 3
ENDMDL
MODEL 3
REMARK VINA RESULT:      -9.7      1.585      2.297
REMARK  3 active torsions:
REMARK  status: ('A' for Active; 'I' for Inactive)
REMARK    1  A    between atoms: N1_2  and  C2_3 
REMARK    2  A    between atoms: N2_13  and  O1_14 
REMARK    3  A    between atoms: C12_15  and  O2_16 
ROOT
HETATM    1  C2  UNL     1      19.741   3.506  49.763  1.00  0.00     0.097 C 
HETATM    2  C3  UNL     1      19.220   2.313  50.321  1.00  0.00     0.091 C 
HETATM    3  C4  UNL     1      18.068   1.506  50.127  1.00  0.00    -0.035 A 
HETATM    4  C5  UNL     1      16.960   1.565  49.354  1.00  0.00     0.009 A 
HETATM    5  C6  UNL     1      15.949   0.635  49.516  1.00  0.00     0.001 A 
HETATM    6  C7  UNL     1      16.061  -0.363  50.467  1.00  0.00     0.001 A 
HETATM    7  C8  UNL     1      17.143  -0.523  51.309  1.00  0.00     0.014 A 
HETATM    8  C9  UNL     1      18.109   0.446  51.080  1.00  0.00    -0.001 A 
HETATM    9  C10 UNL     1      19.305   0.109  51.876  1.00  0.00     0.065 C 
HETATM   10  C11 UNL     1      19.494  -0.809  52.793  1.00  0.00     0.150 C 
HETATM   11  N2  UNL     1      20.758  -0.918  53.444  1.00  0.00    -0.237 N 
HETATM   12  C12 UNL     1      22.034  -1.060  53.955  1.00  0.00     0.271 C 
HETATM   13  C13 UNL     1      23.190  -0.264  53.516  1.00  0.00     0.042 C 
HETATM   14  C14 UNL     1      23.567   0.748  52.767  1.00  0.00     0.005 A 
HETATM   15  C15 UNL     1      22.602   1.410  52.077  1.00  0.00     0.064 A 
HETATM   16  N3  UNL     1      23.031   2.300  51.154  1.00  0.00    -0.311 N 
HETATM   17  C16 UNL     1      24.365   2.205  51.293  1.00  0.00     0.049 A 
HETATM   18  C17 UNL     1      25.326   2.883  50.631  1.00  0.00     0.030 A 
HETATM   19  C18 UNL     1      26.643   2.627  50.938  1.00  0.00     0.002 A 
HETATM   20  C19 UNL     1      27.050   1.706  51.897  1.00  0.00     0.001 A 
HETATM   21  C20 UNL     1      26.032   1.016  52.571  1.00  0.00     0.014 A 
HETATM   22  C21 UNL     1      24.716   1.276  52.259  1.00  0.00     0.003 A 
HETATM   23  C22 UNL     1      22.136   2.915  50.216  1.00  0.00     0.145 C 
HETATM   24  C23 UNL     1      22.832   3.432  48.952  1.00  0.00     0.072 C 
HETATM   25  O3  UNL     1      21.463   1.768  49.581  1.00  0.00    -0.335 OA
HETATM   26  C24 UNL     1      20.386   1.311  50.180  1.00  0.00     0.241 C 
HETATM   27  N4  UNL     1      20.436   0.912  51.592  1.00  0.00    -0.325 N 
HETATM   28  C25 UNL     1      21.394   1.229  52.515  1.00  0.00     0.124 C 
HETATM   29  C26 UNL     1      21.031   3.784  50.651  1.00  0.00     0.060 C 
HETATM   30  C27 UNL     1      21.318   5.249  50.654  1.00  0.00     0.017 C 
ENDROOT
BRANCH   1  31
HETATM   31  N1  UNL     1      18.955   4.673  49.717  1.00  0.00    -0.420 N 
HETATM   32  C1  UNL     1      18.299   5.007  48.512  1.00  0.00     0.140 C 
HETATM   33  H4  UNL     1      18.540   4.949  50.603  1.00  0.00     0.153 HD
ENDBRANCH   1  31
BRANCH  11  34
HETATM   34  O1  UNL     1      19.942  -0.525  54.512  1.00  0.00    -0.285 OA
HETATM   35  H12 UNL     1      20.058   0.459  54.540  1.00  0.00     0.245 HD
ENDBRANCH  11  34
BRANCH  12  36
HETATM   36  O2  UNL     1      22.023  -0.920  55.373  1.00  0.00    -0.371 OA
HETATM   37  H14 UNL     1      22.959  -0.641  55.613  1.00  0.00     0.212 HD
ENDBRANCH  12  36
TORSDOF 3
ENDMDL
MODEL 4
REMARK VINA RESULT:      -9.7      1.994      7.411
REMARK  3 active torsions:
REMARK  status: ('A' for Active; 'I' for Inactive)
REMARK    1  A    between atoms: N1_2  and  C2_3 
REMARK    2  A    between atoms: N2_13  and  O1_14 
REMARK    3  A    between atoms: C12_15  and  O2_16 
ROOT
HETATM    1  C2  UNL     1      22.267  -0.103  53.635  1.00  0.00     0.097 C 
HETATM    2  C3  UNL     1      23.261   0.729  53.064  1.00  0.00     0.091 C 
HETATM    3  C4  UNL     1      24.639   0.611  52.743  1.00  0.00    -0.035 A 
HETATM    4  C5  UNL     1      25.594  -0.336  52.891  1.00  0.00     0.009 A 
HETATM    5  C6  UNL     1      26.907  -0.056  52.561  1.00  0.00     0.001 A 
HETATM    6  C7  UNL     1      27.258   1.191  52.077  1.00  0.00     0.001 A 
HETATM    7  C8  UNL     1      26.372   2.231  51.882  1.00  0.00     0.014 A 
HETATM    8  C9  UNL     1      25.080   1.868  52.234  1.00  0.00    -0.001 A 
HETATM    9  C10 UNL     1      24.165   2.953  51.831  1.00  0.00     0.065 C 
HETATM   10  C11 UNL     1      24.410   4.156  51.370  1.00  0.00     0.150 C 
HETATM   11  N2  UNL     1      23.332   5.040  51.072  1.00  0.00    -0.237 N 
HETATM   12  C12 UNL     1      22.253   5.811  50.685  1.00  0.00     0.271 C 
HETATM   13  C13 UNL     1      20.855   5.356  50.736  1.00  0.00     0.042 C 
HETATM   14  C14 UNL     1      20.062   4.385  51.132  1.00  0.00     0.005 A 
HETATM   15  C15 UNL     1      20.635   3.327  51.763  1.00  0.00     0.064 A 
HETATM   16  N3  UNL     1      19.841   2.252  51.967  1.00  0.00    -0.311 N 
HETATM   17  C16 UNL     1      18.677   2.678  51.445  1.00  0.00     0.049 A 
HETATM   18  C17 UNL     1      17.499   2.023  51.380  1.00  0.00     0.030 A 
HETATM   19  C18 UNL     1      16.424   2.656  50.800  1.00  0.00     0.002 A 
HETATM   20  C19 UNL     1      16.475   3.942  50.272  1.00  0.00     0.001 A 
HETATM   21  C20 UNL     1      17.710   4.601  50.353  1.00  0.00     0.014 A 
HETATM   22  C21 UNL     1      18.782   3.961  50.935  1.00  0.00     0.003 A 
HETATM   23  C22 UNL     1      20.362   0.998  52.431  1.00  0.00     0.145 C 
HETATM   24  C23 UNL     1      19.473  -0.202  52.086  1.00  0.00     0.072 C 
HETATM   25  O3  UNL     1      21.436   0.695  51.468  1.00  0.00    -0.335 OA
HETATM   26  C24 UNL     1      22.624   1.191  51.735  1.00  0.00     0.241 C 
HETATM   27  N4  UNL     1      22.792   2.631  51.960  1.00  0.00    -0.325 N 
HETATM   28  C25 UNL     1      21.820   3.551  52.243  1.00  0.00     0.124 C 
HETATM   29  C26 UNL     1      21.009   0.864  53.745  1.00  0.00     0.060 C 
HETATM   30  C27 UNL     1      20.131   0.400  54.859  1.00  0.00     0.017 C 
ENDROOT
BRANCH   1  31
HETATM   31  N1  UNL     1      22.485  -0.719  54.882  1.00  0.00    -0.420 N 
HETATM   32  C1  UNL     1      22.744  -2.106  54.921  1.00  0.00     0.140 C 
HETATM   33  H4  UNL     1      22.884  -0.117  55.596  1.00  0.00     0.153 HD
ENDBRANCH   1  31
BRANCH  11  34
HETATM   34  O1  UNL     1      23.939   5.712  52.141  1.00  0.00    -0.285 OA
HETATM   35  H12 UNL     1      24.097   6.621  51.781  1.00  0.00     0.245 HD
ENDBRANCH  11  34
BRANCH  12  36
HETATM   36  O2  UNL     1      22.248   7.053  51.385  1.00  0.00    -0.371 OA
HETATM   37  H14 UNL     1      21.969   7.734  50.702  1.00  0.00     0.212 HD
ENDBRANCH  12  36
TORSDOF 3
ENDMDL
MODEL 5
REMARK VINA RESULT:      -9.5      1.635      6.105
REMARK  3 active torsions:
REMARK  status: ('A' for Active; 'I' for Inactive)
REMARK    1  A    between atoms: N1_2  and  C2_3 
REMARK    2  A    between atoms: N2_13  and  O1_14 
REMARK    3  A    between atoms: C12_15  and  O2_16 
ROOT
HETATM    1  C2  UNL     1      25.166   3.161  50.581  1.00  0.00     0.097 C 
HETATM    2  C3  UNL     1      25.204   2.268  51.679  1.00  0.00     0.091 C 
HETATM    3  C4  UNL     1      26.173   1.846  52.627  1.00  0.00    -0.035 A 
HETATM    4  C5  UNL     1      27.485   2.090  52.849  1.00  0.00     0.009 A 
HETATM    5  C6  UNL     1      28.166   1.388  53.827  1.00  0.00     0.001 A 
HETATM    6  C7  UNL     1      27.515   0.432  54.586  1.00  0.00     0.001 A 
HETATM    7  C8  UNL     1      26.182   0.101  54.451  1.00  0.00     0.014 A 
HETATM    8  C9  UNL     1      25.574   0.850  53.454  1.00  0.00    -0.001 A 
HETATM    9  C10 UNL     1      24.123   0.581  53.488  1.00  0.00     0.065 C 
HETATM   10  C11 UNL     1      23.430  -0.299  54.168  1.00  0.00     0.150 C 
HETATM   11  N2  UNL     1      22.016  -0.377  54.004  1.00  0.00    -0.237 N 
HETATM   12  C12 UNL     1      20.639  -0.328  53.899  1.00  0.00     0.271 C 
HETATM   13  C13 UNL     1      19.908   0.663  53.094  1.00  0.00     0.042 C 
HETATM   14  C14 UNL     1      20.042   1.642  52.226  1.00  0.00     0.005 A 
HETATM   15  C15 UNL     1      21.302   1.959  51.830  1.00  0.00     0.064 A 
HETATM   16  N3  UNL     1      21.434   3.097  51.112  1.00  0.00    -0.311 N 
HETATM   17  C16 UNL     1      20.157   3.511  51.033  1.00  0.00     0.049 A 
HETATM   18  C17 UNL     1      19.668   4.604  50.410  1.00  0.00     0.030 A 
HETATM   19  C18 UNL     1      18.313   4.836  50.455  1.00  0.00     0.002 A 
HETATM   20  C19 UNL     1      17.405   4.007  51.106  1.00  0.00     0.001 A 
HETATM   21  C20 UNL     1      17.939   2.878  51.745  1.00  0.00     0.014 A 
HETATM   22  C21 UNL     1      19.297   2.652  51.697  1.00  0.00     0.003 A 
HETATM   23  C22 UNL     1      22.718   3.659  50.806  1.00  0.00     0.145 C 
HETATM   24  C23 UNL     1      22.673   5.159  50.493  1.00  0.00     0.072 C 
HETATM   25  O3  UNL     1      23.363   3.781  52.125  1.00  0.00    -0.335 OA
HETATM   26  C24 UNL     1      24.022   2.730  52.559  1.00  0.00     0.241 C 
HETATM   27  N4  UNL     1      23.358   1.424  52.646  1.00  0.00    -0.325 N 
HETATM   28  C25 UNL     1      22.192   1.038  52.043  1.00  0.00     0.124 C 
HETATM   29  C26 UNL     1      23.707   2.940  49.988  1.00  0.00     0.060 C 
HETATM   30  C27 UNL     1      23.713   3.272  48.533  1.00  0.00     0.017 C 
ENDROOT
BRANCH   1  31
HETATM   31  N1  UNL     1      26.107   3.049  49.540  1.00  0.00    -0.420 N 
HETATM   32  C1  UNL     1      26.985   4.128  49.294  1.00  0.00     0.140 C 
HETATM   33  H4  UNL     1      26.412   2.102  49.335  1.00  0.00     0.153 HD
ENDBRANCH   1  31
BRANCH  11  34
HETATM   34  O1  UNL     1      22.412  -1.616  53.485  1.00  0.00    -0.285 OA
HETATM   35  H12 UNL     1      21.700  -1.829  52.830  1.00  0.00     0.245 HD
ENDBRANCH  11  34
BRANCH  12  36
HETATM   36  O2  UNL     1      20.125  -1.585  53.467  1.00  0.00    -0.371 OA
HETATM   37  H14 UNL     1      19.506  -1.365  52.707  1.00  0.00     0.212 HD
ENDBRANCH  12  36
TORSDOF 3
ENDMDL
MODEL 6
REMARK VINA RESULT:      -9.4      2.518      5.895
REMARK  3 active torsions:
REMARK  status: ('A' for Active; 'I' for Inactive)
REMARK    1  A    between atoms: N1_2  and  C2_3 
REMARK    2  A    between atoms: N2_13  and  O1_14 
REMARK    3  A    between atoms: C12_15  and  O2_16 
ROOT
HETATM    1  C2  UNL     1      21.588   4.268  48.590  1.00  0.00     0.097 C 
HETATM    2  C3  UNL     1      22.955   4.540  48.841  1.00  0.00     0.091 C 
HETATM    3  C4  UNL     1      23.863   5.592  48.550  1.00  0.00    -0.035 A 
HETATM    4  C5  UNL     1      23.811   6.760  47.868  1.00  0.00     0.009 A 
HETATM    5  C6  UNL     1      24.960   7.506  47.680  1.00  0.00     0.001 A 
HETATM    6  C7  UNL     1      26.171   7.067  48.184  1.00  0.00     0.001 A 
HETATM    7  C8  UNL     1      26.344   5.898  48.895  1.00  0.00     0.014 A 
HETATM    8  C9  UNL     1      25.147   5.213  49.042  1.00  0.00    -0.001 A 
HETATM    9  C10 UNL     1      25.367   4.079  49.960  1.00  0.00     0.065 C 
HETATM   10  C11 UNL     1      26.471   3.597  50.478  1.00  0.00     0.150 C 
HETATM   11  N2  UNL     1      26.420   2.458  51.334  1.00  0.00    -0.237 N 
HETATM   12  C12 UNL     1      26.302   1.431  52.250  1.00  0.00     0.271 C 
HETATM   13  C13 UNL     1      25.019   0.865  52.694  1.00  0.00     0.042 C 
HETATM   14  C14 UNL     1      23.720   0.881  52.495  1.00  0.00     0.005 A 
HETATM   15  C15 UNL     1      23.246   1.695  51.516  1.00  0.00     0.064 A 
HETATM   16  N3  UNL     1      21.905   1.859  51.473  1.00  0.00    -0.311 N 
HETATM   17  C16 UNL     1      21.507   1.069  52.486  1.00  0.00     0.049 A 
HETATM   18  C17 UNL     1      20.251   0.821  52.911  1.00  0.00     0.030 A 
HETATM   19  C18 UNL     1      20.071  -0.031  53.976  1.00  0.00     0.002 A 
HETATM   20  C19 UNL     1      21.114  -0.661  54.648  1.00  0.00     0.001 A 
HETATM   21  C20 UNL     1      22.409  -0.388  54.186  1.00  0.00     0.014 A 
HETATM   22  C21 UNL     1      22.582   0.467  53.120  1.00  0.00     0.003 A 
HETATM   23  C22 UNL     1      21.285   2.842  50.631  1.00  0.00     0.145 C 
HETATM   24  C23 UNL     1      19.885   3.255  51.098  1.00  0.00     0.072 C 
HETATM   25  O3  UNL     1      21.965   4.094  51.008  1.00  0.00    -0.335 OA
HETATM   26  C24 UNL     1      23.080   4.375  50.371  1.00  0.00     0.241 C 
HETATM   27  N4  UNL     1      24.183   3.406  50.346  1.00  0.00    -0.325 N 
HETATM   28  C25 UNL     1      24.129   2.072  50.643  1.00  0.00     0.124 C 
HETATM   29  C26 UNL     1      21.403   2.797  49.166  1.00  0.00     0.060 C 
HETATM   30  C27 UNL     1      20.284   2.124  48.443  1.00  0.00     0.017 C 
ENDROOT
BRANCH   1  31
HETATM   31  N1  UNL     1      21.082   4.315  47.277  1.00  0.00    -0.420 N 
HETATM   32  C1  UNL     1      20.431   5.488  46.838  1.00  0.00     0.140 C 
HETATM   33  H4  UNL     1      21.578   3.739  46.603  1.00  0.00     0.153 HD
ENDBRANCH   1  31
BRANCH  11  34
HETATM   34  O1  UNL     1      27.128   1.939  50.242  1.00  0.00    -0.285 OA
HETATM   35  H12 UNL     1      28.075   2.097  50.485  1.00  0.00     0.245 HD
ENDBRANCH  11  34
BRANCH  12  36
HETATM   36  O2  UNL     1      27.064   0.299  51.835  1.00  0.00    -0.371 OA
HETATM   37  H14 UNL     1      27.851   0.684  51.342  1.00  0.00     0.212 HD
ENDBRANCH  12  36
TORSDOF 3
ENDMDL
MODEL 7
REMARK VINA RESULT:      -9.2      2.500      6.582
REMARK  3 active torsions:
REMARK  status: ('A' for Active; 'I' for Inactive)
REMARK    1  A    between atoms: N1_2  and  C2_3 
REMARK    2  A    between atoms: N2_13  and  O1_14 
REMARK    3  A    between atoms: C12_15  and  O2_16 
ROOT
HETATM    1  C2  UNL     1      24.978   3.300  51.317  1.00  0.00     0.097 C 
HETATM    2  C3  UNL     1      23.916   2.398  51.572  1.00  0.00     0.091 C 
HETATM    3  C4  UNL     1      23.705   1.270  52.409  1.00  0.00    -0.035 A 
HETATM    4  C5  UNL     1      24.451   0.556  53.283  1.00  0.00     0.009 A 
HETATM    5  C6  UNL     1      23.941  -0.597  53.851  1.00  0.00     0.001 A 
HETATM    6  C7  UNL     1      22.667  -1.032  53.532  1.00  0.00     0.001 A 
HETATM    7  C8  UNL     1      21.817  -0.387  52.657  1.00  0.00     0.014 A 
HETATM    8  C9  UNL     1      22.402   0.758  52.136  1.00  0.00    -0.001 A 
HETATM    9  C10 UNL     1      21.383   1.492  51.361  1.00  0.00     0.065 C 
HETATM   10  C11 UNL     1      20.165   1.156  51.012  1.00  0.00     0.150 C 
HETATM   11  N2  UNL     1      19.374   2.046  50.228  1.00  0.00    -0.237 N 
HETATM   12  C12 UNL     1      18.610   2.994  49.574  1.00  0.00     0.271 C 
HETATM   13  C13 UNL     1      19.071   4.357  49.270  1.00  0.00     0.042 C 
HETATM   14  C14 UNL     1      20.108   5.165  49.299  1.00  0.00     0.005 A 
HETATM   15  C15 UNL     1      21.280   4.663  49.768  1.00  0.00     0.064 A 
HETATM   16  N3  UNL     1      22.266   5.560  49.992  1.00  0.00    -0.311 N 
HETATM   17  C16 UNL     1      21.675   6.706  49.610  1.00  0.00     0.049 A 
HETATM   18  C17 UNL     1      22.195   7.951  49.597  1.00  0.00     0.030 A 
HETATM   19  C18 UNL     1      21.405   8.990  49.161  1.00  0.00     0.002 A 
HETATM   20  C19 UNL     1      20.092   8.836  48.727  1.00  0.00     0.001 A 
HETATM   21  C20 UNL     1      19.577   7.532  48.750  1.00  0.00     0.014 A 
HETATM   22  C21 UNL     1      20.373   6.497  49.189  1.00  0.00     0.003 A 
HETATM   23  C22 UNL     1      23.477   5.205  50.675  1.00  0.00     0.145 C 
HETATM   24  C23 UNL     1      24.200   6.400  51.305  1.00  0.00     0.072 C 
HETATM   25  O3  UNL     1      22.998   4.612  51.936  1.00  0.00    -0.335 OA
HETATM   26  C24 UNL     1      22.731   3.325  51.919  1.00  0.00     0.241 C 
HETATM   27  N4  UNL     1      21.795   2.776  50.930  1.00  0.00    -0.325 N 
HETATM   28  C25 UNL     1      21.356   3.367  49.778  1.00  0.00     0.124 C 
HETATM   29  C26 UNL     1      24.408   4.200  50.136  1.00  0.00     0.060 C 
HETATM   30  C27 UNL     1      25.547   4.733  49.333  1.00  0.00     0.017 C 
ENDROOT
BRANCH   1  31
HETATM   31  N1  UNL     1      26.250   2.819  50.956  1.00  0.00    -0.420 N 
HETATM   32  C1  UNL     1      27.167   2.482  51.975  1.00  0.00     0.140 C 
HETATM   33  H4  UNL     1      26.287   2.324  50.069  1.00  0.00     0.153 HD
ENDBRANCH   1  31
BRANCH  11  34
HETATM   34  O1  UNL     1      19.544   0.982  49.333  1.00  0.00    -0.285 OA
HETATM   35  H12 UNL     1      19.840   1.429  48.500  1.00  0.00     0.245 HD
ENDBRANCH  11  34
BRANCH  12  36
HETATM   36  O2  UNL     1      18.147   2.488  48.325  1.00  0.00    -0.371 OA
HETATM   37  H14 UNL     1      17.638   1.653  48.556  1.00  0.00     0.212 HD
ENDBRANCH  12  36
TORSDOF 3
ENDMDL
MODEL 8
REMARK VINA RESULT:      -9.1      3.003      8.171
REMARK  3 active torsions:
REMARK  status: ('A' for Active; 'I' for Inactive)
REMARK    1  A    between atoms: N1_2  and  C2_3 
REMARK    2  A    between atoms: N2_13  and  O1_14 
REMARK    3  A    between atoms: C12_15  and  O2_16 
ROOT
HETATM    1  C2  UNL     1      25.230   3.119  50.997  1.00  0.00     0.097 C 
HETATM    2  C3  UNL     1      25.302   4.285  50.198  1.00  0.00     0.091 C 
HETATM    3  C4  UNL     1      26.266   4.892  49.350  1.00  0.00    -0.035 A 
HETATM    4  C5  UNL     1      27.542   4.629  48.986  1.00  0.00     0.009 A 
HETATM    5  C6  UNL     1      28.243   5.532  48.208  1.00  0.00     0.001 A 
HETATM    6  C7  UNL     1      27.648   6.710  47.794  1.00  0.00     0.001 A 
HETATM    7  C8  UNL     1      26.355   7.083  48.101  1.00  0.00     0.014 A 
HETATM    8  C9  UNL     1      25.724   6.124  48.880  1.00  0.00    -0.001 A 
HETATM    9  C10 UNL     1      24.302   6.495  49.015  1.00  0.00     0.065 C 
HETATM   10  C11 UNL     1      23.661   7.582  48.658  1.00  0.00     0.150 C 
HETATM   11  N2  UNL     1      22.267   7.710  48.925  1.00  0.00    -0.237 N 
HETATM   12  C12 UNL     1      20.897   7.732  49.098  1.00  0.00     0.271 C 
HETATM   13  C13 UNL     1      20.115   6.607  49.632  1.00  0.00     0.042 C 
HETATM   14  C14 UNL     1      20.197   5.412  50.176  1.00  0.00     0.005 A 
HETATM   15  C15 UNL     1      21.439   4.904  50.386  1.00  0.00     0.064 A 
HETATM   16  N3  UNL     1      21.499   3.601  50.740  1.00  0.00    -0.311 N 
HETATM   17  C16 UNL     1      20.195   3.275  50.778  1.00  0.00     0.049 A 
HETATM   18  C17 UNL     1      19.639   2.087  51.094  1.00  0.00     0.030 A 
HETATM   19  C18 UNL     1      18.267   1.976  51.071  1.00  0.00     0.002 A 
HETATM   20  C19 UNL     1      17.411   3.021  50.740  1.00  0.00     0.001 A 
HETATM   21  C20 UNL     1      18.015   4.244  50.416  1.00  0.00     0.014 A 
HETATM   22  C21 UNL     1      19.388   4.349  50.441  1.00  0.00     0.003 A 
HETATM   23  C22 UNL     1      22.741   2.884  50.793  1.00  0.00     0.145 C 
HETATM   24  C23 UNL     1      22.578   1.365  50.669  1.00  0.00     0.072 C 
HETATM   25  O3  UNL     1      23.321   3.101  49.456  1.00  0.00    -0.335 OA
HETATM   26  C24 UNL     1      24.051   4.183  49.299  1.00  0.00     0.241 C 
HETATM   27  N4  UNL     1      23.499   5.503  49.628  1.00  0.00    -0.325 N 
HETATM   28  C25 UNL     1      22.396   5.781  50.388  1.00  0.00     0.124 C 
HETATM   29  C26 UNL     1      23.820   3.264  51.719  1.00  0.00     0.060 C 
HETATM   30  C27 UNL     1      23.855   2.526  53.016  1.00  0.00     0.017 C 
ENDROOT
BRANCH   1  31
HETATM   31  N1  UNL     1      26.217   2.857  51.966  1.00  0.00    -0.420 N 
HETATM   32  C1  UNL     1      26.962   1.661  51.876  1.00  0.00     0.140 C 
HETATM   33  H4  UNL     1      26.646   3.682  52.378  1.00  0.00     0.153 HD
ENDBRANCH   1  31
BRANCH  11  34
HETATM   34  O1  UNL     1      22.789   8.715  49.749  1.00  0.00    -0.285 OA
HETATM   35  H12 UNL     1      23.750   8.734  49.507  1.00  0.00     0.245 HD
ENDBRANCH  11  34
BRANCH  12  36
HETATM   36  O2  UNL     1      20.511   8.845  49.901  1.00  0.00    -0.371 OA
HETATM   37  H14 UNL     1      19.569   8.644  50.187  1.00  0.00     0.212 HD
ENDBRANCH  12  36
TORSDOF 3
ENDMDL
MODEL 9
REMARK VINA RESULT:      -9.1      2.441      3.542
REMARK  3 active torsions:
REMARK  status: ('A' for Active; 'I' for Inactive)
REMARK    1  A    between atoms: N1_2  and  C2_3 
REMARK    2  A    between atoms: N2_13  and  O1_14 
REMARK    3  A    between atoms: C12_15  and  O2_16 
ROOT
HETATM    1  C2  UNL     1      23.727   5.301  48.630  1.00  0.00     0.097 C 
HETATM    2  C3  UNL     1      22.566   4.503  48.489  1.00  0.00     0.091 C 
HETATM    3  C4  UNL     1      21.541   4.342  47.520  1.00  0.00    -0.035 A 
HETATM    4  C5  UNL     1      21.220   4.921  46.340  1.00  0.00     0.009 A 
HETATM    5  C6  UNL     1      20.042   4.586  45.699  1.00  0.00     0.001 A 
HETATM    6  C7  UNL     1      19.180   3.659  46.256  1.00  0.00     0.001 A 
HETATM    7  C8  UNL     1      19.402   3.004  47.450  1.00  0.00     0.014 A 
HETATM    8  C9  UNL     1      20.603   3.394  48.025  1.00  0.00    -0.001 A 
HETATM    9  C10 UNL     1      20.865   2.529  49.191  1.00  0.00     0.065 C 
HETATM   10  C11 UNL     1      20.110   1.634  49.782  1.00  0.00     0.150 C 
HETATM   11  N2  UNL     1      20.593   0.937  50.928  1.00  0.00    -0.237 N 
HETATM   12  C12 UNL     1      21.153   0.205  51.957  1.00  0.00     0.271 C 
HETATM   13  C13 UNL     1      22.544   0.351  52.411  1.00  0.00     0.042 C 
HETATM   14  C14 UNL     1      23.643   1.059  52.272  1.00  0.00     0.005 A 
HETATM   15  C15 UNL     1      23.612   2.100  51.399  1.00  0.00     0.064 A 
HETATM   16  N3  UNL     1      24.802   2.674  51.112  1.00  0.00    -0.311 N 
HETATM   17  C16 UNL     1      25.637   1.955  51.881  1.00  0.00     0.049 A 
HETATM   18  C17 UNL     1      26.973   2.090  52.020  1.00  0.00     0.030 A 
HETATM   19  C18 UNL     1      27.636   1.238  52.872  1.00  0.00     0.002 A 
HETATM   20  C19 UNL     1      27.011   0.236  53.608  1.00  0.00     0.001 A 
HETATM   21  C20 UNL     1      25.623   0.118  53.446  1.00  0.00     0.014 A 
HETATM   22  C21 UNL     1      24.965   0.974  52.590  1.00  0.00     0.003 A 
HETATM   23  C22 UNL     1      24.946   3.639  50.060  1.00  0.00     0.145 C 
HETATM   24  C23 UNL     1      26.379   3.759  49.529  1.00  0.00     0.072 C 
HETATM   25  O3  UNL     1      24.386   2.951  48.883  1.00  0.00    -0.335 OA
HETATM   26  C24 UNL     1      23.091   3.065  48.694  1.00  0.00     0.241 C 
HETATM   27  N4  UNL     1      22.151   2.694  49.759  1.00  0.00    -0.325 N 
HETATM   28  C25 UNL     1      22.423   2.518  51.088  1.00  0.00     0.124 C 
HETATM   29  C26 UNL     1      24.243   4.931  50.088  1.00  0.00     0.060 C 
HETATM   30  C27 UNL     1      25.017   6.082  50.641  1.00  0.00     0.017 C 
ENDROOT
BRANCH   1  31
HETATM   31  N1  UNL     1      23.647   6.701  48.511  1.00  0.00    -0.420 N 
HETATM   32  C1  UNL     1      23.970   7.302  47.275  1.00  0.00     0.140 C 
HETATM   33  H4  UNL     1      22.964   7.147  49.118  1.00  0.00     0.153 HD
ENDBRANCH   1  31
BRANCH  11  34
HETATM   34  O1  UNL     1      19.542   1.675  51.489  1.00  0.00    -0.285 OA
HETATM   35  H12 UNL     1      19.721   2.599  51.181  1.00  0.00     0.245 HD
ENDBRANCH  11  34
BRANCH  12  36
HETATM   36  O2  UNL     1      20.376   0.337  53.146  1.00  0.00    -0.371 OA
HETATM   37  H14 UNL     1      20.878  -0.186  53.842  1.00  0.00     0.212 HD
ENDBRANCH  12  36
TORSDOF 3
ENDMDL
