MODEL 1
REMARK VINA RESULT:      -8.6      0.000      0.000
REMARK  3 active torsions:
REMARK  status: ('A' for Active; 'I' for Inactive)
REMARK    1  A    between atoms: N1_5  and  C4_6 
REMARK    2  A    between atoms: C5_9  and  C6_10 
REMARK    3  A    between atoms: C6_10  and  C7_11 
ROOT
HETATM    1  C4  UNL     1      22.345   1.528  51.977  1.00  0.00     0.163 A 
HETATM    2  N2  UNL     1      23.442   1.749  51.241  1.00  0.00    -0.131 NA
HETATM    3  N3  UNL     1      24.608   1.172  51.468  1.00  0.00    -0.152 NA
HETATM    4  C5  UNL     1      24.825   0.283  52.479  1.00  0.00     0.072 A 
HETATM    5  C12 UNL     1      23.721   0.031  53.256  1.00  0.00     0.005 A 
HETATM    6  C13 UNL     1      23.905  -0.862  54.284  1.00  0.00     0.014 A 
HETATM    7  C14 UNL     1      22.830  -1.155  55.094  1.00  0.00     0.001 A 
HETATM    8  C15 UNL     1      21.593  -0.545  54.852  1.00  0.00     0.001 A 
HETATM    9  C16 UNL     1      21.430   0.349  53.815  1.00  0.00     0.016 A 
HETATM   10  C17 UNL     1      22.510   0.638  53.011  1.00  0.00     0.024 A 
ENDROOT
BRANCH   1  11
HETATM   11  N1  UNL     1      21.139   2.225  51.669  1.00  0.00    -0.336 N 
HETATM   12  C3  UNL     1      20.694   3.473  52.255  1.00  0.00     0.159 A 
HETATM   13  C2  UNL     1      19.379   3.804  51.686  1.00  0.00     0.017 A 
HETATM   14  C1  UNL     1      18.613   3.212  50.787  1.00  0.00     0.033 A 
HETATM   15 CL1  UNL     1      17.074   3.849  50.297  1.00  0.00    -0.085 Cl
HETATM   16  C19 UNL     1      19.207   1.979  50.281  1.00  0.00     0.041 A 
HETATM   17  C18 UNL     1      20.380   1.503  50.676  1.00  0.00     0.095 A 
ENDBRANCH   1  11
BRANCH   4  18
HETATM   18  C6  UNL     1      26.183  -0.286  52.564  1.00  0.00     0.100 C 
BRANCH  18  19
HETATM   19  C7  UNL     1      27.189   0.597  53.157  1.00  0.00    -0.050 A 
HETATM   20  C8  UNL     1      27.586   1.891  52.920  1.00  0.00     0.026 A 
HETATM   21  C9  UNL     1      28.565   2.530  53.629  1.00  0.00     0.116 A 
HETATM   22  N4  UNL     1      29.212   1.879  54.640  1.00  0.00    -0.273 NA
HETATM   23  C10 UNL     1      28.870   0.604  54.923  1.00  0.00     0.116 A 
HETATM   24  C11 UNL     1      27.877  -0.018  54.191  1.00  0.00     0.026 A 
ENDBRANCH  18  19
ENDBRANCH   4  18
TORSDOF 3
ENDMDL
MODEL 2
REMARK VINA RESULT:      -8.5      1.738      2.186
REMARK  3 active torsions:
REMARK  status: ('A' for Active; 'I' for Inactive)
REMARK    1  A    between atoms: N1_5  and  C4_6 
REMARK    2  A    between atoms: C5_9  and  C6_10 
REMARK    3  A    between atoms: C6_10  and  C7_11 
ROOT
HETATM    1  C4  UNL     1      23.108   1.981  51.917  1.00  0.00     0.163 A 
HETATM    2  N2  UNL     1      24.396   1.810  51.589  1.00  0.00    -0.131 NA
HETATM    3  N3  UNL     1      25.165   0.865  52.098  1.00  0.00    -0.152 NA
HETATM    4  C5  UNL     1      24.731  -0.046  53.016  1.00  0.00     0.072 A 
HETATM    5  C12 UNL     1      23.415   0.098  53.377  1.00  0.00     0.005 A 
HETATM    6  C13 UNL     1      22.946  -0.805  54.301  1.00  0.00     0.014 A 
HETATM    7  C14 UNL     1      21.630  -0.709  54.697  1.00  0.00     0.001 A 
HETATM    8  C15 UNL     1      20.814   0.292  54.156  1.00  0.00     0.001 A 
HETATM    9  C16 UNL     1      21.305   1.188  53.230  1.00  0.00     0.016 A 
HETATM   10  C17 UNL     1      22.622   1.086  52.841  1.00  0.00     0.024 A 
ENDROOT
BRANCH   1  11
HETATM   11  N1  UNL     1      22.370   3.052  51.333  1.00  0.00    -0.336 N 
HETATM   12  C3  UNL     1      21.519   2.973  50.163  1.00  0.00     0.159 A 
HETATM   13  C2  UNL     1      20.994   4.318  49.884  1.00  0.00     0.017 A 
HETATM   14  C1  UNL     1      21.140   5.483  50.490  1.00  0.00     0.033 A 
HETATM   15 CL1  UNL     1      20.381   6.938  49.923  1.00  0.00    -0.085 Cl
HETATM   16  C19 UNL     1      22.010   5.394  51.657  1.00  0.00     0.041 A 
HETATM   17  C18 UNL     1      22.591   4.275  52.068  1.00  0.00     0.095 A 
ENDBRANCH   1  11
BRANCH   4  18
HETATM   18  C6  UNL     1      25.721  -1.049  53.453  1.00  0.00     0.100 C 
BRANCH  18  19
HETATM   19  C7  UNL     1      27.057  -0.522  53.734  1.00  0.00    -0.050 A 
HETATM   20  C8  UNL     1      27.533   0.533  54.473  1.00  0.00     0.026 A 
HETATM   21  C9  UNL     1      28.860   0.833  54.606  1.00  0.00     0.116 A 
HETATM   22  N4  UNL     1      29.801   0.063  53.984  1.00  0.00    -0.273 NA
HETATM   23  C10 UNL     1      29.398  -0.989  53.241  1.00  0.00     0.116 A 
HETATM   24  C11 UNL     1      28.051  -1.270  53.123  1.00  0.00     0.026 A 
ENDBRANCH  18  19
ENDBRANCH   4  18
TORSDOF 3
ENDMDL
MODEL 3
REMARK VINA RESULT:      -8.5      2.246      3.517
REMARK  3 active torsions:
REMARK  status: ('A' for Active; 'I' for Inactive)
REMARK    1  A    between atoms: N1_5  and  C4_6 
REMARK    2  A    between atoms: C5_9  and  C6_10 
REMARK    3  A    between atoms: C6_10  and  C7_11 
ROOT
HETATM    1  C4  UNL     1      23.157   1.891  52.138  1.00  0.00     0.163 A 
HETATM    2  N2  UNL     1      23.648   1.242  53.202  1.00  0.00    -0.131 NA
HETATM    3  N3  UNL     1      24.938   1.077  53.432  1.00  0.00    -0.152 NA
HETATM    4  C5  UNL     1      25.917   1.551  52.610  1.00  0.00     0.072 A 
HETATM    5  C12 UNL     1      25.452   2.223  51.507  1.00  0.00     0.005 A 
HETATM    6  C13 UNL     1      26.413   2.715  50.657  1.00  0.00     0.014 A 
HETATM    7  C14 UNL     1      26.003   3.401  49.535  1.00  0.00     0.001 A 
HETATM    8  C15 UNL     1      24.635   3.579  49.292  1.00  0.00     0.001 A 
HETATM    9  C16 UNL     1      23.687   3.076  50.158  1.00  0.00     0.016 A 
HETATM   10  C17 UNL     1      24.105   2.390  51.276  1.00  0.00     0.024 A 
ENDROOT
BRANCH   1  11
HETATM   11  N1  UNL     1      21.746   1.990  51.963  1.00  0.00    -0.336 N 
HETATM   12  C3  UNL     1      20.918   3.137  52.278  1.00  0.00     0.159 A 
HETATM   13  C2  UNL     1      19.520   2.789  51.987  1.00  0.00     0.017 A 
HETATM   14  C1  UNL     1      18.946   1.701  51.504  1.00  0.00     0.033 A 
HETATM   15 CL1  UNL     1      17.232   1.573  51.260  1.00  0.00    -0.085 Cl
HETATM   16  C19 UNL     1      19.912   0.645  51.223  1.00  0.00     0.041 A 
HETATM   17  C18 UNL     1      21.217   0.758  51.427  1.00  0.00     0.095 A 
ENDBRANCH   1  11
BRANCH   4  18
HETATM   18  C6  UNL     1      27.305   1.299  53.039  1.00  0.00     0.100 C 
BRANCH  18  19
HETATM   19  C7  UNL     1      27.706  -0.109  53.048  1.00  0.00    -0.050 A 
HETATM   20  C8  UNL     1      27.102  -1.279  52.656  1.00  0.00     0.026 A 
HETATM   21  C9  UNL     1      27.690  -2.509  52.749  1.00  0.00     0.116 A 
HETATM   22  N4  UNL     1      28.953  -2.627  53.254  1.00  0.00    -0.273 NA
HETATM   23  C10 UNL     1      29.602  -1.515  53.659  1.00  0.00     0.116 A 
HETATM   24  C11 UNL     1      28.984  -0.283  53.555  1.00  0.00     0.026 A 
ENDBRANCH  18  19
ENDBRANCH   4  18
TORSDOF 3
ENDMDL
MODEL 4
REMARK VINA RESULT:      -8.2      3.365      7.132
REMARK  3 active torsions:
REMARK  status: ('A' for Active; 'I' for Inactive)
REMARK    1  A    between atoms: N1_5  and  C4_6 
REMARK    2  A    between atoms: C5_9  and  C6_10 
REMARK    3  A    between atoms: C6_10  and  C7_11 
ROOT
HETATM    1  C4  UNL     1      24.796   0.429  52.803  1.00  0.00     0.163 A 
HETATM    2  N2  UNL     1      24.593   1.197  51.725  1.00  0.00    -0.131 NA
HETATM    3  N3  UNL     1      23.399   1.503  51.254  1.00  0.00    -0.152 NA
HETATM    4  C5  UNL     1      22.233   1.071  51.816  1.00  0.00     0.072 A 
HETATM    5  C12 UNL     1      22.401   0.280  52.926  1.00  0.00     0.005 A 
HETATM    6  C13 UNL     1      21.246  -0.172  53.517  1.00  0.00     0.014 A 
HETATM    7  C14 UNL     1      21.355  -0.967  54.637  1.00  0.00     0.001 A 
HETATM    8  C15 UNL     1      22.622  -1.291  55.138  1.00  0.00     0.001 A 
HETATM    9  C16 UNL     1      23.768  -0.826  54.528  1.00  0.00     0.016 A 
HETATM   10  C17 UNL     1      23.651  -0.033  53.408  1.00  0.00     0.024 A 
ENDROOT
BRANCH   1  11
HETATM   11  N1  UNL     1      26.128   0.130  53.215  1.00  0.00    -0.336 N 
HETATM   12  C3  UNL     1      26.920   0.876  54.172  1.00  0.00     0.159 A 
HETATM   13  C2  UNL     1      28.246   0.247  54.261  1.00  0.00     0.017 A 
HETATM   14  C1  UNL     1      28.780  -0.810  53.676  1.00  0.00     0.033 A 
HETATM   15 CL1  UNL     1      30.409  -1.329  53.981  1.00  0.00    -0.085 Cl
HETATM   16  C19 UNL     1      27.854  -1.460  52.755  1.00  0.00     0.041 A 
HETATM   17  C18 UNL     1      26.617  -1.041  52.527  1.00  0.00     0.095 A 
ENDBRANCH   1  11
BRANCH   4  18
HETATM   18  C6  UNL     1      20.990   1.536  51.173  1.00  0.00     0.100 C 
BRANCH  18  19
HETATM   19  C7  UNL     1      20.960   2.961  50.838  1.00  0.00    -0.050 A 
HETATM   20  C8  UNL     1      21.138   4.117  51.558  1.00  0.00     0.026 A 
HETATM   21  C9  UNL     1      21.075   5.371  51.015  1.00  0.00     0.116 A 
HETATM   22  N4  UNL     1      20.824   5.526  49.683  1.00  0.00    -0.273 NA
HETATM   23  C10 UNL     1      20.638   4.429  48.919  1.00  0.00     0.116 A 
HETATM   24  C11 UNL     1      20.706   3.174  49.492  1.00  0.00     0.026 A 
ENDBRANCH  18  19
ENDBRANCH   4  18
TORSDOF 3
ENDMDL
MODEL 5
REMARK VINA RESULT:      -8.1      2.753      3.348
REMARK  3 active torsions:
REMARK  status: ('A' for Active; 'I' for Inactive)
REMARK    1  A    between atoms: N1_5  and  C4_6 
REMARK    2  A    between atoms: C5_9  and  C6_10 
REMARK    3  A    between atoms: C6_10  and  C7_11 
ROOT
HETATM    1  C4  UNL     1      23.785   2.327  50.589  1.00  0.00     0.163 A 
HETATM    2  N2  UNL     1      25.041   2.660  50.914  1.00  0.00    -0.131 NA
HETATM    3  N3  UNL     1      25.682   2.180  51.963  1.00  0.00    -0.152 NA
HETATM    4  C5  UNL     1      25.133   1.287  52.837  1.00  0.00     0.072 A 
HETATM    5  C12 UNL     1      23.845   0.921  52.537  1.00  0.00     0.005 A 
HETATM    6  C13 UNL     1      23.263   0.021  53.398  1.00  0.00     0.014 A 
HETATM    7  C14 UNL     1      21.971  -0.384  53.142  1.00  0.00     0.001 A 
HETATM    8  C15 UNL     1      21.292   0.125  52.028  1.00  0.00     0.001 A 
HETATM    9  C16 UNL     1      21.895   1.027  51.177  1.00  0.00     0.016 A 
HETATM   10  C17 UNL     1      23.186   1.428  51.440  1.00  0.00     0.024 A 
ENDROOT
BRANCH   1  11
HETATM   11  N1  UNL     1      23.169   2.925  49.450  1.00  0.00    -0.336 N 
HETATM   12  C3  UNL     1      22.615   2.229  48.307  1.00  0.00     0.159 A 
HETATM   13  C2  UNL     1      22.128   3.233  47.349  1.00  0.00     0.017 A 
HETATM   14  C1  UNL     1      22.095   4.553  47.370  1.00  0.00     0.033 A 
HETATM   15 CL1  UNL     1      21.444   5.497  46.066  1.00  0.00    -0.085 Cl
HETATM   16  C19 UNL     1      22.673   5.101  48.592  1.00  0.00     0.041 A 
HETATM   17  C18 UNL     1      23.176   4.364  49.572  1.00  0.00     0.095 A 
ENDBRANCH   1  11
BRANCH   4  18
HETATM   18  C6  UNL     1      26.006   0.835  53.937  1.00  0.00     0.100 C 
BRANCH  18  19
HETATM   19  C7  UNL     1      26.879  -0.294  53.614  1.00  0.00    -0.050 A 
HETATM   20  C8  UNL     1      26.689  -1.503  52.990  1.00  0.00     0.026 A 
HETATM   21  C9  UNL     1      27.683  -2.418  52.781  1.00  0.00     0.116 A 
HETATM   22  N4  UNL     1      28.955  -2.154  53.202  1.00  0.00    -0.273 NA
HETATM   23  C10 UNL     1      29.209  -0.983  53.824  1.00  0.00     0.116 A 
HETATM   24  C11 UNL     1      28.185  -0.075  54.023  1.00  0.00     0.026 A 
ENDBRANCH  18  19
ENDBRANCH   4  18
TORSDOF 3
ENDMDL
MODEL 6
REMARK VINA RESULT:      -8.0      3.112      7.344
REMARK  3 active torsions:
REMARK  status: ('A' for Active; 'I' for Inactive)
REMARK    1  A    between atoms: N1_5  and  C4_6 
REMARK    2  A    between atoms: C5_9  and  C6_10 
REMARK    3  A    between atoms: C6_10  and  C7_11 
ROOT
HETATM    1  C4  UNL     1      23.925   0.764  52.393  1.00  0.00     0.163 A 
HETATM    2  N2  UNL     1      23.539   1.340  51.247  1.00  0.00    -0.131 NA
HETATM    3  N3  UNL     1      22.314   1.262  50.760  1.00  0.00    -0.152 NA
HETATM    4  C5  UNL     1      21.301   0.584  51.374  1.00  0.00     0.072 A 
HETATM    5  C12 UNL     1      21.659  -0.021  52.553  1.00  0.00     0.005 A 
HETATM    6  C13 UNL     1      20.662  -0.713  53.197  1.00  0.00     0.014 A 
HETATM    7  C14 UNL     1      20.964  -1.337  54.387  1.00  0.00     0.001 A 
HETATM    8  C15 UNL     1      22.263  -1.252  54.904  1.00  0.00     0.001 A 
HETATM    9  C16 UNL     1      23.249  -0.553  54.241  1.00  0.00     0.016 A 
HETATM   10  C17 UNL     1      22.939   0.066  53.051  1.00  0.00     0.024 A 
ENDROOT
BRANCH   1  11
HETATM   11  N1  UNL     1      25.281   0.881  52.818  1.00  0.00    -0.336 N 
HETATM   12  C3  UNL     1      25.856   1.983  53.562  1.00  0.00     0.159 A 
HETATM   13  C2  UNL     1      27.291   1.716  53.745  1.00  0.00     0.017 A 
HETATM   14  C1  UNL     1      28.069   0.707  53.392  1.00  0.00     0.033 A 
HETATM   15 CL1  UNL     1      29.766   0.661  53.754  1.00  0.00    -0.085 Cl
HETATM   16  C19 UNL     1      27.339  -0.327  52.668  1.00  0.00     0.041 A 
HETATM   17  C18 UNL     1      26.044  -0.268  52.392  1.00  0.00     0.095 A 
ENDBRANCH   1  11
BRANCH   4  18
HETATM   18  C6  UNL     1      19.989   0.628  50.701  1.00  0.00     0.100 C 
BRANCH  18  19
HETATM   19  C7  UNL     1      19.146   1.769  51.060  1.00  0.00    -0.050 A 
HETATM   20  C8  UNL     1      19.368   3.117  51.200  1.00  0.00     0.026 A 
HETATM   21  C9  UNL     1      18.398   4.019  51.539  1.00  0.00     0.116 A 
HETATM   22  N4  UNL     1      17.119   3.596  51.760  1.00  0.00    -0.273 NA
HETATM   23  C10 UNL     1      16.834   2.282  51.640  1.00  0.00     0.116 A 
HETATM   24  C11 UNL     1      17.833   1.391  51.297  1.00  0.00     0.026 A 
ENDBRANCH  18  19
ENDBRANCH   4  18
TORSDOF 3
ENDMDL
MODEL 7
REMARK VINA RESULT:      -7.8      3.778      8.020
REMARK  3 active torsions:
REMARK  status: ('A' for Active; 'I' for Inactive)
REMARK    1  A    between atoms: N1_5  and  C4_6 
REMARK    2  A    between atoms: C5_9  and  C6_10 
REMARK    3  A    between atoms: C6_10  and  C7_11 
ROOT
HETATM    1  C4  UNL     1      25.463   2.048  52.385  1.00  0.00     0.163 A 
HETATM    2  N2  UNL     1      24.320   1.916  53.072  1.00  0.00    -0.131 NA
HETATM    3  N3  UNL     1      23.198   2.537  52.759  1.00  0.00    -0.152 NA
HETATM    4  C5  UNL     1      23.076   3.384  51.697  1.00  0.00     0.072 A 
HETATM    5  C12 UNL     1      24.228   3.545  50.968  1.00  0.00     0.005 A 
HETATM    6  C13 UNL     1      24.140   4.393  49.890  1.00  0.00     0.014 A 
HETATM    7  C14 UNL     1      25.266   4.589  49.120  1.00  0.00     0.001 A 
HETATM    8  C15 UNL     1      26.456   3.929  49.451  1.00  0.00     0.001 A 
HETATM    9  C16 UNL     1      26.522   3.083  50.537  1.00  0.00     0.016 A 
HETATM   10  C17 UNL     1      25.393   2.893  51.302  1.00  0.00     0.024 A 
ENDROOT
BRANCH   1  11
HETATM   11  N1  UNL     1      26.631   1.357  52.822  1.00  0.00    -0.336 N 
HETATM   12  C3  UNL     1      27.778   1.942  53.486  1.00  0.00     0.159 A 
HETATM   13  C2  UNL     1      28.770   0.880  53.713  1.00  0.00     0.017 A 
HETATM   14  C1  UNL     1      28.774  -0.416  53.452  1.00  0.00     0.033 A 
HETATM   15 CL1  UNL     1      30.114  -1.447  53.843  1.00  0.00    -0.085 Cl
HETATM   16  C19 UNL     1      27.545  -0.852  52.799  1.00  0.00     0.041 A 
HETATM   17  C18 UNL     1      26.536  -0.047  52.499  1.00  0.00     0.095 A 
ENDBRANCH   1  11
BRANCH   4  18
HETATM   18  C6  UNL     1      21.738   3.966  51.480  1.00  0.00     0.100 C 
BRANCH  18  19
HETATM   19  C7  UNL     1      20.707   3.014  51.067  1.00  0.00    -0.050 A 
HETATM   20  C8  UNL     1      20.689   1.925  50.229  1.00  0.00     0.026 A 
HETATM   21  C9  UNL     1      19.582   1.157  50.000  1.00  0.00     0.116 A 
HETATM   22  N4  UNL     1      18.403   1.455  50.621  1.00  0.00    -0.273 NA
HETATM   23  C10 UNL     1      18.353   2.514  51.457  1.00  0.00     0.116 A 
HETATM   24  C11 UNL     1      19.486   3.275  51.670  1.00  0.00     0.026 A 
ENDBRANCH  18  19
ENDBRANCH   4  18
TORSDOF 3
ENDMDL
MODEL 8
REMARK VINA RESULT:      -7.8      5.602      7.387
REMARK  3 active torsions:
REMARK  status: ('A' for Active; 'I' for Inactive)
REMARK    1  A    between atoms: N1_5  and  C4_6 
REMARK    2  A    between atoms: C5_9  and  C6_10 
REMARK    3  A    between atoms: C6_10  and  C7_11 
ROOT
HETATM    1  C4  UNL     1      25.853   3.995  50.075  1.00  0.00     0.163 A 
HETATM    2  N2  UNL     1      26.933   3.632  49.371  1.00  0.00    -0.131 NA
HETATM    3  N3  UNL     1      27.666   4.472  48.663  1.00  0.00    -0.152 NA
HETATM    4  C5  UNL     1      27.404   5.808  48.570  1.00  0.00     0.072 A 
HETATM    5  C12 UNL     1      26.302   6.218  49.280  1.00  0.00     0.005 A 
HETATM    6  C13 UNL     1      26.010   7.559  49.208  1.00  0.00     0.014 A 
HETATM    7  C14 UNL     1      24.917   8.026  49.904  1.00  0.00     0.001 A 
HETATM    8  C15 UNL     1      24.141   7.135  50.657  1.00  0.00     0.001 A 
HETATM    9  C16 UNL     1      24.452   5.793  50.715  1.00  0.00     0.016 A 
HETATM   10  C17 UNL     1      25.545   5.334  50.015  1.00  0.00     0.024 A 
ENDROOT
BRANCH   1  11
HETATM   11  N1  UNL     1      25.110   3.006  50.784  1.00  0.00    -0.336 N 
HETATM   12  C3  UNL     1      23.784   2.526  50.454  1.00  0.00     0.159 A 
HETATM   13  C2  UNL     1      23.382   1.546  51.474  1.00  0.00     0.017 A 
HETATM   14  C1  UNL     1      23.992   1.057  52.540  1.00  0.00     0.033 A 
HETATM   15 CL1  UNL     1      23.256  -0.117  53.586  1.00  0.00    -0.085 Cl
HETATM   16  C19 UNL     1      25.321   1.626  52.726  1.00  0.00     0.041 A 
HETATM   17  C18 UNL     1      25.862   2.531  51.922  1.00  0.00     0.095 A 
ENDBRANCH   1  11
BRANCH   4  18
HETATM   18  C6  UNL     1      28.346   6.600  47.758  1.00  0.00     0.100 C 
BRANCH  18  19
HETATM   19  C7  UNL     1      29.620   6.909  48.409  1.00  0.00    -0.050 A 
HETATM   20  C8  UNL     1      30.716   6.162  48.770  1.00  0.00     0.026 A 
HETATM   21  C9  UNL     1      31.828   6.682  49.371  1.00  0.00     0.116 A 
HETATM   22  N4  UNL     1      31.894   8.018  49.647  1.00  0.00    -0.273 NA
HETATM   23  C10 UNL     1      30.850   8.807  49.318  1.00  0.00     0.116 A 
HETATM   24  C11 UNL     1      29.737   8.256  48.711  1.00  0.00     0.026 A 
ENDBRANCH  18  19
ENDBRANCH   4  18
TORSDOF 3
ENDMDL
MODEL 9
REMARK VINA RESULT:      -7.8      3.002      3.928
REMARK  3 active torsions:
REMARK  status: ('A' for Active; 'I' for Inactive)
REMARK    1  A    between atoms: N1_5  and  C4_6 
REMARK    2  A    between atoms: C5_9  and  C6_10 
REMARK    3  A    between atoms: C6_10  and  C7_11 
ROOT
HETATM    1  C4  UNL     1      23.247   3.659  51.720  1.00  0.00     0.163 A 
HETATM    2  N2  UNL     1      24.172   3.478  52.671  1.00  0.00    -0.131 NA
HETATM    3  N3  UNL     1      24.402   2.320  53.263  1.00  0.00    -0.152 NA
HETATM    4  C5  UNL     1      23.720   1.176  52.970  1.00  0.00     0.072 A 
HETATM    5  C12 UNL     1      22.762   1.322  51.998  1.00  0.00     0.005 A 
HETATM    6  C13 UNL     1      22.056   0.187  51.679  1.00  0.00     0.014 A 
HETATM    7  C14 UNL     1      21.084   0.275  50.706  1.00  0.00     0.001 A 
HETATM    8  C15 UNL     1      20.842   1.503  50.077  1.00  0.00     0.001 A 
HETATM    9  C16 UNL     1      21.562   2.630  50.413  1.00  0.00     0.016 A 
HETATM   10  C17 UNL     1      22.530   2.533  51.387  1.00  0.00     0.024 A 
ENDROOT
BRANCH   1  11
HETATM   11  N1  UNL     1      23.055   4.957  51.163  1.00  0.00    -0.336 N 
HETATM   12  C3  UNL     1      21.957   5.860  51.444  1.00  0.00     0.159 A 
HETATM   13  C2  UNL     1      22.129   7.065  50.618  1.00  0.00     0.017 A 
HETATM   14  C1  UNL     1      23.056   7.436  49.752  1.00  0.00     0.033 A 
HETATM   15 CL1  UNL     1      22.999   8.952  48.908  1.00  0.00    -0.085 Cl
HETATM   16  C19 UNL     1      24.099   6.428  49.592  1.00  0.00     0.041 A 
HETATM   17  C18 UNL     1      24.119   5.271  50.238  1.00  0.00     0.095 A 
ENDBRANCH   1  11
BRANCH   4  18
HETATM   18  C6  UNL     1      24.131  -0.032  53.710  1.00  0.00     0.100 C 
BRANCH  18  19
HETATM   19  C7  UNL     1      25.573  -0.178  53.910  1.00  0.00    -0.050 A 
HETATM   20  C8  UNL     1      26.455   0.251  54.872  1.00  0.00     0.026 A 
HETATM   21  C9  UNL     1      27.793  -0.025  54.858  1.00  0.00     0.116 A 
HETATM   22  N4  UNL     1      28.327  -0.769  53.845  1.00  0.00    -0.273 NA
HETATM   23  C10 UNL     1      27.514  -1.221  52.867  1.00  0.00     0.116 A 
HETATM   24  C11 UNL     1      26.164  -0.927  52.905  1.00  0.00     0.026 A 
ENDBRANCH  18  19
ENDBRANCH   4  18
TORSDOF 3
ENDMDL
