MODEL 1
REMARK VINA RESULT:      -9.1      0.000      0.000
REMARK  6 active torsions:
REMARK  status: ('A' for Active; 'I' for Inactive)
REMARK    1  A    between atoms: C6_7  and  O1_8 
REMARK    2  A    between atoms: O1_8  and  C7_9 
REMARK    3  A    between atoms: C7_9  and  C8_10 
REMARK       I    between atoms: C8_10  and  N1_12 
REMARK    4  A    between atoms: N1_12  and  C9_13 
REMARK    5  A    between atoms: C14_20  and  N4_21 
REMARK    6  A    between atoms: N4_21  and  C15_22 
ROOT
HETATM    1  C9  UNL     1      23.122   1.278  51.802  1.00  0.00     0.035 A 
HETATM    2  C10 UNL     1      21.891   0.680  52.020  1.00  0.00     0.032 A 
HETATM    3  C11 UNL     1      21.672  -0.221  53.044  1.00  0.00     0.035 A 
HETATM    4  C12 UNL     1      22.716  -0.554  53.901  1.00  0.00     0.072 A 
HETATM    5  N2  UNL     1      22.553  -1.429  54.920  1.00  0.00    -0.241 NA
HETATM    6  C13 UNL     1      23.639  -1.683  55.700  1.00  0.00     0.236 A 
HETATM    7  N3  UNL     1      24.830  -1.093  55.474  1.00  0.00    -0.224 NA
HETATM    8  C14 UNL     1      25.016  -0.214  54.462  1.00  0.00     0.142 A 
HETATM    9  C21 UNL     1      23.925   0.061  53.655  1.00  0.00     0.041 A 
HETATM   10  C22 UNL     1      24.171   0.963  52.640  1.00  0.00     0.047 A 
ENDROOT
BRANCH   1  11
HETATM   11  N1  UNL     1      23.123   2.164  50.704  1.00  0.00    -0.325 N 
HETATM   12  C8  UNL     1      22.829   3.558  50.843  1.00  0.00     0.246 C 
HETATM   13  O2  UNL     1      22.562   3.979  52.008  1.00  0.00    -0.271 OA
HETATM   14  H9  UNL     1      23.357   1.733  49.760  1.00  0.00     0.169 HD
BRANCH  12  15
HETATM   15  C7  UNL     1      22.877   4.341  49.570  1.00  0.00     0.278 C 
BRANCH  15  16
HETATM   16  O1  UNL     1      23.824   5.365  49.573  1.00  0.00    -0.345 OA
BRANCH  16  17
HETATM   17  C6  UNL     1      25.160   5.081  49.298  1.00  0.00     0.057 A 
HETATM   18  C2  UNL     1      25.958   6.208  48.748  1.00  0.00     0.100 A 
HETATM   19  C1  UNL     1      25.979   7.332  49.765  1.00  0.00     0.024 C 
HETATM   20  C3  UNL     1      27.312   5.628  48.556  1.00  0.00     0.104 A 
HETATM   21  F1  UNL     1      28.388   6.305  48.065  1.00  0.00    -0.210 F 
HETATM   22  C4  UNL     1      27.292   4.361  48.938  1.00  0.00     0.041 A 
HETATM   23  C5  UNL     1      25.935   4.019  49.404  1.00  0.00     0.036 A 
ENDBRANCH  16  17
ENDBRANCH  15  16
ENDBRANCH  12  15
ENDBRANCH   1  11
BRANCH   8  24
HETATM   24  N4  UNL     1      26.312   0.354  54.310  1.00  0.00    -0.340 N 
HETATM   25  H13 UNL     1      26.532   1.380  54.484  1.00  0.00     0.167 HD
BRANCH  24  26
HETATM   26  C15 UNL     1      27.373  -0.503  53.902  1.00  0.00     0.033 A 
HETATM   27  C16 UNL     1      27.090  -1.611  53.133  1.00  0.00     0.029 A 
HETATM   28  C17 UNL     1      28.067  -2.491  52.698  1.00  0.00     0.002 A 
HETATM   29  C18 UNL     1      29.355  -2.201  53.076  1.00  0.00     0.000 A 
HETATM   30  C19 UNL     1      29.679  -1.105  53.842  1.00  0.00     0.002 A 
HETATM   31  C20 UNL     1      28.683  -0.234  54.268  1.00  0.00     0.029 A 
ENDBRANCH  24  26
ENDBRANCH   8  24
TORSDOF 6
ENDMDL
MODEL 2
REMARK VINA RESULT:      -8.9      1.308      1.902
REMARK  6 active torsions:
REMARK  status: ('A' for Active; 'I' for Inactive)
REMARK    1  A    between atoms: C6_7  and  O1_8 
REMARK    2  A    between atoms: O1_8  and  C7_9 
REMARK    3  A    between atoms: C7_9  and  C8_10 
REMARK       I    between atoms: C8_10  and  N1_12 
REMARK    4  A    between atoms: N1_12  and  C9_13 
REMARK    5  A    between atoms: C14_20  and  N4_21 
REMARK    6  A    between atoms: N4_21  and  C15_22 
ROOT
HETATM    1  C9  UNL     1      23.671   2.342  50.535  1.00  0.00     0.035 A 
HETATM    2  C10 UNL     1      22.360   1.913  50.403  1.00  0.00     0.032 A 
HETATM    3  C11 UNL     1      21.796   0.974  51.244  1.00  0.00     0.035 A 
HETATM    4  C12 UNL     1      22.557   0.425  52.271  1.00  0.00     0.072 A 
HETATM    5  N2  UNL     1      22.050  -0.497  53.121  1.00  0.00    -0.241 NA
HETATM    6  C13 UNL     1      22.880  -0.968  54.092  1.00  0.00     0.236 A 
HETATM    7  N3  UNL     1      24.153  -0.541  54.207  1.00  0.00    -0.224 NA
HETATM    8  C14 UNL     1      24.682   0.381  53.368  1.00  0.00     0.142 A 
HETATM    9  C21 UNL     1      23.856   0.876  52.372  1.00  0.00     0.041 A 
HETATM   10  C22 UNL     1      24.444   1.811  51.546  1.00  0.00     0.047 A 
ENDROOT
BRANCH   1  11
HETATM   11  N1  UNL     1      24.042   3.304  49.572  1.00  0.00    -0.325 N 
HETATM   12  C8  UNL     1      23.995   4.710  49.835  1.00  0.00     0.246 C 
HETATM   13  O2  UNL     1      23.602   5.071  50.985  1.00  0.00    -0.271 OA
HETATM   14  H9  UNL     1      24.361   2.921  48.632  1.00  0.00     0.169 HD
BRANCH  12  15
HETATM   15  C7  UNL     1      24.424   5.578  48.696  1.00  0.00     0.278 C 
BRANCH  15  16
HETATM   16  O1  UNL     1      25.485   6.430  49.003  1.00  0.00    -0.345 OA
BRANCH  16  17
HETATM   17  C6  UNL     1      26.789   6.071  48.664  1.00  0.00     0.057 A 
HETATM   18  C2  UNL     1      27.604   7.138  48.025  1.00  0.00     0.100 A 
HETATM   19  C1  UNL     1      27.736   8.297  48.993  1.00  0.00     0.024 C 
HETATM   20  C3  UNL     1      28.917   6.486  47.780  1.00  0.00     0.104 A 
HETATM   21  F1  UNL     1      29.991   7.092  47.202  1.00  0.00    -0.210 F 
HETATM   22  C4  UNL     1      28.861   5.238  48.214  1.00  0.00     0.041 A 
HETATM   23  C5  UNL     1      27.520   4.978  48.770  1.00  0.00     0.036 A 
ENDBRANCH  16  17
ENDBRANCH  15  16
ENDBRANCH  12  15
ENDBRANCH   1  11
BRANCH   8  24
HETATM   24  N4  UNL     1      26.036   0.765  53.575  1.00  0.00    -0.340 N 
HETATM   25  H13 UNL     1      26.337   1.749  53.843  1.00  0.00     0.167 HD
BRANCH  24  26
HETATM   26  C15 UNL     1      27.044  -0.228  53.415  1.00  0.00     0.033 A 
HETATM   27  C16 UNL     1      28.315   0.015  53.887  1.00  0.00     0.029 A 
HETATM   28  C17 UNL     1      29.347  -0.901  53.768  1.00  0.00     0.002 A 
HETATM   29  C18 UNL     1      29.036  -2.085  53.146  1.00  0.00     0.000 A 
HETATM   30  C19 UNL     1      27.781  -2.367  52.662  1.00  0.00     0.002 A 
HETATM   31  C20 UNL     1      26.759  -1.434  52.792  1.00  0.00     0.029 A 
ENDBRANCH  24  26
ENDBRANCH   8  24
TORSDOF 6
ENDMDL
MODEL 3
REMARK VINA RESULT:      -8.9      2.221      2.979
REMARK  6 active torsions:
REMARK  status: ('A' for Active; 'I' for Inactive)
REMARK    1  A    between atoms: C6_7  and  O1_8 
REMARK    2  A    between atoms: O1_8  and  C7_9 
REMARK    3  A    between atoms: C7_9  and  C8_10 
REMARK       I    between atoms: C8_10  and  N1_12 
REMARK    4  A    between atoms: N1_12  and  C9_13 
REMARK    5  A    between atoms: C14_20  and  N4_21 
REMARK    6  A    between atoms: N4_21  and  C15_22 
ROOT
HETATM    1  C9  UNL     1      21.431   0.298  52.460  1.00  0.00     0.035 A 
HETATM    2  C10 UNL     1      20.626  -0.371  53.369  1.00  0.00     0.032 A 
HETATM    3  C11 UNL     1      21.136  -1.024  54.474  1.00  0.00     0.035 A 
HETATM    4  C12 UNL     1      22.508  -1.023  54.701  1.00  0.00     0.072 A 
HETATM    5  N2  UNL     1      23.057  -1.647  55.768  1.00  0.00    -0.241 NA
HETATM    6  C13 UNL     1      24.410  -1.583  55.897  1.00  0.00     0.236 A 
HETATM    7  N3  UNL     1      25.179  -0.928  55.004  1.00  0.00    -0.224 NA
HETATM    8  C14 UNL     1      24.652  -0.296  53.928  1.00  0.00     0.142 A 
HETATM    9  C21 UNL     1      23.277  -0.347  53.776  1.00  0.00     0.041 A 
HETATM   10  C22 UNL     1      22.794   0.312  52.665  1.00  0.00     0.047 A 
ENDROOT
BRANCH   1  11
HETATM   11  N1  UNL     1      20.703   0.894  51.408  1.00  0.00    -0.325 N 
HETATM   12  C8  UNL     1      20.081   2.177  51.537  1.00  0.00     0.246 C 
HETATM   13  O2  UNL     1      20.206   2.772  52.650  1.00  0.00    -0.271 OA
HETATM   14  H9  UNL     1      20.645   0.332  50.507  1.00  0.00     0.169 HD
BRANCH  12  15
HETATM   15  C7  UNL     1      19.354   2.649  50.318  1.00  0.00     0.278 C 
BRANCH  15  16
HETATM   16  O1  UNL     1      20.167   2.784  49.193  1.00  0.00    -0.345 OA
BRANCH  16  17
HETATM   17  C6  UNL     1      21.381   3.461  49.286  1.00  0.00     0.057 A 
HETATM   18  C2  UNL     1      22.595   2.648  49.013  1.00  0.00     0.100 A 
HETATM   19  C1  UNL     1      22.524   2.127  47.591  1.00  0.00     0.024 C 
HETATM   20  C3  UNL     1      23.715   3.609  49.181  1.00  0.00     0.104 A 
HETATM   21  F1  UNL     1      25.034   3.304  49.027  1.00  0.00    -0.210 F 
HETATM   22  C4  UNL     1      23.218   4.792  49.501  1.00  0.00     0.041 A 
HETATM   23  C5  UNL     1      21.747   4.697  49.567  1.00  0.00     0.036 A 
ENDBRANCH  16  17
ENDBRANCH  15  16
ENDBRANCH  12  15
ENDBRANCH   1  11
BRANCH   8  24
HETATM   24  N4  UNL     1      25.551   0.366  53.045  1.00  0.00    -0.340 N 
HETATM   25  H13 UNL     1      25.237   0.968  52.226  1.00  0.00     0.167 HD
BRANCH  24  26
HETATM   26  C15 UNL     1      26.947   0.212  53.274  1.00  0.00     0.033 A 
HETATM   27  C16 UNL     1      27.546  -1.001  53.015  1.00  0.00     0.029 A 
HETATM   28  C17 UNL     1      28.898  -1.227  53.213  1.00  0.00     0.002 A 
HETATM   29  C18 UNL     1      29.626  -0.164  53.688  1.00  0.00     0.000 A 
HETATM   30  C19 UNL     1      29.067   1.063  53.958  1.00  0.00     0.002 A 
HETATM   31  C20 UNL     1      27.708   1.268  53.752  1.00  0.00     0.029 A 
ENDBRANCH  24  26
ENDBRANCH   8  24
TORSDOF 6
ENDMDL
MODEL 4
REMARK VINA RESULT:      -8.7      2.703      7.352
REMARK  6 active torsions:
REMARK  status: ('A' for Active; 'I' for Inactive)
REMARK    1  A    between atoms: C6_7  and  O1_8 
REMARK    2  A    between atoms: O1_8  and  C7_9 
REMARK    3  A    between atoms: C7_9  and  C8_10 
REMARK       I    between atoms: C8_10  and  N1_12 
REMARK    4  A    between atoms: N1_12  and  C9_13 
REMARK    5  A    between atoms: C14_20  and  N4_21 
REMARK    6  A    between atoms: N4_21  and  C15_22 
ROOT
HETATM    1  C9  UNL     1      23.095   1.856  50.487  1.00  0.00     0.035 A 
HETATM    2  C10 UNL     1      22.125   1.320  49.654  1.00  0.00     0.032 A 
HETATM    3  C11 UNL     1      21.624   2.000  48.562  1.00  0.00     0.035 A 
HETATM    4  C12 UNL     1      22.098   3.275  48.269  1.00  0.00     0.072 A 
HETATM    5  N2  UNL     1      21.640   3.982  47.210  1.00  0.00    -0.241 NA
HETATM    6  C13 UNL     1      22.173   5.219  47.013  1.00  0.00     0.236 A 
HETATM    7  N3  UNL     1      23.115   5.726  47.832  1.00  0.00    -0.224 NA
HETATM    8  C14 UNL     1      23.588   5.037  48.897  1.00  0.00     0.142 A 
HETATM    9  C21 UNL     1      23.062   3.776  49.118  1.00  0.00     0.041 A 
HETATM   10  C22 UNL     1      23.579   3.118  50.215  1.00  0.00     0.047 A 
ENDROOT
BRANCH   1  11
HETATM   11  N1  UNL     1      23.462   0.992  51.540  1.00  0.00    -0.325 N 
HETATM   12  C8  UNL     1      22.776   0.980  52.796  1.00  0.00     0.246 C 
HETATM   13  O2  UNL     1      21.809   1.787  52.935  1.00  0.00    -0.271 OA
HETATM   14  H9  UNL     1      24.284   0.345  51.345  1.00  0.00     0.169 HD
BRANCH  12  15
HETATM   15  C7  UNL     1      23.306  -0.002  53.792  1.00  0.00     0.278 C 
BRANCH  15  16
HETATM   16  O1  UNL     1      24.418  -0.715  53.346  1.00  0.00    -0.345 OA
BRANCH  16  17
HETATM   17  C6  UNL     1      25.684  -0.421  53.850  1.00  0.00     0.057 A 
HETATM   18  C2  UNL     1      26.822  -0.706  52.938  1.00  0.00     0.100 A 
HETATM   19  C1  UNL     1      26.672   0.141  51.690  1.00  0.00     0.024 C 
HETATM   20  C3  UNL     1      28.019  -0.304  53.723  1.00  0.00     0.104 A 
HETATM   21  F1  UNL     1      29.305  -0.389  53.281  1.00  0.00    -0.210 F 
HETATM   22  C4  UNL     1      27.624   0.143  54.904  1.00  0.00     0.041 A 
HETATM   23  C5  UNL     1      26.153   0.068  54.982  1.00  0.00     0.036 A 
ENDBRANCH  16  17
ENDBRANCH  15  16
ENDBRANCH  12  15
ENDBRANCH   1  11
BRANCH   8  24
HETATM   24  N4  UNL     1      24.584   5.662  49.700  1.00  0.00    -0.340 N 
HETATM   25  H13 UNL     1      24.403   6.039  50.678  1.00  0.00     0.167 HD
BRANCH  24  26
HETATM   26  C15 UNL     1      25.895   5.788  49.161  1.00  0.00     0.033 A 
HETATM   27  C16 UNL     1      26.329   7.018  48.717  1.00  0.00     0.029 A 
HETATM   28  C17 UNL     1      27.590   7.218  48.180  1.00  0.00     0.002 A 
HETATM   29  C18 UNL     1      28.401   6.113  48.111  1.00  0.00     0.000 A 
HETATM   30  C19 UNL     1      28.007   4.868  48.543  1.00  0.00     0.002 A 
HETATM   31  C20 UNL     1      26.737   4.689  49.079  1.00  0.00     0.029 A 
ENDBRANCH  24  26
ENDBRANCH   8  24
TORSDOF 6
ENDMDL
MODEL 5
REMARK VINA RESULT:      -8.7      2.203      3.092
REMARK  6 active torsions:
REMARK  status: ('A' for Active; 'I' for Inactive)
REMARK    1  A    between atoms: C6_7  and  O1_8 
REMARK    2  A    between atoms: O1_8  and  C7_9 
REMARK    3  A    between atoms: C7_9  and  C8_10 
REMARK       I    between atoms: C8_10  and  N1_12 
REMARK    4  A    between atoms: N1_12  and  C9_13 
REMARK    5  A    between atoms: C14_20  and  N4_21 
REMARK    6  A    between atoms: N4_21  and  C15_22 
ROOT
HETATM    1  C9  UNL     1      24.464   2.909  50.955  1.00  0.00     0.035 A 
HETATM    2  C10 UNL     1      23.214   2.597  50.444  1.00  0.00     0.032 A 
HETATM    3  C11 UNL     1      22.446   1.562  50.939  1.00  0.00     0.035 A 
HETATM    4  C12 UNL     1      22.927   0.791  51.992  1.00  0.00     0.072 A 
HETATM    5  N2  UNL     1      22.212  -0.233  52.513  1.00  0.00    -0.241 NA
HETATM    6  C13 UNL     1      22.775  -0.922  53.543  1.00  0.00     0.236 A 
HETATM    7  N3  UNL     1      23.992  -0.605  54.029  1.00  0.00    -0.224 NA
HETATM    8  C14 UNL     1      24.725   0.415  53.524  1.00  0.00     0.142 A 
HETATM    9  C21 UNL     1      24.173   1.131  52.475  1.00  0.00     0.041 A 
HETATM   10  C22 UNL     1      24.961   2.158  51.999  1.00  0.00     0.047 A 
ENDROOT
BRANCH   1  11
HETATM   11  N1  UNL     1      25.074   4.001  50.302  1.00  0.00    -0.325 N 
HETATM   12  C8  UNL     1      26.316   3.879  49.602  1.00  0.00     0.246 C 
HETATM   13  O2  UNL     1      26.863   2.735  49.587  1.00  0.00    -0.271 OA
HETATM   14  H9  UNL     1      24.554   4.927  50.360  1.00  0.00     0.169 HD
BRANCH  12  15
HETATM   15  C7  UNL     1      26.811   5.142  48.972  1.00  0.00     0.278 C 
BRANCH  15  16
HETATM   16  O1  UNL     1      28.059   5.018  48.362  1.00  0.00    -0.345 OA
BRANCH  16  17
HETATM   17  C6  UNL     1      28.787   6.157  48.024  1.00  0.00     0.057 A 
HETATM   18  C2  UNL     1      30.223   6.141  48.409  1.00  0.00     0.100 A 
HETATM   19  C1  UNL     1      30.906   4.991  47.696  1.00  0.00     0.024 C 
HETATM   20  C3  UNL     1      30.735   7.452  47.934  1.00  0.00     0.104 A 
HETATM   21  F1  UNL     1      32.020   7.883  48.072  1.00  0.00    -0.210 F 
HETATM   22  C4  UNL     1      29.744   8.117  47.363  1.00  0.00     0.041 A 
HETATM   23  C5  UNL     1      28.517   7.299  47.421  1.00  0.00     0.036 A 
ENDBRANCH  16  17
ENDBRANCH  15  16
ENDBRANCH  12  15
ENDBRANCH   1  11
BRANCH   8  24
HETATM   24  N4  UNL     1      25.998   0.667  54.108  1.00  0.00    -0.340 N 
HETATM   25  H13 UNL     1      26.194   1.474  54.773  1.00  0.00     0.167 HD
BRANCH  24  26
HETATM   26  C15 UNL     1      27.069  -0.212  53.782  1.00  0.00     0.033 A 
HETATM   27  C16 UNL     1      26.817  -1.332  53.019  1.00  0.00     0.029 A 
HETATM   28  C17 UNL     1      27.805  -2.233  52.662  1.00  0.00     0.002 A 
HETATM   29  C18 UNL     1      29.072  -1.954  53.113  1.00  0.00     0.000 A 
HETATM   30  C19 UNL     1      29.365  -0.848  53.876  1.00  0.00     0.002 A 
HETATM   31  C20 UNL     1      28.358   0.045  54.223  1.00  0.00     0.029 A 
ENDBRANCH  24  26
ENDBRANCH   8  24
TORSDOF 6
ENDMDL
MODEL 6
REMARK VINA RESULT:      -8.6      2.201      3.020
REMARK  6 active torsions:
REMARK  status: ('A' for Active; 'I' for Inactive)
REMARK    1  A    between atoms: C6_7  and  O1_8 
REMARK    2  A    between atoms: O1_8  and  C7_9 
REMARK    3  A    between atoms: C7_9  and  C8_10 
REMARK       I    between atoms: C8_10  and  N1_12 
REMARK    4  A    between atoms: N1_12  and  C9_13 
REMARK    5  A    between atoms: C14_20  and  N4_21 
REMARK    6  A    between atoms: N4_21  and  C15_22 
ROOT
HETATM    1  C9  UNL     1      21.611   0.788  52.354  1.00  0.00     0.035 A 
HETATM    2  C10 UNL     1      20.696   0.152  53.179  1.00  0.00     0.032 A 
HETATM    3  C11 UNL     1      21.079  -0.617  54.260  1.00  0.00     0.035 A 
HETATM    4  C12 UNL     1      22.430  -0.772  54.550  1.00  0.00     0.072 A 
HETATM    5  N2  UNL     1      22.857  -1.514  55.598  1.00  0.00    -0.241 NA
HETATM    6  C13 UNL     1      24.201  -1.598  55.793  1.00  0.00     0.236 A 
HETATM    7  N3  UNL     1      25.078  -0.973  54.981  1.00  0.00    -0.224 NA
HETATM    8  C14 UNL     1      24.674  -0.226  53.927  1.00  0.00     0.142 A 
HETATM    9  C21 UNL     1      23.311  -0.125  53.708  1.00  0.00     0.041 A 
HETATM   10  C22 UNL     1      22.956   0.648  52.623  1.00  0.00     0.047 A 
ENDROOT
BRANCH   1  11
HETATM   11  N1  UNL     1      21.003   1.520  51.311  1.00  0.00    -0.325 N 
HETATM   12  C8  UNL     1      20.432   2.816  51.517  1.00  0.00     0.246 C 
HETATM   13  O2  UNL     1      20.490   3.295  52.689  1.00  0.00    -0.271 OA
HETATM   14  H9  UNL     1      20.995   1.049  50.358  1.00  0.00     0.169 HD
BRANCH  12  15
HETATM   15  C7  UNL     1      19.833   3.440  50.296  1.00  0.00     0.278 C 
BRANCH  15  16
HETATM   16  O1  UNL     1      20.742   4.175  49.534  1.00  0.00    -0.345 OA
BRANCH  16  17
HETATM   17  C6  UNL     1      21.000   5.507  49.849  1.00  0.00     0.057 A 
HETATM   18  C2  UNL     1      22.367   5.796  50.355  1.00  0.00     0.100 A 
HETATM   19  C1  UNL     1      23.372   5.426  49.282  1.00  0.00     0.024 C 
HETATM   20  C3  UNL     1      22.356   7.261  50.602  1.00  0.00     0.104 A 
HETATM   21  F1  UNL     1      23.411   7.980  51.077  1.00  0.00    -0.210 F 
HETATM   22  C4  UNL     1      21.163   7.738  50.286  1.00  0.00     0.041 A 
HETATM   23  C5  UNL     1      20.310   6.631  49.812  1.00  0.00     0.036 A 
ENDBRANCH  16  17
ENDBRANCH  15  16
ENDBRANCH  12  15
ENDBRANCH   1  11
BRANCH   8  24
HETATM   24  N4  UNL     1      25.680   0.392  53.132  1.00  0.00    -0.340 N 
HETATM   25  H13 UNL     1      25.475   1.106  52.370  1.00  0.00     0.167 HD
BRANCH  24  26
HETATM   26  C15 UNL     1      27.036   0.034  53.373  1.00  0.00     0.033 A 
HETATM   27  C16 UNL     1      27.505  -1.182  52.925  1.00  0.00     0.029 A 
HETATM   28  C17 UNL     1      28.810  -1.600  53.121  1.00  0.00     0.002 A 
HETATM   29  C18 UNL     1      29.630  -0.730  53.796  1.00  0.00     0.000 A 
HETATM   30  C19 UNL     1      29.202   0.492  54.260  1.00  0.00     0.002 A 
HETATM   31  C20 UNL     1      27.887   0.893  54.051  1.00  0.00     0.029 A 
ENDBRANCH  24  26
ENDBRANCH   8  24
TORSDOF 6
ENDMDL
MODEL 7
REMARK VINA RESULT:      -8.5      1.662      2.264
REMARK  6 active torsions:
REMARK  status: ('A' for Active; 'I' for Inactive)
REMARK    1  A    between atoms: C6_7  and  O1_8 
REMARK    2  A    between atoms: O1_8  and  C7_9 
REMARK    3  A    between atoms: C7_9  and  C8_10 
REMARK       I    between atoms: C8_10  and  N1_12 
REMARK    4  A    between atoms: N1_12  and  C9_13 
REMARK    5  A    between atoms: C14_20  and  N4_21 
REMARK    6  A    between atoms: N4_21  and  C15_22 
ROOT
HETATM    1  C9  UNL     1      23.243   3.208  51.188  1.00  0.00     0.035 A 
HETATM    2  C10 UNL     1      22.003   3.129  51.801  1.00  0.00     0.032 A 
HETATM    3  C11 UNL     1      21.672   2.117  52.681  1.00  0.00     0.035 A 
HETATM    4  C12 UNL     1      22.606   1.130  52.977  1.00  0.00     0.072 A 
HETATM    5  N2  UNL     1      22.331   0.119  53.833  1.00  0.00    -0.241 NA
HETATM    6  C13 UNL     1      23.317  -0.793  54.053  1.00  0.00     0.236 A 
HETATM    7  N3  UNL     1      24.518  -0.701  53.448  1.00  0.00    -0.224 NA
HETATM    8  C14 UNL     1      24.816   0.301  52.589  1.00  0.00     0.142 A 
HETATM    9  C21 UNL     1      23.829   1.242  52.349  1.00  0.00     0.041 A 
HETATM   10  C22 UNL     1      24.185   2.240  51.466  1.00  0.00     0.047 A 
ENDROOT
BRANCH   1  11
HETATM   11  N1  UNL     1      23.368   4.320  50.327  1.00  0.00    -0.325 N 
HETATM   12  C8  UNL     1      23.330   4.195  48.902  1.00  0.00     0.246 C 
HETATM   13  O2  UNL     1      23.179   3.029  48.428  1.00  0.00    -0.271 OA
HETATM   14  H9  UNL     1      23.491   5.263  50.803  1.00  0.00     0.169 HD
BRANCH  12  15
HETATM   15  C7  UNL     1      23.478   5.481  48.153  1.00  0.00     0.278 C 
BRANCH  15  16
HETATM   16  O1  UNL     1      24.357   6.384  48.751  1.00  0.00    -0.345 OA
BRANCH  16  17
HETATM   17  C6  UNL     1      25.730   6.257  48.552  1.00  0.00     0.057 A 
HETATM   18  C2  UNL     1      26.378   7.368  47.806  1.00  0.00     0.100 A 
HETATM   19  C1  UNL     1      26.194   8.653  48.588  1.00  0.00     0.024 C 
HETATM   20  C3  UNL     1      27.809   6.972  47.746  1.00  0.00     0.104 A 
HETATM   21  F1  UNL     1      28.794   7.698  47.148  1.00  0.00    -0.210 F 
HETATM   22  C4  UNL     1      27.956   5.812  48.365  1.00  0.00     0.041 A 
HETATM   23  C5  UNL     1      26.646   5.363  48.872  1.00  0.00     0.036 A 
ENDBRANCH  16  17
ENDBRANCH  15  16
ENDBRANCH  12  15
ENDBRANCH   1  11
BRANCH   8  24
HETATM   24  N4  UNL     1      26.113   0.307  52.003  1.00  0.00    -0.340 N 
HETATM   25  H13 UNL     1      26.311   0.003  51.003  1.00  0.00     0.167 HD
BRANCH  24  26
HETATM   26  C15 UNL     1      27.205   0.745  52.804  1.00  0.00     0.033 A 
HETATM   27  C16 UNL     1      27.926  -0.179  53.530  1.00  0.00     0.029 A 
HETATM   28  C17 UNL     1      29.000   0.170  54.331  1.00  0.00     0.002 A 
HETATM   29  C18 UNL     1      29.318   1.505  54.369  1.00  0.00     0.000 A 
HETATM   30  C19 UNL     1      28.625   2.459  53.660  1.00  0.00     0.002 A 
HETATM   31  C20 UNL     1      27.550   2.087  52.861  1.00  0.00     0.029 A 
ENDBRANCH  24  26
ENDBRANCH   8  24
TORSDOF 6
ENDMDL
MODEL 8
REMARK VINA RESULT:      -8.5      3.046      3.580
REMARK  6 active torsions:
REMARK  status: ('A' for Active; 'I' for Inactive)
REMARK    1  A    between atoms: C6_7  and  O1_8 
REMARK    2  A    between atoms: O1_8  and  C7_9 
REMARK    3  A    between atoms: C7_9  and  C8_10 
REMARK       I    between atoms: C8_10  and  N1_12 
REMARK    4  A    between atoms: N1_12  and  C9_13 
REMARK    5  A    between atoms: C14_20  and  N4_21 
REMARK    6  A    between atoms: N4_21  and  C15_22 
ROOT
HETATM    1  C9  UNL     1      21.512   0.697  52.428  1.00  0.00     0.035 A 
HETATM    2  C10 UNL     1      20.635   0.056  53.289  1.00  0.00     0.032 A 
HETATM    3  C11 UNL     1      21.066  -0.693  54.366  1.00  0.00     0.035 A 
HETATM    4  C12 UNL     1      22.429  -0.822  54.614  1.00  0.00     0.072 A 
HETATM    5  N2  UNL     1      22.901  -1.544  55.656  1.00  0.00    -0.241 NA
HETATM    6  C13 UNL     1      24.252  -1.603  55.808  1.00  0.00     0.236 A 
HETATM    7  N3  UNL     1      25.091  -0.974  54.961  1.00  0.00    -0.224 NA
HETATM    8  C14 UNL     1      24.641  -0.246  53.912  1.00  0.00     0.142 A 
HETATM    9  C21 UNL     1      23.270  -0.170  53.736  1.00  0.00     0.041 A 
HETATM   10  C22 UNL     1      22.867   0.583  52.654  1.00  0.00     0.047 A 
ENDROOT
BRANCH   1  11
HETATM   11  N1  UNL     1      20.859   1.406  51.397  1.00  0.00    -0.325 N 
HETATM   12  C8  UNL     1      20.259   2.688  51.609  1.00  0.00     0.246 C 
HETATM   13  O2  UNL     1      20.334   3.176  52.777  1.00  0.00    -0.271 OA
HETATM   14  H9  UNL     1      20.838   0.930  50.446  1.00  0.00     0.169 HD
BRANCH  12  15
HETATM   15  C7  UNL     1      19.613   3.288  50.401  1.00  0.00     0.278 C 
BRANCH  15  16
HETATM   16  O1  UNL     1      20.477   4.057  49.622  1.00  0.00    -0.345 OA
BRANCH  16  17
HETATM   17  C6  UNL     1      20.437   3.959  48.232  1.00  0.00     0.057 A 
HETATM   18  C2  UNL     1      21.742   3.712  47.566  1.00  0.00     0.100 A 
HETATM   19  C1  UNL     1      22.297   2.388  48.054  1.00  0.00     0.024 C 
HETATM   20  C3  UNL     1      21.402   3.655  46.121  1.00  0.00     0.104 A 
HETATM   21  F1  UNL     1      22.298   3.445  45.117  1.00  0.00    -0.210 F 
HETATM   22  C4  UNL     1      20.099   3.841  45.982  1.00  0.00     0.041 A 
HETATM   23  C5  UNL     1      19.493   4.032  47.313  1.00  0.00     0.036 A 
ENDBRANCH  16  17
ENDBRANCH  15  16
ENDBRANCH  12  15
ENDBRANCH   1  11
BRANCH   8  24
HETATM   24  N4  UNL     1      25.610   0.379  53.077  1.00  0.00    -0.340 N 
HETATM   25  H13 UNL     1      25.365   1.030  52.273  1.00  0.00     0.167 HD
BRANCH  24  26
HETATM   26  C15 UNL     1      26.985   0.116  53.336  1.00  0.00     0.033 A 
HETATM   27  C16 UNL     1      27.528  -1.089  52.947  1.00  0.00     0.029 A 
HETATM   28  C17 UNL     1      28.856  -1.417  53.165  1.00  0.00     0.002 A 
HETATM   29  C18 UNL     1      29.619  -0.467  53.799  1.00  0.00     0.000 A 
HETATM   30  C19 UNL     1      29.115   0.747  54.202  1.00  0.00     0.002 A 
HETATM   31  C20 UNL     1      27.779   1.057  53.974  1.00  0.00     0.029 A 
ENDBRANCH  24  26
ENDBRANCH   8  24
TORSDOF 6
ENDMDL
MODEL 9
REMARK VINA RESULT:      -8.3      3.597      7.071
REMARK  6 active torsions:
REMARK  status: ('A' for Active; 'I' for Inactive)
REMARK    1  A    between atoms: C6_7  and  O1_8 
REMARK    2  A    between atoms: O1_8  and  C7_9 
REMARK    3  A    between atoms: C7_9  and  C8_10 
REMARK       I    between atoms: C8_10  and  N1_12 
REMARK    4  A    between atoms: N1_12  and  C9_13 
REMARK    5  A    between atoms: C14_20  and  N4_21 
REMARK    6  A    between atoms: N4_21  and  C15_22 
ROOT
HETATM    1  C9  UNL     1      23.648   3.829  51.739  1.00  0.00     0.035 A 
HETATM    2  C10 UNL     1      23.295   5.170  51.732  1.00  0.00     0.032 A 
HETATM    3  C11 UNL     1      22.057   5.611  51.307  1.00  0.00     0.035 A 
HETATM    4  C12 UNL     1      21.113   4.689  50.865  1.00  0.00     0.072 A 
HETATM    5  N2  UNL     1      19.887   5.070  50.440  1.00  0.00    -0.241 NA
HETATM    6  C13 UNL     1      19.039   4.087  50.031  1.00  0.00     0.236 A 
HETATM    7  N3  UNL     1      19.398   2.788  50.043  1.00  0.00    -0.224 NA
HETATM    8  C14 UNL     1      20.619   2.384  50.464  1.00  0.00     0.142 A 
HETATM    9  C21 UNL     1      21.499   3.365  50.887  1.00  0.00     0.041 A 
HETATM   10  C22 UNL     1      22.728   2.898  51.305  1.00  0.00     0.047 A 
ENDROOT
BRANCH   1  11
HETATM   11  N1  UNL     1      24.959   3.602  52.211  1.00  0.00    -0.325 N 
HETATM   12  C8  UNL     1      25.272   2.543  53.121  1.00  0.00     0.246 C 
HETATM   13  O2  UNL     1      24.316   1.801  53.498  1.00  0.00    -0.271 OA
HETATM   14  H9  UNL     1      25.705   4.268  51.848  1.00  0.00     0.169 HD
BRANCH  12  15
HETATM   15  C7  UNL     1      26.714   2.456  53.511  1.00  0.00     0.278 C 
BRANCH  15  16
HETATM   16  O1  UNL     1      27.013   1.361  54.322  1.00  0.00    -0.345 OA
BRANCH  16  17
HETATM   17  C6  UNL     1      28.079   0.524  53.998  1.00  0.00     0.057 A 
HETATM   18  C2  UNL     1      27.715  -0.872  53.638  1.00  0.00     0.100 A 
HETATM   19  C1  UNL     1      26.828  -0.844  52.410  1.00  0.00     0.024 C 
HETATM   20  C3  UNL     1      29.021  -1.519  53.348  1.00  0.00     0.104 A 
HETATM   21  F1  UNL     1      29.180  -2.818  52.971  1.00  0.00    -0.210 F 
HETATM   22  C4  UNL     1      29.985  -0.628  53.515  1.00  0.00     0.041 A 
HETATM   23  C5  UNL     1      29.389   0.658  53.925  1.00  0.00     0.036 A 
ENDBRANCH  16  17
ENDBRANCH  15  16
ENDBRANCH  12  15
ENDBRANCH   1  11
BRANCH   8  24
HETATM   24  N4  UNL     1      20.899   0.988  50.439  1.00  0.00    -0.340 N 
HETATM   25  H13 UNL     1      21.223   0.467  49.570  1.00  0.00     0.167 HD
BRANCH  24  26
HETATM   26  C15 UNL     1      20.735   0.252  51.646  1.00  0.00     0.033 A 
HETATM   27  C16 UNL     1      21.846  -0.254  52.286  1.00  0.00     0.029 A 
HETATM   28  C17 UNL     1      21.767  -0.980  53.463  1.00  0.00     0.002 A 
HETATM   29  C18 UNL     1      20.506  -1.174  53.971  1.00  0.00     0.000 A 
HETATM   30  C19 UNL     1      19.373  -0.686  53.363  1.00  0.00     0.002 A 
HETATM   31  C20 UNL     1      19.474   0.040  52.183  1.00  0.00     0.029 A 
ENDBRANCH  24  26
ENDBRANCH   8  24
TORSDOF 6
ENDMDL
