MODEL 1
REMARK VINA RESULT:      -9.4      0.000      0.000
REMARK  5 active torsions:
REMARK  status: ('A' for Active; 'I' for Inactive)
REMARK    1  A    between atoms: C4_6  and  N3_7 
REMARK    2  A    between atoms: N3_7  and  C5_8 
REMARK    3  A    between atoms: C8_11  and  O1_12 
REMARK    4  A    between atoms: O1_12  and  C9_13 
REMARK    5  A    between atoms: C9_13  and  C10_14 
ROOT
HETATM    1  C5  UNL     1      23.328   3.459  52.057  1.00  0.00     0.033 A 
HETATM    2  C6  UNL     1      23.921   2.954  53.219  1.00  0.00     0.032 A 
HETATM    3  C7  UNL     1      25.236   2.539  53.176  1.00  0.00     0.041 A 
HETATM    4  C8  UNL     1      26.009   2.595  52.043  1.00  0.00     0.091 A 
HETATM    5  C16 UNL     1      25.445   3.090  50.888  1.00  0.00     0.069 A 
HETATM    6 CL1  UNL     1      26.404   3.176  49.420  1.00  0.00    -0.081 Cl
HETATM    7  C17 UNL     1      24.127   3.504  50.934  1.00  0.00     0.056 A 
ENDROOT
BRANCH   1   8
HETATM    8  N3  UNL     1      21.965   3.910  52.025  1.00  0.00    -0.346 N 
HETATM    9  H6  UNL     1      21.835   4.959  52.042  1.00  0.00     0.164 HD
BRANCH   8  10
HETATM   10  C4  UNL     1      20.821   2.914  51.970  1.00  0.00     0.353 C 
HETATM   11  N2  UNL     1      19.626   3.795  51.972  1.00  0.00    -0.232 NA
HETATM   12  C3  UNL     1      18.491   3.444  51.480  1.00  0.00     0.232 C 
HETATM   13  N1  UNL     1      18.927   2.138  51.077  1.00  0.00    -0.247 NA
HETATM   14  C2  UNL     1      18.165   1.105  51.360  1.00  0.00     0.032 C 
HETATM   15  C1  UNL     1      19.217   0.263  50.690  1.00  0.00     0.070 C 
HETATM   16  C22 UNL     1      17.228  -0.023  51.644  1.00  0.00     0.027 C 
HETATM   17  C21 UNL     1      17.799  -0.866  52.529  1.00  0.00     0.002 C 
HETATM   18  C20 UNL     1      19.032  -0.908  53.266  1.00  0.00    -0.002 C 
HETATM   19  C19 UNL     1      20.064  -0.121  53.424  1.00  0.00    -0.001 C 
HETATM   20  C18 UNL     1      21.092   0.944  53.425  1.00  0.00     0.200 C 
HETATM   21  O2  UNL     1      20.953   1.997  52.779  1.00  0.00    -0.344 OA
ENDBRANCH   8  10
ENDBRANCH   1   8
BRANCH   4  22
HETATM   22  O1  UNL     1      27.338   2.174  52.011  1.00  0.00    -0.345 OA
BRANCH  22  23
HETATM   23  C9  UNL     1      28.106   1.959  53.166  1.00  0.00     0.214 C 
BRANCH  23  24
HETATM   24  C10 UNL     1      28.447   0.496  53.198  1.00  0.00    -0.031 A 
HETATM   25  C11 UNL     1      29.689   0.094  53.650  1.00  0.00     0.009 A 
HETATM   26  C12 UNL     1      30.026  -1.237  53.689  1.00  0.00     0.004 A 
HETATM   27  C13 UNL     1      29.115  -2.204  53.269  1.00  0.00     0.042 A 
HETATM   28  C14 UNL     1      27.874  -1.786  52.817  1.00  0.00     0.117 A 
HETATM   29  F1  UNL     1      26.935  -2.675  52.393  1.00  0.00    -0.206 F 
HETATM   30  C15 UNL     1      27.552  -0.465  52.785  1.00  0.00     0.051 A 
ENDBRANCH  23  24
ENDBRANCH  22  23
ENDBRANCH   4  22
TORSDOF 5
ENDMDL
MODEL 2
REMARK VINA RESULT:      -9.1      2.971      8.731
REMARK  5 active torsions:
REMARK  status: ('A' for Active; 'I' for Inactive)
REMARK    1  A    between atoms: C4_6  and  N3_7 
REMARK    2  A    between atoms: N3_7  and  C5_8 
REMARK    3  A    between atoms: C8_11  and  O1_12 
REMARK    4  A    between atoms: O1_12  and  C9_13 
REMARK    5  A    between atoms: C9_13  and  C10_14 
ROOT
HETATM    1  C5  UNL     1      23.864   1.977  52.249  1.00  0.00     0.033 A 
HETATM    2  C6  UNL     1      22.994   1.335  53.138  1.00  0.00     0.032 A 
HETATM    3  C7  UNL     1      21.825   0.787  52.655  1.00  0.00     0.041 A 
HETATM    4  C8  UNL     1      21.459   0.833  51.333  1.00  0.00     0.091 A 
HETATM    5  C16 UNL     1      22.301   1.459  50.440  1.00  0.00     0.069 A 
HETATM    6 CL1  UNL     1      21.864   1.537  48.742  1.00  0.00    -0.081 Cl
HETATM    7  C17 UNL     1      23.472   2.008  50.928  1.00  0.00     0.056 A 
ENDROOT
BRANCH   1   8
HETATM    8  N3  UNL     1      25.099   2.570  52.678  1.00  0.00    -0.346 N 
HETATM    9  H6  UNL     1      25.082   3.621  52.788  1.00  0.00     0.164 HD
BRANCH   8  10
HETATM   10  C4  UNL     1      26.321   1.709  52.942  1.00  0.00     0.353 C 
HETATM   11  N2  UNL     1      27.429   2.557  52.434  1.00  0.00    -0.232 NA
HETATM   12  C3  UNL     1      28.641   2.459  52.854  1.00  0.00     0.232 C 
HETATM   13  N1  UNL     1      28.368   1.398  53.780  1.00  0.00    -0.247 NA
HETATM   14  C2  UNL     1      29.175   0.360  53.804  1.00  0.00     0.032 C 
HETATM   15  C1  UNL     1      28.284  -0.189  54.886  1.00  0.00     0.070 C 
HETATM   16  C22 UNL     1      30.161  -0.760  53.837  1.00  0.00     0.027 C 
HETATM   17  C21 UNL     1      29.560  -1.897  53.430  1.00  0.00     0.002 C 
HETATM   18  C20 UNL     1      28.256  -2.259  52.948  1.00  0.00    -0.002 C 
HETATM   19  C19 UNL     1      27.150  -1.628  52.654  1.00  0.00    -0.001 C 
HETATM   20  C18 UNL     1      26.043  -0.678  52.397  1.00  0.00     0.200 C 
HETATM   21  O2  UNL     1      26.170   0.547  52.568  1.00  0.00    -0.344 OA
ENDBRANCH   8  10
ENDBRANCH   1   8
BRANCH   4  22
HETATM   22  O1  UNL     1      20.274   0.274  50.855  1.00  0.00    -0.345 OA
BRANCH  22  23
HETATM   23  C9  UNL     1      19.030   0.919  50.937  1.00  0.00     0.214 C 
BRANCH  23  24
HETATM   24  C10 UNL     1      18.057  -0.079  51.497  1.00  0.00    -0.031 A 
HETATM   25  C11 UNL     1      16.822  -0.238  50.898  1.00  0.00     0.009 A 
HETATM   26  C12 UNL     1      15.914  -1.144  51.390  1.00  0.00     0.004 A 
HETATM   27  C13 UNL     1      16.228  -1.916  52.505  1.00  0.00     0.042 A 
HETATM   28  C14 UNL     1      17.468  -1.745  53.096  1.00  0.00     0.117 A 
HETATM   29  F1  UNL     1      17.843  -2.466  54.188  1.00  0.00    -0.206 F 
HETATM   30  C15 UNL     1      18.360  -0.845  52.599  1.00  0.00     0.051 A 
ENDBRANCH  23  24
ENDBRANCH  22  23
ENDBRANCH   4  22
TORSDOF 5
ENDMDL
MODEL 3
REMARK VINA RESULT:      -9.1      3.424      9.070
REMARK  5 active torsions:
REMARK  status: ('A' for Active; 'I' for Inactive)
REMARK    1  A    between atoms: C4_6  and  N3_7 
REMARK    2  A    between atoms: N3_7  and  C5_8 
REMARK    3  A    between atoms: C8_11  and  O1_12 
REMARK    4  A    between atoms: O1_12  and  C9_13 
REMARK    5  A    between atoms: C9_13  and  C10_14 
ROOT
HETATM    1  C5  UNL     1      23.567   1.334  52.275  1.00  0.00     0.033 A 
HETATM    2  C6  UNL     1      22.707   1.291  51.172  1.00  0.00     0.032 A 
HETATM    3  C7  UNL     1      21.528   0.581  51.268  1.00  0.00     0.041 A 
HETATM    4  C8  UNL     1      21.143  -0.094  52.399  1.00  0.00     0.091 A 
HETATM    5  C16 UNL     1      21.974  -0.064  53.497  1.00  0.00     0.069 A 
HETATM    6 CL1  UNL     1      21.513  -0.917  54.959  1.00  0.00    -0.081 Cl
HETATM    7  C17 UNL     1      23.155   0.647  53.397  1.00  0.00     0.056 A 
ENDROOT
BRANCH   1   8
HETATM    8  N3  UNL     1      24.810   2.053  52.251  1.00  0.00    -0.346 N 
HETATM    9  H6  UNL     1      24.743   3.063  51.950  1.00  0.00     0.164 HD
BRANCH   8  10
HETATM   10  C4  UNL     1      26.108   1.367  52.640  1.00  0.00     0.353 C 
HETATM   11  N2  UNL     1      27.135   2.323  52.156  1.00  0.00    -0.232 NA
HETATM   12  C3  UNL     1      28.318   2.400  52.656  1.00  0.00     0.232 C 
HETATM   13  N1  UNL     1      28.114   1.359  53.622  1.00  0.00    -0.247 NA
HETATM   14  C2  UNL     1      29.038   0.434  53.755  1.00  0.00     0.032 C 
HETATM   15  C1  UNL     1      28.150  -0.171  54.808  1.00  0.00     0.070 C 
HETATM   16  C22 UNL     1      30.151  -0.549  53.913  1.00  0.00     0.027 C 
HETATM   17  C21 UNL     1      29.725  -1.771  53.534  1.00  0.00     0.002 C 
HETATM   18  C20 UNL     1      28.511  -2.319  52.993  1.00  0.00    -0.002 C 
HETATM   19  C19 UNL     1      27.359  -1.848  52.594  1.00  0.00    -0.001 C 
HETATM   20  C18 UNL     1      26.165  -1.059  52.214  1.00  0.00     0.200 C 
HETATM   21  O2  UNL     1      26.127   0.178  52.323  1.00  0.00    -0.344 OA
ENDBRANCH   8  10
ENDBRANCH   1   8
BRANCH   4  22
HETATM   22  O1  UNL     1      19.948  -0.808  52.484  1.00  0.00    -0.345 OA
BRANCH  22  23
HETATM   23  C9  UNL     1      18.743  -0.244  52.931  1.00  0.00     0.214 C 
BRANCH  23  24
HETATM   24  C10 UNL     1      17.709  -1.332  52.891  1.00  0.00    -0.031 A 
HETATM   25  C11 UNL     1      16.526  -1.125  52.208  1.00  0.00     0.009 A 
HETATM   26  C12 UNL     1      15.564  -2.104  52.155  1.00  0.00     0.004 A 
HETATM   27  C13 UNL     1      15.770  -3.325  52.794  1.00  0.00     0.042 A 
HETATM   28  C14 UNL     1      16.960  -3.518  53.475  1.00  0.00     0.117 A 
HETATM   29  F1  UNL     1      17.229  -4.686  54.120  1.00  0.00    -0.206 F 
HETATM   30  C15 UNL     1      17.906  -2.541  53.519  1.00  0.00     0.051 A 
ENDBRANCH  23  24
ENDBRANCH  22  23
ENDBRANCH   4  22
TORSDOF 5
ENDMDL
MODEL 4
REMARK VINA RESULT:      -8.9      6.533     10.861
REMARK  5 active torsions:
REMARK  status: ('A' for Active; 'I' for Inactive)
REMARK    1  A    between atoms: C4_6  and  N3_7 
REMARK    2  A    between atoms: N3_7  and  C5_8 
REMARK    3  A    between atoms: C8_11  and  O1_12 
REMARK    4  A    between atoms: O1_12  and  C9_13 
REMARK    5  A    between atoms: C9_13  and  C10_14 
ROOT
HETATM    1  C5  UNL     1      28.300   6.708  48.020  1.00  0.00     0.033 A 
HETATM    2  C6  UNL     1      27.149   7.504  48.048  1.00  0.00     0.032 A 
HETATM    3  C7  UNL     1      25.962   6.951  48.480  1.00  0.00     0.041 A 
HETATM    4  C8  UNL     1      25.841   5.648  48.892  1.00  0.00     0.091 A 
HETATM    5  C16 UNL     1      26.961   4.847  48.873  1.00  0.00     0.069 A 
HETATM    6 CL1  UNL     1      26.842   3.174  49.391  1.00  0.00    -0.081 Cl
HETATM    7  C17 UNL     1      28.150   5.403  48.439  1.00  0.00     0.056 A 
ENDROOT
BRANCH   1   8
HETATM    8  N3  UNL     1      29.572   7.213  47.585  1.00  0.00    -0.346 N 
HETATM    9  H6  UNL     1      29.582   8.231  47.302  1.00  0.00     0.164 HD
BRANCH   8  10
HETATM   10  C4  UNL     1      30.791   6.309  47.547  1.00  0.00     0.353 C 
HETATM   11  N2  UNL     1      31.361   6.481  48.908  1.00  0.00    -0.232 NA
HETATM   12  C3  UNL     1      32.096   5.594  49.481  1.00  0.00     0.232 C 
HETATM   13  N1  UNL     1      32.052   4.667  48.387  1.00  0.00    -0.247 NA
HETATM   14  C2  UNL     1      33.174   4.111  47.988  1.00  0.00     0.032 C 
HETATM   15  C1  UNL     1      32.344   3.398  46.954  1.00  0.00     0.070 C 
HETATM   16  C22 UNL     1      34.465   3.457  47.622  1.00  0.00     0.027 C 
HETATM   17  C21 UNL     1      34.822   3.837  46.378  1.00  0.00     0.002 C 
HETATM   18  C20 UNL     1      34.293   4.723  45.378  1.00  0.00    -0.002 C 
HETATM   19  C19 UNL     1      33.294   5.561  45.294  1.00  0.00    -0.001 C 
HETATM   20  C18 UNL     1      32.108   6.430  45.469  1.00  0.00     0.200 C 
HETATM   21  O2  UNL     1      31.469   6.471  46.534  1.00  0.00    -0.344 OA
ENDBRANCH   8  10
ENDBRANCH   1   8
BRANCH   4  22
HETATM   22  O1  UNL     1      24.634   5.099  49.327  1.00  0.00    -0.345 OA
BRANCH  22  23
HETATM   23  C9  UNL     1      24.152   5.240  50.638  1.00  0.00     0.214 C 
BRANCH  23  24
HETATM   24  C10 UNL     1      23.787   3.865  51.118  1.00  0.00    -0.031 A 
HETATM   25  C11 UNL     1      24.121   3.479  52.402  1.00  0.00     0.009 A 
HETATM   26  C12 UNL     1      23.799   2.227  52.866  1.00  0.00     0.004 A 
HETATM   27  C13 UNL     1      23.128   1.325  52.044  1.00  0.00     0.042 A 
HETATM   28  C14 UNL     1      22.800   1.725  50.759  1.00  0.00     0.117 A 
HETATM   29  F1  UNL     1      22.144   0.897  49.901  1.00  0.00    -0.206 F 
HETATM   30  C15 UNL     1      23.124   2.968  50.311  1.00  0.00     0.051 A 
ENDBRANCH  23  24
ENDBRANCH  22  23
ENDBRANCH   4  22
TORSDOF 5
ENDMDL
MODEL 5
REMARK VINA RESULT:      -8.8      6.760     10.993
REMARK  5 active torsions:
REMARK  status: ('A' for Active; 'I' for Inactive)
REMARK    1  A    between atoms: C4_6  and  N3_7 
REMARK    2  A    between atoms: N3_7  and  C5_8 
REMARK    3  A    between atoms: C8_11  and  O1_12 
REMARK    4  A    between atoms: O1_12  and  C9_13 
REMARK    5  A    between atoms: C9_13  and  C10_14 
ROOT
HETATM    1  C5  UNL     1      28.791   6.817  48.087  1.00  0.00     0.033 A 
HETATM    2  C6  UNL     1      28.424   5.472  48.207  1.00  0.00     0.032 A 
HETATM    3  C7  UNL     1      27.221   5.156  48.803  1.00  0.00     0.041 A 
HETATM    4  C8  UNL     1      26.349   6.097  49.290  1.00  0.00     0.091 A 
HETATM    5  C16 UNL     1      26.690   7.427  49.180  1.00  0.00     0.069 A 
HETATM    6 CL1  UNL     1      25.599   8.658  49.793  1.00  0.00    -0.081 Cl
HETATM    7  C17 UNL     1      27.897   7.741  48.584  1.00  0.00     0.056 A 
ENDROOT
BRANCH   1   8
HETATM    8  N3  UNL     1      30.027   7.224  47.478  1.00  0.00    -0.346 N 
HETATM    9  H6  UNL     1      30.047   8.216  47.115  1.00  0.00     0.164 HD
BRANCH   8  10
HETATM   10  C4  UNL     1      31.197   6.261  47.385  1.00  0.00     0.353 C 
HETATM   11  N2  UNL     1      31.839   6.404  48.716  1.00  0.00    -0.232 NA
HETATM   12  C3  UNL     1      32.556   5.483  49.256  1.00  0.00     0.232 C 
HETATM   13  N1  UNL     1      32.415   4.559  48.167  1.00  0.00    -0.247 NA
HETATM   14  C2  UNL     1      33.488   3.949  47.716  1.00  0.00     0.032 C 
HETATM   15  C1  UNL     1      32.576   3.277  46.725  1.00  0.00     0.070 C 
HETATM   16  C22 UNL     1      34.727   3.232  47.291  1.00  0.00     0.027 C 
HETATM   17  C21 UNL     1      35.042   3.594  46.030  1.00  0.00     0.002 C 
HETATM   18  C20 UNL     1      34.510   4.506  45.055  1.00  0.00    -0.002 C 
HETATM   19  C19 UNL     1      33.550   5.392  45.017  1.00  0.00    -0.001 C 
HETATM   20  C18 UNL     1      32.418   6.318  45.246  1.00  0.00     0.200 C 
HETATM   21  O2  UNL     1      31.833   6.390  46.340  1.00  0.00    -0.344 OA
ENDBRANCH   8  10
ENDBRANCH   1   8
BRANCH   4  22
HETATM   22  O1  UNL     1      25.134   5.766  49.890  1.00  0.00    -0.345 OA
BRANCH  22  23
HETATM   23  C9  UNL     1      24.450   4.567  49.635  1.00  0.00     0.214 C 
BRANCH  23  24
HETATM   24  C10 UNL     1      24.681   3.672  50.818  1.00  0.00    -0.031 A 
HETATM   25  C11 UNL     1      23.974   3.887  51.985  1.00  0.00     0.009 A 
HETATM   26  C12 UNL     1      24.167   3.084  53.083  1.00  0.00     0.004 A 
HETATM   27  C13 UNL     1      25.084   2.036  53.032  1.00  0.00     0.042 A 
HETATM   28  C14 UNL     1      25.786   1.832  51.856  1.00  0.00     0.117 A 
HETATM   29  F1  UNL     1      26.696   0.828  51.735  1.00  0.00    -0.206 F 
HETATM   30  C15 UNL     1      25.585   2.635  50.776  1.00  0.00     0.051 A 
ENDBRANCH  23  24
ENDBRANCH  22  23
ENDBRANCH   4  22
TORSDOF 5
ENDMDL
MODEL 6
REMARK VINA RESULT:      -8.7      5.534      9.121
REMARK  5 active torsions:
REMARK  status: ('A' for Active; 'I' for Inactive)
REMARK    1  A    between atoms: C4_6  and  N3_7 
REMARK    2  A    between atoms: N3_7  and  C5_8 
REMARK    3  A    between atoms: C8_11  and  O1_12 
REMARK    4  A    between atoms: O1_12  and  C9_13 
REMARK    5  A    between atoms: C9_13  and  C10_14 
ROOT
HETATM    1  C5  UNL     1      25.968   5.502  49.106  1.00  0.00     0.033 A 
HETATM    2  C6  UNL     1      26.897   4.459  49.032  1.00  0.00     0.032 A 
HETATM    3  C7  UNL     1      26.762   3.379  49.880  1.00  0.00     0.041 A 
HETATM    4  C8  UNL     1      25.755   3.266  50.805  1.00  0.00     0.091 A 
HETATM    5  C16 UNL     1      24.829   4.282  50.894  1.00  0.00     0.069 A 
HETATM    6 CL1  UNL     1      23.528   4.171  52.067  1.00  0.00    -0.081 Cl
HETATM    7  C17 UNL     1      24.967   5.363  50.044  1.00  0.00     0.056 A 
ENDROOT
BRANCH   1   8
HETATM    8  N3  UNL     1      26.041   6.657  48.256  1.00  0.00    -0.346 N 
HETATM    9  H6  UNL     1      25.257   6.754  47.554  1.00  0.00     0.164 HD
BRANCH   8  10
HETATM   10  C4  UNL     1      27.186   7.646  48.392  1.00  0.00     0.353 C 
HETATM   11  N2  UNL     1      26.623   8.666  49.312  1.00  0.00    -0.232 NA
HETATM   12  C3  UNL     1      27.351   9.417  50.062  1.00  0.00     0.232 C 
HETATM   13  N1  UNL     1      28.599   8.867  49.617  1.00  0.00    -0.247 NA
HETATM   14  C2  UNL     1      29.573   9.691  49.300  1.00  0.00     0.032 C 
HETATM   15  C1  UNL     1      30.383   8.463  48.981  1.00  0.00     0.070 C 
HETATM   16  C22 UNL     1      30.664  10.670  49.019  1.00  0.00     0.027 C 
HETATM   17  C21 UNL     1      30.975  10.629  47.707  1.00  0.00     0.002 C 
HETATM   18  C20 UNL     1      30.490   9.924  46.554  1.00  0.00    -0.002 C 
HETATM   19  C19 UNL     1      29.517   9.089  46.298  1.00  0.00    -0.001 C 
HETATM   20  C18 UNL     1      28.354   8.173  46.288  1.00  0.00     0.200 C 
HETATM   21  O2  UNL     1      27.678   7.951  47.306  1.00  0.00    -0.344 OA
ENDBRANCH   8  10
ENDBRANCH   1   8
BRANCH   4  22
HETATM   22  O1  UNL     1      25.629   2.169  51.657  1.00  0.00    -0.345 OA
BRANCH  22  23
HETATM   23  C9  UNL     1      26.305   2.064  52.883  1.00  0.00     0.214 C 
BRANCH  23  24
HETATM   24  C10 UNL     1      26.938   0.702  52.917  1.00  0.00    -0.031 A 
HETATM   25  C11 UNL     1      26.226  -0.393  52.468  1.00  0.00     0.009 A 
HETATM   26  C12 UNL     1      26.781  -1.649  52.488  1.00  0.00     0.004 A 
HETATM   27  C13 UNL     1      28.076  -1.836  52.965  1.00  0.00     0.042 A 
HETATM   28  C14 UNL     1      28.778  -0.730  53.412  1.00  0.00     0.117 A 
HETATM   29  F1  UNL     1      30.048  -0.837  53.891  1.00  0.00    -0.206 F 
HETATM   30  C15 UNL     1      28.217   0.510  53.386  1.00  0.00     0.051 A 
ENDBRANCH  23  24
ENDBRANCH  22  23
ENDBRANCH   4  22
TORSDOF 5
ENDMDL
MODEL 7
REMARK VINA RESULT:      -8.7      4.245      8.218
REMARK  5 active torsions:
REMARK  status: ('A' for Active; 'I' for Inactive)
REMARK    1  A    between atoms: C4_6  and  N3_7 
REMARK    2  A    between atoms: N3_7  and  C5_8 
REMARK    3  A    between atoms: C8_11  and  O1_12 
REMARK    4  A    between atoms: O1_12  and  C9_13 
REMARK    5  A    between atoms: C9_13  and  C10_14 
ROOT
HETATM    1  C5  UNL     1      23.864   2.306  51.884  1.00  0.00     0.033 A 
HETATM    2  C6  UNL     1      23.751   3.386  52.767  1.00  0.00     0.032 A 
HETATM    3  C7  UNL     1      23.354   4.613  52.278  1.00  0.00     0.041 A 
HETATM    4  C8  UNL     1      23.058   4.841  50.957  1.00  0.00     0.091 A 
HETATM    5  C16 UNL     1      23.163   3.792  50.071  1.00  0.00     0.069 A 
HETATM    6 CL1  UNL     1      22.793   4.047  48.374  1.00  0.00    -0.081 Cl
HETATM    7  C17 UNL     1      23.561   2.563  50.563  1.00  0.00     0.056 A 
ENDROOT
BRANCH   1   8
HETATM    8  N3  UNL     1      24.271   0.999  52.318  1.00  0.00    -0.346 N 
HETATM    9  H6  UNL     1      23.498   0.280  52.373  1.00  0.00     0.164 HD
BRANCH   8  10
HETATM   10  C4  UNL     1      25.721   0.715  52.664  1.00  0.00     0.353 C 
HETATM   11  N2  UNL     1      26.438   1.822  51.982  1.00  0.00    -0.232 NA
HETATM   12  C3  UNL     1      27.588   2.256  52.361  1.00  0.00     0.232 C 
HETATM   13  N1  UNL     1      27.715   1.337  53.455  1.00  0.00    -0.247 NA
HETATM   14  C2  UNL     1      28.853   0.696  53.610  1.00  0.00     0.032 C 
HETATM   15  C1  UNL     1      28.213   0.038  54.802  1.00  0.00     0.070 C 
HETATM   16  C22 UNL     1      30.188   0.050  53.779  1.00  0.00     0.027 C 
HETATM   17  C21 UNL     1      30.069  -1.279  53.584  1.00  0.00     0.002 C 
HETATM   18  C20 UNL     1      29.008  -2.178  53.222  1.00  0.00    -0.002 C 
HETATM   19  C19 UNL     1      27.752  -2.065  52.878  1.00  0.00    -0.001 C 
HETATM   20  C18 UNL     1      26.375  -1.656  52.519  1.00  0.00     0.200 C 
HETATM   21  O2  UNL     1      26.027  -0.463  52.487  1.00  0.00    -0.344 OA
ENDBRANCH   8  10
ENDBRANCH   1   8
BRANCH   4  22
HETATM   22  O1  UNL     1      22.657   6.086  50.474  1.00  0.00    -0.345 OA
BRANCH  22  23
HETATM   23  C9  UNL     1      23.311   7.286  50.800  1.00  0.00     0.214 C 
BRANCH  23  24
HETATM   24  C10 UNL     1      24.406   7.474  49.789  1.00  0.00    -0.031 A 
HETATM   25  C11 UNL     1      24.129   7.316  48.445  1.00  0.00     0.009 A 
HETATM   26  C12 UNL     1      25.112   7.483  47.501  1.00  0.00     0.004 A 
HETATM   27  C13 UNL     1      26.408   7.814  47.888  1.00  0.00     0.042 A 
HETATM   28  C14 UNL     1      26.672   7.968  49.239  1.00  0.00     0.117 A 
HETATM   29  F1  UNL     1      27.914   8.292  49.690  1.00  0.00    -0.206 F 
HETATM   30  C15 UNL     1      25.689   7.802  50.165  1.00  0.00     0.051 A 
ENDBRANCH  23  24
ENDBRANCH  22  23
ENDBRANCH   4  22
TORSDOF 5
ENDMDL
MODEL 8
REMARK VINA RESULT:      -8.7      4.598      7.876
REMARK  5 active torsions:
REMARK  status: ('A' for Active; 'I' for Inactive)
REMARK    1  A    between atoms: C4_6  and  N3_7 
REMARK    2  A    between atoms: N3_7  and  C5_8 
REMARK    3  A    between atoms: C8_11  and  O1_12 
REMARK    4  A    between atoms: O1_12  and  C9_13 
REMARK    5  A    between atoms: C9_13  and  C10_14 
ROOT
HETATM    1  C5  UNL     1      25.140   4.518  49.635  1.00  0.00     0.033 A 
HETATM    2  C6  UNL     1      26.362   3.838  49.698  1.00  0.00     0.032 A 
HETATM    3  C7  UNL     1      26.548   2.881  50.674  1.00  0.00     0.041 A 
HETATM    4  C8  UNL     1      25.590   2.551  51.599  1.00  0.00     0.091 A 
HETATM    5  C16 UNL     1      24.379   3.207  51.555  1.00  0.00     0.069 A 
HETATM    6 CL1  UNL     1      23.132   2.810  52.724  1.00  0.00    -0.081 Cl
HETATM    7  C17 UNL     1      24.196   4.166  50.577  1.00  0.00     0.056 A 
ENDROOT
BRANCH   1   8
HETATM    8  N3  UNL     1      24.872   5.526  48.647  1.00  0.00    -0.346 N 
HETATM    9  H6  UNL     1      24.140   5.272  47.929  1.00  0.00     0.164 HD
BRANCH   8  10
HETATM   10  C4  UNL     1      25.615   6.850  48.672  1.00  0.00     0.353 C 
HETATM   11  N2  UNL     1      24.649   7.773  48.024  1.00  0.00    -0.232 NA
HETATM   12  C3  UNL     1      24.636   9.042  48.235  1.00  0.00     0.232 C 
HETATM   13  N1  UNL     1      25.740   9.028  49.150  1.00  0.00    -0.247 NA
HETATM   14  C2  UNL     1      26.693   9.921  49.000  1.00  0.00     0.032 C 
HETATM   15  C1  UNL     1      27.353   9.280  50.191  1.00  0.00     0.070 C 
HETATM   16  C22 UNL     1      27.710  11.000  48.826  1.00  0.00     0.027 C 
HETATM   17  C21 UNL     1      28.892  10.449  48.478  1.00  0.00     0.002 C 
HETATM   18  C20 UNL     1      29.370   9.122  48.204  1.00  0.00    -0.002 C 
HETATM   19  C19 UNL     1      28.845   7.928  48.121  1.00  0.00    -0.001 C 
HETATM   20  C18 UNL     1      28.003   6.710  48.087  1.00  0.00     0.200 C 
HETATM   21  O2  UNL     1      26.777   6.748  48.283  1.00  0.00    -0.344 OA
ENDBRANCH   8  10
ENDBRANCH   1   8
BRANCH   4  22
HETATM   22  O1  UNL     1      25.789   1.581  52.582  1.00  0.00    -0.345 OA
BRANCH  22  23
HETATM   23  C9  UNL     1      25.967   0.218  52.295  1.00  0.00     0.214 C 
BRANCH  23  24
HETATM   24  C10 UNL     1      27.327  -0.161  52.806  1.00  0.00    -0.031 A 
HETATM   25  C11 UNL     1      28.211   0.827  53.194  1.00  0.00     0.009 A 
HETATM   26  C12 UNL     1      29.461   0.507  53.664  1.00  0.00     0.004 A 
HETATM   27  C13 UNL     1      29.856  -0.826  53.757  1.00  0.00     0.042 A 
HETATM   28  C14 UNL     1      28.960  -1.806  53.364  1.00  0.00     0.117 A 
HETATM   29  F1  UNL     1      29.277  -3.128  53.428  1.00  0.00    -0.206 F 
HETATM   30  C15 UNL     1      27.724  -1.476  52.900  1.00  0.00     0.051 A 
ENDBRANCH  23  24
ENDBRANCH  22  23
ENDBRANCH   4  22
TORSDOF 5
ENDMDL
MODEL 9
REMARK VINA RESULT:      -8.6      3.426      4.888
REMARK  5 active torsions:
REMARK  status: ('A' for Active; 'I' for Inactive)
REMARK    1  A    between atoms: C4_6  and  N3_7 
REMARK    2  A    between atoms: N3_7  and  C5_8 
REMARK    3  A    between atoms: C8_11  and  O1_12 
REMARK    4  A    between atoms: O1_12  and  C9_13 
REMARK    5  A    between atoms: C9_13  and  C10_14 
ROOT
HETATM    1  C5  UNL     1      22.138   2.578  52.216  1.00  0.00     0.033 A 
HETATM    2  C6  UNL     1      23.478   2.972  52.299  1.00  0.00     0.032 A 
HETATM    3  C7  UNL     1      24.408   2.087  52.803  1.00  0.00     0.041 A 
HETATM    4  C8  UNL     1      24.091   0.823  53.234  1.00  0.00     0.091 A 
HETATM    5  C16 UNL     1      22.777   0.414  53.160  1.00  0.00     0.069 A 
HETATM    6 CL1  UNL     1      22.336  -1.196  53.703  1.00  0.00    -0.081 Cl
HETATM    7  C17 UNL     1      21.848   1.304  52.655  1.00  0.00     0.056 A 
ENDROOT
BRANCH   1   8
HETATM    8  N3  UNL     1      21.114   3.444  51.701  1.00  0.00    -0.346 N 
HETATM    9  H6  UNL     1      20.293   3.606  52.346  1.00  0.00     0.164 HD
BRANCH   8  10
HETATM   10  C4  UNL     1      21.244   4.061  50.320  1.00  0.00     0.353 C 
HETATM   11  N2  UNL     1      20.126   5.038  50.298  1.00  0.00    -0.232 NA
HETATM   12  C3  UNL     1      20.122   6.086  49.552  1.00  0.00     0.232 C 
HETATM   13  N1  UNL     1      21.401   5.824  48.958  1.00  0.00    -0.247 NA
HETATM   14  C2  UNL     1      21.525   5.936  47.654  1.00  0.00     0.032 C 
HETATM   15  C1  UNL     1      22.963   5.538  47.850  1.00  0.00     0.070 C 
HETATM   16  C22 UNL     1      21.626   6.146  46.180  1.00  0.00     0.027 C 
HETATM   17  C21 UNL     1      21.881   4.967  45.577  1.00  0.00     0.002 C 
HETATM   18  C20 UNL     1      22.029   3.602  46.001  1.00  0.00    -0.002 C 
HETATM   19  C19 UNL     1      21.916   2.946  47.126  1.00  0.00    -0.001 C 
HETATM   20  C18 UNL     1      21.721   2.459  48.511  1.00  0.00     0.200 C 
HETATM   21  O2  UNL     1      21.388   3.217  49.437  1.00  0.00    -0.344 OA
ENDBRANCH   8  10
ENDBRANCH   1   8
BRANCH   4  22
HETATM   22  O1  UNL     1      25.039  -0.065  53.742  1.00  0.00    -0.345 OA
BRANCH  22  23
HETATM   23  C9  UNL     1      25.854  -0.870  52.930  1.00  0.00     0.214 C 
BRANCH  23  24
HETATM   24  C10 UNL     1      27.275  -0.474  53.208  1.00  0.00    -0.031 A 
HETATM   25  C11 UNL     1      28.275  -1.425  53.139  1.00  0.00     0.009 A 
HETATM   26  C12 UNL     1      29.583  -1.089  53.389  1.00  0.00     0.004 A 
HETATM   27  C13 UNL     1      29.920   0.222  53.718  1.00  0.00     0.042 A 
HETATM   28  C14 UNL     1      28.908   1.164  53.785  1.00  0.00     0.117 A 
HETATM   29  F1  UNL     1      29.164   2.463  54.099  1.00  0.00    -0.206 F 
HETATM   30  C15 UNL     1      27.616   0.819  53.534  1.00  0.00     0.051 A 
ENDBRANCH  23  24
ENDBRANCH  22  23
ENDBRANCH   4  22
TORSDOF 5
ENDMDL
