MODEL 1
REMARK VINA RESULT:      -8.2      0.000      0.000
REMARK  4 active torsions:
REMARK  status: ('A' for Active; 'I' for Inactive)
REMARK    1  A    between atoms: C4_4  and  C5_5 
REMARK    2  A    between atoms: N2_9  and  C8_10 
REMARK    3  A    between atoms: C12_16  and  O1_17 
REMARK    4  A    between atoms: C13_18  and  O2_19 
ROOT
HETATM    1  C1  UNL     1      28.018  -2.498  52.756  1.00  0.00     0.017 C 
HETATM    2  C2  UNL     1      28.881  -1.754  53.178  1.00  0.00    -0.089 C 
HETATM    3  C3  UNL     1      29.897  -0.862  53.661  1.00  0.00     0.066 C 
HETATM    4  C4  UNL     1      29.661   0.403  53.887  1.00  0.00     0.041 C 
ENDROOT
BRANCH   4   5
HETATM    5  C5  UNL     1      28.329   0.954  53.650  1.00  0.00     0.073 A 
HETATM    6  N1  UNL     1      28.111   1.682  52.631  1.00  0.00    -0.261 NA
HETATM    7  C6  UNL     1      26.851   2.255  52.324  1.00  0.00     0.230 A 
HETATM    8  C7  UNL     1      26.344   1.744  50.962  1.00  0.00     0.060 C 
HETATM    9  N2  UNL     1      25.771   1.981  53.246  1.00  0.00    -0.226 N 
HETATM   10  N5  UNL     1      26.131   1.186  54.303  1.00  0.00    -0.179 NA
HETATM   11  C17 UNL     1      27.256   0.669  54.581  1.00  0.00     0.170 A 
BRANCH   9  12
HETATM   12  C8  UNL     1      24.547   2.593  52.871  1.00  0.00     0.162 A 
HETATM   13  N3  UNL     1      24.466   3.896  52.560  1.00  0.00    -0.222 NA
HETATM   14  C9  UNL     1      23.343   4.531  52.201  1.00  0.00     0.236 A 
HETATM   15  N4  UNL     1      22.172   3.875  52.124  1.00  0.00    -0.241 NA
HETATM   16  C10 UNL     1      22.151   2.557  52.420  1.00  0.00     0.075 A 
HETATM   17  C11 UNL     1      20.954   1.901  52.339  1.00  0.00     0.072 A 
HETATM   18  C16 UNL     1      23.340   1.959  52.784  1.00  0.00     0.043 A 
HETATM   19  C12 UNL     1      20.874   0.555  52.630  1.00  0.00     0.101 A 
HETATM   20  C13 UNL     1      22.061  -0.085  53.003  1.00  0.00     0.102 A 
HETATM   21  C15 UNL     1      23.232   0.635  53.064  1.00  0.00     0.057 A 
BRANCH  19  22
HETATM   22  O1  UNL     1      19.618  -0.024  52.521  1.00  0.00    -0.358 OA
HETATM   23  H10 UNL     1      19.292  -0.789  53.080  1.00  0.00     0.217 HD
ENDBRANCH  19  22
BRANCH  20  24
HETATM   24  O2  UNL     1      21.908  -1.436  53.281  1.00  0.00    -0.353 OA
HETATM   25  C14 UNL     1      21.757  -1.878  54.616  1.00  0.00     0.210 C 
ENDBRANCH  20  24
ENDBRANCH   9  12
ENDBRANCH   4   5
TORSDOF 4
ENDMDL
MODEL 2
REMARK VINA RESULT:      -8.0      3.258      6.267
REMARK  4 active torsions:
REMARK  status: ('A' for Active; 'I' for Inactive)
REMARK    1  A    between atoms: C4_4  and  C5_5 
REMARK    2  A    between atoms: N2_9  and  C8_10 
REMARK    3  A    between atoms: C12_16  and  O1_17 
REMARK    4  A    between atoms: C13_18  and  O2_19 
ROOT
HETATM    1  C1  UNL     1      27.667   5.176  48.585  1.00  0.00     0.017 C 
HETATM    2  C2  UNL     1      26.707   5.911  48.456  1.00  0.00    -0.089 C 
HETATM    3  C3  UNL     1      25.563   6.763  48.294  1.00  0.00     0.066 C 
HETATM    4  C4  UNL     1      24.386   6.443  48.765  1.00  0.00     0.041 C 
ENDROOT
BRANCH   4   5
HETATM    5  C5  UNL     1      24.202   5.185  49.482  1.00  0.00     0.073 A 
HETATM    6  N1  UNL     1      24.374   5.135  50.741  1.00  0.00    -0.261 NA
HETATM    7  C6  UNL     1      24.216   3.959  51.516  1.00  0.00     0.230 A 
HETATM    8  C7  UNL     1      23.108   4.151  52.569  1.00  0.00     0.060 C 
HETATM    9  N2  UNL     1      23.840   2.757  50.802  1.00  0.00    -0.226 N 
HETATM   10  N5  UNL     1      23.685   2.938  49.452  1.00  0.00    -0.179 NA
HETATM   11  C17 UNL     1      23.824   3.989  48.755  1.00  0.00     0.170 A 
BRANCH   9  12
HETATM   12  C8  UNL     1      23.706   1.624  51.646  1.00  0.00     0.162 A 
HETATM   13  N3  UNL     1      22.525   1.021  51.849  1.00  0.00    -0.222 NA
HETATM   14  C9  UNL     1      22.334  -0.048  52.632  1.00  0.00     0.236 A 
HETATM   15  N4  UNL     1      23.358  -0.611  53.296  1.00  0.00    -0.241 NA
HETATM   16  C10 UNL     1      24.589  -0.074  53.157  1.00  0.00     0.075 A 
HETATM   17  C11 UNL     1      25.622  -0.656  53.837  1.00  0.00     0.072 A 
HETATM   18  C16 UNL     1      24.723   1.027  52.336  1.00  0.00     0.043 A 
HETATM   19  C12 UNL     1      26.901  -0.149  53.732  1.00  0.00     0.101 A 
HETATM   20  C13 UNL     1      27.075   0.968  52.907  1.00  0.00     0.102 A 
HETATM   21  C15 UNL     1      25.991   1.504  52.250  1.00  0.00     0.057 A 
BRANCH  19  22
HETATM   22  O1  UNL     1      27.885  -0.804  54.459  1.00  0.00    -0.358 OA
HETATM   23  H10 UNL     1      28.631  -0.349  54.948  1.00  0.00     0.217 HD
ENDBRANCH  19  22
BRANCH  20  24
HETATM   24  O2  UNL     1      28.384   1.425  52.847  1.00  0.00    -0.353 OA
HETATM   25  C14 UNL     1      28.836   2.417  53.749  1.00  0.00     0.210 C 
ENDBRANCH  20  24
ENDBRANCH   9  12
ENDBRANCH   4   5
TORSDOF 4
ENDMDL
MODEL 3
REMARK VINA RESULT:      -7.9      3.096      5.596
REMARK  4 active torsions:
REMARK  status: ('A' for Active; 'I' for Inactive)
REMARK    1  A    between atoms: C4_4  and  C5_5 
REMARK    2  A    between atoms: N2_9  and  C8_10 
REMARK    3  A    between atoms: C12_16  and  O1_17 
REMARK    4  A    between atoms: C13_18  and  O2_19 
ROOT
HETATM    1  C1  UNL     1      26.521   3.182  50.353  1.00  0.00     0.017 C 
HETATM    2  C2  UNL     1      25.895   4.009  49.719  1.00  0.00    -0.089 C 
HETATM    3  C3  UNL     1      25.147   4.970  48.959  1.00  0.00     0.066 C 
HETATM    4  C4  UNL     1      23.842   4.936  48.888  1.00  0.00     0.041 C 
ENDROOT
BRANCH   4   5
HETATM    5  C5  UNL     1      23.097   3.898  49.595  1.00  0.00     0.073 A 
HETATM    6  N1  UNL     1      22.711   4.091  50.791  1.00  0.00    -0.261 NA
HETATM    7  C6  UNL     1      21.983   3.141  51.551  1.00  0.00     0.230 A 
HETATM    8  C7  UNL     1      20.612   3.712  51.958  1.00  0.00     0.060 C 
HETATM    9  N2  UNL     1      21.682   1.884  50.901  1.00  0.00    -0.226 N 
HETATM   10  N5  UNL     1      22.150   1.797  49.615  1.00  0.00    -0.179 NA
HETATM   11  C17 UNL     1      22.800   2.645  48.931  1.00  0.00     0.170 A 
BRANCH   9  12
HETATM   12  C8  UNL     1      20.956   0.987  51.727  1.00  0.00     0.162 A 
HETATM   13  N3  UNL     1      19.638   0.784  51.575  1.00  0.00    -0.222 NA
HETATM   14  C9  UNL     1      18.899  -0.046  52.322  1.00  0.00     0.236 A 
HETATM   15  N4  UNL     1      19.453  -0.762  53.316  1.00  0.00    -0.241 NA
HETATM   16  C10 UNL     1      20.777  -0.625  53.548  1.00  0.00     0.075 A 
HETATM   17  C11 UNL     1      21.328  -1.358  54.562  1.00  0.00     0.072 A 
HETATM   18  C16 UNL     1      21.486   0.246  52.745  1.00  0.00     0.043 A 
HETATM   19  C12 UNL     1      22.675  -1.257  54.842  1.00  0.00     0.101 A 
HETATM   20  C13 UNL     1      23.426  -0.384  54.048  1.00  0.00     0.102 A 
HETATM   21  C15 UNL     1      22.807   0.324  53.044  1.00  0.00     0.057 A 
BRANCH  19  22
HETATM   22  O1  UNL     1      23.145  -2.038  55.889  1.00  0.00    -0.358 OA
HETATM   23  H10 UNL     1      22.793  -2.008  56.826  1.00  0.00     0.217 HD
ENDBRANCH  19  22
BRANCH  20  24
HETATM   24  O2  UNL     1      24.771  -0.332  54.386  1.00  0.00    -0.353 OA
HETATM   25  C14 UNL     1      25.761  -0.661  53.429  1.00  0.00     0.210 C 
ENDBRANCH  20  24
ENDBRANCH   9  12
ENDBRANCH   4   5
TORSDOF 4
ENDMDL
MODEL 4
REMARK VINA RESULT:      -7.9      1.565      2.312
REMARK  4 active torsions:
REMARK  status: ('A' for Active; 'I' for Inactive)
REMARK    1  A    between atoms: C4_4  and  C5_5 
REMARK    2  A    between atoms: N2_9  and  C8_10 
REMARK    3  A    between atoms: C12_16  and  O1_17 
REMARK    4  A    between atoms: C13_18  and  O2_19 
ROOT
HETATM    1  C1  UNL     1      28.504  -1.263  53.542  1.00  0.00     0.017 C 
HETATM    2  C2  UNL     1      28.878  -0.128  53.766  1.00  0.00    -0.089 C 
HETATM    3  C3  UNL     1      29.315   1.217  54.009  1.00  0.00     0.066 C 
HETATM    4  C4  UNL     1      28.568   2.253  53.732  1.00  0.00     0.041 C 
ENDROOT
BRANCH   4   5
HETATM    5  C5  UNL     1      27.239   2.063  53.157  1.00  0.00     0.073 A 
HETATM    6  N1  UNL     1      26.202   2.366  53.827  1.00  0.00    -0.261 NA
HETATM    7  C6  UNL     1      24.877   2.215  53.347  1.00  0.00     0.230 A 
HETATM    8  C7  UNL     1      24.161   3.579  53.304  1.00  0.00     0.060 C 
HETATM    9  N2  UNL     1      24.728   1.678  52.012  1.00  0.00    -0.226 N 
HETATM   10  N5  UNL     1      25.916   1.391  51.392  1.00  0.00    -0.179 NA
HETATM   11  C17 UNL     1      27.104   1.526  51.817  1.00  0.00     0.170 A 
BRANCH   9  12
HETATM   12  C8  UNL     1      23.373   1.555  51.607  1.00  0.00     0.162 A 
HETATM   13  N3  UNL     1      22.886   2.203  50.537  1.00  0.00    -0.222 NA
HETATM   14  C9  UNL     1      21.620   2.129  50.107  1.00  0.00     0.236 A 
HETATM   15  N4  UNL     1      20.715   1.367  50.746  1.00  0.00    -0.241 NA
HETATM   16  C10 UNL     1      21.110   0.676  51.836  1.00  0.00     0.075 A 
HETATM   17  C11 UNL     1      20.181  -0.095  52.478  1.00  0.00     0.072 A 
HETATM   18  C16 UNL     1      22.427   0.792  52.232  1.00  0.00     0.043 A 
HETATM   19  C12 UNL     1      20.529  -0.822  53.597  1.00  0.00     0.101 A 
HETATM   20  C13 UNL     1      21.857  -0.729  54.027  1.00  0.00     0.102 A 
HETATM   21  C15 UNL     1      22.741   0.066  53.335  1.00  0.00     0.057 A 
BRANCH  19  22
HETATM   22  O1  UNL     1      19.519  -1.574  54.180  1.00  0.00    -0.358 OA
HETATM   23  H10 UNL     1      18.702  -1.901  53.703  1.00  0.00     0.217 HD
ENDBRANCH  19  22
BRANCH  20  24
HETATM   24  O2  UNL     1      22.137  -1.485  55.157  1.00  0.00    -0.353 OA
HETATM   25  C14 UNL     1      23.436  -1.479  55.716  1.00  0.00     0.210 C 
ENDBRANCH  20  24
ENDBRANCH   9  12
ENDBRANCH   4   5
TORSDOF 4
ENDMDL
MODEL 5
REMARK VINA RESULT:      -7.7      2.410      5.234
REMARK  4 active torsions:
REMARK  status: ('A' for Active; 'I' for Inactive)
REMARK    1  A    between atoms: C4_4  and  C5_5 
REMARK    2  A    between atoms: N2_9  and  C8_10 
REMARK    3  A    between atoms: C12_16  and  O1_17 
REMARK    4  A    between atoms: C13_18  and  O2_19 
ROOT
HETATM    1  C1  UNL     1      27.534   4.855  48.736  1.00  0.00     0.017 C 
HETATM    2  C2  UNL     1      26.506   5.490  48.604  1.00  0.00    -0.089 C 
HETATM    3  C3  UNL     1      25.282   6.221  48.441  1.00  0.00     0.066 C 
HETATM    4  C4  UNL     1      24.163   5.838  48.998  1.00  0.00     0.041 C 
ENDROOT
BRANCH   4   5
HETATM    5  C5  UNL     1      24.130   4.632  49.820  1.00  0.00     0.073 A 
HETATM    6  N1  UNL     1      24.599   4.650  51.002  1.00  0.00    -0.261 NA
HETATM    7  C6  UNL     1      24.608   3.527  51.867  1.00  0.00     0.230 A 
HETATM    8  C7  UNL     1      23.792   3.821  53.140  1.00  0.00     0.060 C 
HETATM    9  N2  UNL     1      24.046   2.301  51.344  1.00  0.00    -0.226 N 
HETATM   10  N5  UNL     1      23.574   2.408  50.062  1.00  0.00    -0.179 NA
HETATM   11  C17 UNL     1      23.562   3.410  49.284  1.00  0.00     0.170 A 
BRANCH   9  12
HETATM   12  C8  UNL     1      24.095   1.225  52.269  1.00  0.00     0.162 A 
HETATM   13  N3  UNL     1      25.253   0.767  52.771  1.00  0.00    -0.222 NA
HETATM   14  C9  UNL     1      25.364  -0.243  53.642  1.00  0.00     0.236 A 
HETATM   15  N4  UNL     1      24.277  -0.893  54.092  1.00  0.00    -0.241 NA
HETATM   16  C10 UNL     1      23.063  -0.505  53.643  1.00  0.00     0.075 A 
HETATM   17  C11 UNL     1      21.965  -1.174  54.107  1.00  0.00     0.072 A 
HETATM   18  C16 UNL     1      23.012   0.542  52.745  1.00  0.00     0.043 A 
HETATM   19  C12 UNL     1      20.701  -0.820  53.683  1.00  0.00     0.101 A 
HETATM   20  C13 UNL     1      20.610   0.238  52.772  1.00  0.00     0.102 A 
HETATM   21  C15 UNL     1      21.757   0.868  52.345  1.00  0.00     0.057 A 
BRANCH  19  22
HETATM   22  O1  UNL     1      19.648  -1.556  54.207  1.00  0.00    -0.358 OA
HETATM   23  H10 UNL     1      18.841  -1.161  54.650  1.00  0.00     0.217 HD
ENDBRANCH  19  22
BRANCH  20  24
HETATM   24  O2  UNL     1      19.311   0.539  52.388  1.00  0.00    -0.353 OA
HETATM   25  C14 UNL     1      18.949   0.525  51.020  1.00  0.00     0.210 C 
ENDBRANCH  20  24
ENDBRANCH   9  12
ENDBRANCH   4   5
TORSDOF 4
ENDMDL
MODEL 6
REMARK VINA RESULT:      -7.5      2.649      4.669
REMARK  4 active torsions:
REMARK  status: ('A' for Active; 'I' for Inactive)
REMARK    1  A    between atoms: C4_4  and  C5_5 
REMARK    2  A    between atoms: N2_9  and  C8_10 
REMARK    3  A    between atoms: C12_16  and  O1_17 
REMARK    4  A    between atoms: C13_18  and  O2_19 
ROOT
HETATM    1  C1  UNL     1      26.011   7.276  49.283  1.00  0.00     0.017 C 
HETATM    2  C2  UNL     1      26.721   6.341  48.969  1.00  0.00    -0.089 C 
HETATM    3  C3  UNL     1      27.561   5.231  48.618  1.00  0.00     0.066 C 
HETATM    4  C4  UNL     1      27.249   3.999  48.923  1.00  0.00     0.041 C 
ENDROOT
BRANCH   4   5
HETATM    5  C5  UNL     1      26.011   3.714  49.644  1.00  0.00     0.073 A 
HETATM    6  N1  UNL     1      24.889   3.831  49.058  1.00  0.00    -0.261 NA
HETATM    7  C6  UNL     1      23.641   3.576  49.680  1.00  0.00     0.230 A 
HETATM    8  C7  UNL     1      22.898   2.439  48.952  1.00  0.00     0.060 C 
HETATM    9  N2  UNL     1      23.679   3.163  51.066  1.00  0.00    -0.226 N 
HETATM   10  N5  UNL     1      24.945   3.074  51.584  1.00  0.00    -0.179 NA
HETATM   11  C17 UNL     1      26.064   3.300  51.032  1.00  0.00     0.170 A 
BRANCH   9  12
HETATM   12  C8  UNL     1      22.391   2.931  51.616  1.00  0.00     0.162 A 
HETATM   13  N3  UNL     1      21.347   3.731  51.350  1.00  0.00    -0.222 NA
HETATM   14  C9  UNL     1      20.111   3.566  51.838  1.00  0.00     0.236 A 
HETATM   15  N4  UNL     1      19.823   2.542  52.661  1.00  0.00    -0.241 NA
HETATM   16  C10 UNL     1      20.810   1.681  52.989  1.00  0.00     0.075 A 
HETATM   17  C11 UNL     1      20.505   0.645  53.827  1.00  0.00     0.072 A 
HETATM   18  C16 UNL     1      22.063   1.904  52.455  1.00  0.00     0.043 A 
HETATM   19  C12 UNL     1      21.474  -0.265  54.194  1.00  0.00     0.101 A 
HETATM   20  C13 UNL     1      22.758  -0.071  53.671  1.00  0.00     0.102 A 
HETATM   21  C15 UNL     1      22.997   0.994  52.832  1.00  0.00     0.057 A 
BRANCH  19  22
HETATM   22  O1  UNL     1      21.072  -1.282  55.048  1.00  0.00    -0.358 OA
HETATM   23  H10 UNL     1      20.235  -1.268  55.597  1.00  0.00     0.217 HD
ENDBRANCH  19  22
BRANCH  20  24
HETATM   24  O2  UNL     1      23.682  -1.021  54.082  1.00  0.00    -0.353 OA
HETATM   25  C14 UNL     1      25.035  -0.661  54.285  1.00  0.00     0.210 C 
ENDBRANCH  20  24
ENDBRANCH   9  12
ENDBRANCH   4   5
TORSDOF 4
ENDMDL
MODEL 7
REMARK VINA RESULT:      -7.5      3.067      6.721
REMARK  4 active torsions:
REMARK  status: ('A' for Active; 'I' for Inactive)
REMARK    1  A    between atoms: C4_4  and  C5_5 
REMARK    2  A    between atoms: N2_9  and  C8_10 
REMARK    3  A    between atoms: C12_16  and  O1_17 
REMARK    4  A    between atoms: C13_18  and  O2_19 
ROOT
HETATM    1  C1  UNL     1      21.028   7.525  49.777  1.00  0.00     0.017 C 
HETATM    2  C2  UNL     1      22.173   7.933  49.787  1.00  0.00    -0.089 C 
HETATM    3  C3  UNL     1      23.527   8.409  49.818  1.00  0.00     0.066 C 
HETATM    4  C4  UNL     1      24.525   7.644  50.176  1.00  0.00     0.041 C 
ENDROOT
BRANCH   4   5
HETATM    5  C5  UNL     1      24.282   6.256  50.561  1.00  0.00     0.073 A 
HETATM    6  N1  UNL     1      23.782   5.986  51.699  1.00  0.00    -0.261 NA
HETATM    7  C6  UNL     1      23.513   4.671  52.153  1.00  0.00     0.230 A 
HETATM    8  C7  UNL     1      22.009   4.497  52.441  1.00  0.00     0.060 C 
HETATM    9  N2  UNL     1      23.842   3.592  51.248  1.00  0.00    -0.226 N 
HETATM   10  N5  UNL     1      24.373   4.009  50.055  1.00  0.00    -0.179 NA
HETATM   11  C17 UNL     1      24.614   5.185  49.643  1.00  0.00     0.170 A 
BRANCH   9  12
HETATM   12  C8  UNL     1      23.546   2.308  51.777  1.00  0.00     0.162 A 
HETATM   13  N3  UNL     1      22.422   1.647  51.461  1.00  0.00    -0.222 NA
HETATM   14  C9  UNL     1      22.087   0.438  51.927  1.00  0.00     0.236 A 
HETATM   15  N4  UNL     1      22.890  -0.223  52.778  1.00  0.00    -0.241 NA
HETATM   16  C10 UNL     1      24.047   0.361  53.157  1.00  0.00     0.075 A 
HETATM   17  C11 UNL     1      24.856  -0.320  54.024  1.00  0.00     0.072 A 
HETATM   18  C16 UNL     1      24.338   1.609  52.643  1.00  0.00     0.043 A 
HETATM   19  C12 UNL     1      26.049   0.229  54.443  1.00  0.00     0.101 A 
HETATM   20  C13 UNL     1      26.377   1.494  53.943  1.00  0.00     0.102 A 
HETATM   21  C15 UNL     1      25.517   2.125  53.073  1.00  0.00     0.057 A 
BRANCH  19  22
HETATM   22  O1  UNL     1      26.802  -0.535  55.323  1.00  0.00    -0.358 OA
HETATM   23  H10 UNL     1      27.614  -1.065  55.069  1.00  0.00     0.217 HD
ENDBRANCH  19  22
BRANCH  20  24
HETATM   24  O2  UNL     1      27.590   1.985  54.406  1.00  0.00    -0.353 OA
HETATM   25  C14 UNL     1      28.571   2.443  53.495  1.00  0.00     0.210 C 
ENDBRANCH  20  24
ENDBRANCH   9  12
ENDBRANCH   4   5
TORSDOF 4
ENDMDL
MODEL 8
REMARK VINA RESULT:      -7.0      3.175      7.100
REMARK  4 active torsions:
REMARK  status: ('A' for Active; 'I' for Inactive)
REMARK    1  A    between atoms: C4_4  and  C5_5 
REMARK    2  A    between atoms: N2_9  and  C8_10 
REMARK    3  A    between atoms: C12_16  and  O1_17 
REMARK    4  A    between atoms: C13_18  and  O2_19 
ROOT
HETATM    1  C1  UNL     1      21.950   4.030  47.412  1.00  0.00     0.017 C 
HETATM    2  C2  UNL     1      21.094   4.714  47.938  1.00  0.00    -0.089 C 
HETATM    3  C3  UNL     1      20.073   5.505  48.563  1.00  0.00     0.066 C 
HETATM    4  C4  UNL     1      19.726   5.331  49.812  1.00  0.00     0.041 C 
ENDROOT
BRANCH   4   5
HETATM    5  C5  UNL     1      20.384   4.307  50.618  1.00  0.00     0.073 A 
HETATM    6  N1  UNL     1      20.025   3.090  50.524  1.00  0.00    -0.261 NA
HETATM    7  C6  UNL     1      20.609   2.034  51.267  1.00  0.00     0.230 A 
HETATM    8  C7  UNL     1      21.241   0.995  50.322  1.00  0.00     0.060 C 
HETATM    9  N2  UNL     1      21.669   2.393  52.183  1.00  0.00    -0.226 N 
HETATM   10  N5  UNL     1      21.964   3.732  52.195  1.00  0.00    -0.179 NA
HETATM   11  C17 UNL     1      21.446   4.680  51.531  1.00  0.00     0.170 A 
BRANCH   9  12
HETATM   12  C8  UNL     1      22.197   1.281  52.891  1.00  0.00     0.162 A 
HETATM   13  N3  UNL     1      21.436   0.517  53.689  1.00  0.00    -0.222 NA
HETATM   14  C9  UNL     1      21.874  -0.541  54.383  1.00  0.00     0.236 A 
HETATM   15  N4  UNL     1      23.161  -0.924  54.321  1.00  0.00    -0.241 NA
HETATM   16  C10 UNL     1      24.008  -0.216  53.543  1.00  0.00     0.075 A 
HETATM   17  C11 UNL     1      25.314  -0.615  53.489  1.00  0.00     0.072 A 
HETATM   18  C16 UNL     1      23.498   0.865  52.852  1.00  0.00     0.043 A 
HETATM   19  C12 UNL     1      26.222   0.072  52.709  1.00  0.00     0.101 A 
HETATM   20  C13 UNL     1      25.740   1.174  51.994  1.00  0.00     0.102 A 
HETATM   21  C15 UNL     1      24.412   1.521  52.095  1.00  0.00     0.057 A 
BRANCH  19  22
HETATM   22  O1  UNL     1      27.525  -0.406  52.718  1.00  0.00    -0.358 OA
HETATM   23  H10 UNL     1      28.344   0.170  52.690  1.00  0.00     0.217 HD
ENDBRANCH  19  22
BRANCH  20  24
HETATM   24  O2  UNL     1      26.706   1.817  51.233  1.00  0.00    -0.353 OA
HETATM   25  C14 UNL     1      26.352   2.903  50.399  1.00  0.00     0.210 C 
ENDBRANCH  20  24
ENDBRANCH   9  12
ENDBRANCH   4   5
TORSDOF 4
ENDMDL
MODEL 9
REMARK VINA RESULT:      -6.9      3.325      6.933
REMARK  4 active torsions:
REMARK  status: ('A' for Active; 'I' for Inactive)
REMARK    1  A    between atoms: C4_4  and  C5_5 
REMARK    2  A    between atoms: N2_9  and  C8_10 
REMARK    3  A    between atoms: C12_16  and  O1_17 
REMARK    4  A    between atoms: C13_18  and  O2_19 
ROOT
HETATM    1  C1  UNL     1      18.674   4.400  48.733  1.00  0.00     0.017 C 
HETATM    2  C2  UNL     1      19.794   4.471  48.265  1.00  0.00    -0.089 C 
HETATM    3  C3  UNL     1      21.123   4.558  47.731  1.00  0.00     0.066 C 
HETATM    4  C4  UNL     1      22.098   3.803  48.164  1.00  0.00     0.041 C 
ENDROOT
BRANCH   4   5
HETATM    5  C5  UNL     1      21.853   2.829  49.225  1.00  0.00     0.073 A 
HETATM    6  N1  UNL     1      21.798   3.206  50.438  1.00  0.00    -0.261 NA
HETATM    7  C6  UNL     1      21.565   2.330  51.528  1.00  0.00     0.230 A 
HETATM    8  C7  UNL     1      20.277   2.730  52.275  1.00  0.00     0.060 C 
HETATM    9  N2  UNL     1      21.387   0.930  51.210  1.00  0.00    -0.226 N 
HETATM   10  N5  UNL     1      21.468   0.650  49.871  1.00  0.00    -0.179 NA
HETATM   11  C17 UNL     1      21.675   1.430  48.892  1.00  0.00     0.170 A 
BRANCH   9  12
HETATM   12  C8  UNL     1      21.162   0.121  52.355  1.00  0.00     0.162 A 
HETATM   13  N3  UNL     1      19.942  -0.336  52.677  1.00  0.00    -0.222 NA
HETATM   14  C9  UNL     1      19.667  -1.100  53.741  1.00  0.00     0.236 A 
HETATM   15  N4  UNL     1      20.636  -1.477  54.593  1.00  0.00    -0.241 NA
HETATM   16  C10 UNL     1      21.900  -1.065  54.353  1.00  0.00     0.075 A 
HETATM   17  C11 UNL     1      22.877  -1.454  55.227  1.00  0.00     0.072 A 
HETATM   18  C16 UNL     1      22.122  -0.279  53.241  1.00  0.00     0.043 A 
HETATM   19  C12 UNL     1      24.185  -1.063  55.030  1.00  0.00     0.101 A 
HETATM   20  C13 UNL     1      24.448  -0.265  53.912  1.00  0.00     0.102 A 
HETATM   21  C15 UNL     1      23.417   0.091  53.072  1.00  0.00     0.057 A 
BRANCH  19  22
HETATM   22  O1  UNL     1      25.107  -1.505  55.968  1.00  0.00    -0.358 OA
HETATM   23  H10 UNL     1      25.918  -0.994  56.256  1.00  0.00     0.217 HD
ENDBRANCH  19  22
BRANCH  20  24
HETATM   24  O2  UNL     1      25.783   0.091  53.776  1.00  0.00    -0.353 OA
HETATM   25  C14 UNL     1      26.676  -0.744  53.065  1.00  0.00     0.210 C 
ENDBRANCH  20  24
ENDBRANCH   9  12
ENDBRANCH   4   5
TORSDOF 4
ENDMDL
