MODEL 1
REMARK VINA RESULT:      -9.2      0.000      0.000
REMARK  1 active torsions:
REMARK  status: ('A' for Active; 'I' for Inactive)
REMARK    1  A    between atoms: C11_13  and  C12_14 
ROOT
HETATM    1  N1  UNL     1      26.566   2.540  53.631  1.00  0.00    -0.285 NA
HETATM    2  C1  UNL     1      27.224   2.174  52.556  1.00  0.00     0.127 C 
HETATM    3  N2  UNL     1      28.517   2.535  53.090  1.00  0.00    -0.245 NA
HETATM    4  C2  UNL     1      29.049   1.535  53.785  1.00  0.00     0.130 C 
HETATM    5  C3  UNL     1      28.103   0.419  53.748  1.00  0.00    -0.019 C 
HETATM    6  C4  UNL     1      27.711  -0.392  52.718  1.00  0.00     0.013 C 
HETATM    7  C5  UNL     1      26.301  -0.778  52.389  1.00  0.00     0.004 C 
HETATM    8  C6  UNL     1      25.383   0.007  53.014  1.00  0.00    -0.075 C 
HETATM    9  C7  UNL     1      25.029  -0.396  54.393  1.00  0.00     0.061 C 
HETATM   10  C8  UNL     1      26.196  -0.243  55.325  1.00  0.00    -0.021 C 
HETATM   11  C9  UNL     1      27.463   0.160  55.071  1.00  0.00     0.009 C 
HETATM   12  C10 UNL     1      25.069   1.076  52.038  1.00  0.00     0.051 C 
HETATM   13  C11 UNL     1      26.360   1.660  51.461  1.00  0.00     0.093 C 
HETATM   14  H1  UNL     1      27.032   2.936  54.477  1.00  0.00     0.188 HD
ENDROOT
BRANCH  13  15
HETATM   15  C12 UNL     1      25.906   2.805  50.630  1.00  0.00    -0.046 A 
HETATM   16  C13 UNL     1      24.534   3.037  50.541  1.00  0.00     0.011 A 
HETATM   17  C14 UNL     1      24.123   4.113  49.760  1.00  0.00     0.043 A 
HETATM   18  C15 UNL     1      25.056   4.919  49.098  1.00  0.00     0.116 A 
HETATM   19  F1  UNL     1      24.595   5.950  48.354  1.00  0.00    -0.206 F 
HETATM   20  C16 UNL     1      26.409   4.660  49.209  1.00  0.00     0.043 A 
HETATM   21  C17 UNL     1      26.828   3.597  49.979  1.00  0.00     0.011 A 
ENDBRANCH  13  15
TORSDOF 1
ENDMDL
MODEL 2
REMARK VINA RESULT:      -8.8      3.241      4.982
REMARK  1 active torsions:
REMARK  status: ('A' for Active; 'I' for Inactive)
REMARK    1  A    between atoms: C11_13  and  C12_14 
ROOT
HETATM    1  N1  UNL     1      24.844   2.044  53.477  1.00  0.00    -0.285 NA
HETATM    2  C1  UNL     1      24.593   1.296  52.427  1.00  0.00     0.127 C 
HETATM    3  N2  UNL     1      24.737   2.380  51.483  1.00  0.00    -0.245 NA
HETATM    4  C2  UNL     1      26.002   2.527  51.106  1.00  0.00     0.130 C 
HETATM    5  C3  UNL     1      26.793   1.513  51.805  1.00  0.00    -0.019 C 
HETATM    6  C4  UNL     1      26.823   0.151  51.676  1.00  0.00     0.013 C 
HETATM    7  C5  UNL     1      26.804  -0.840  52.799  1.00  0.00     0.004 C 
HETATM    8  C6  UNL     1      26.430  -0.285  53.982  1.00  0.00    -0.075 C 
HETATM    9  C7  UNL     1      27.511   0.367  54.754  1.00  0.00     0.061 C 
HETATM   10  C8  UNL     1      28.040   1.577  54.041  1.00  0.00    -0.021 C 
HETATM   11  C9  UNL     1      27.695   2.097  52.840  1.00  0.00     0.009 C 
HETATM   12  C10 UNL     1      24.969  -0.517  54.067  1.00  0.00     0.051 C 
HETATM   13  C11 UNL     1      24.296  -0.124  52.751  1.00  0.00     0.093 C 
HETATM   14  H1  UNL     1      25.053   3.064  53.412  1.00  0.00     0.188 HD
ENDROOT
BRANCH  13  15
HETATM   15  C12 UNL     1      22.842  -0.259  53.028  1.00  0.00    -0.046 A 
HETATM   16  C13 UNL     1      21.953   0.247  52.080  1.00  0.00     0.011 A 
HETATM   17  C14 UNL     1      20.595   0.114  52.352  1.00  0.00     0.043 A 
HETATM   18  C15 UNL     1      20.153  -0.502  53.528  1.00  0.00     0.116 A 
HETATM   19  F1  UNL     1      18.820  -0.603  53.735  1.00  0.00    -0.206 F 
HETATM   20  C16 UNL     1      21.064  -0.993  54.445  1.00  0.00     0.043 A 
HETATM   21  C17 UNL     1      22.411  -0.867  54.188  1.00  0.00     0.011 A 
ENDBRANCH  13  15
TORSDOF 1
ENDMDL
MODEL 3
REMARK VINA RESULT:      -8.2      2.852      5.801
REMARK  1 active torsions:
REMARK  status: ('A' for Active; 'I' for Inactive)
REMARK    1  A    between atoms: C11_13  and  C12_14 
ROOT
HETATM    1  N1  UNL     1      24.730   3.238  53.028  1.00  0.00    -0.285 NA
HETATM    2  C1  UNL     1      24.587   2.105  52.379  1.00  0.00     0.127 C 
HETATM    3  N2  UNL     1      23.336   1.768  53.019  1.00  0.00    -0.245 NA
HETATM    4  C2  UNL     1      22.304   2.297  52.372  1.00  0.00     0.130 C 
HETATM    5  C3  UNL     1      22.833   3.041  51.227  1.00  0.00    -0.019 C 
HETATM    6  C4  UNL     1      23.442   2.609  50.080  1.00  0.00     0.013 C 
HETATM    7  C5  UNL     1      24.688   3.181  49.476  1.00  0.00     0.004 C 
HETATM    8  C6  UNL     1      25.370   3.981  50.338  1.00  0.00    -0.075 C 
HETATM    9  C7  UNL     1      24.916   5.388  50.401  1.00  0.00     0.061 C 
HETATM   10  C8  UNL     1      23.531   5.492  50.971  1.00  0.00    -0.021 C 
HETATM   11  C9  UNL     1      22.685   4.518  51.379  1.00  0.00     0.009 C 
HETATM   12  C10 UNL     1      26.369   3.092  50.974  1.00  0.00     0.051 C 
HETATM   13  C11 UNL     1      25.700   1.798  51.443  1.00  0.00     0.093 C 
HETATM   14  H1  UNL     1      24.040   3.581  53.731  1.00  0.00     0.188 HD
ENDROOT
BRANCH  13  15
HETATM   15  C12 UNL     1      26.769   1.081  52.188  1.00  0.00    -0.046 A 
HETATM   16  C13 UNL     1      26.693  -0.310  52.249  1.00  0.00     0.011 A 
HETATM   17  C14 UNL     1      27.700  -0.968  52.949  1.00  0.00     0.043 A 
HETATM   18  C15 UNL     1      28.736  -0.254  53.560  1.00  0.00     0.116 A 
HETATM   19  F1  UNL     1      29.686  -0.950  54.226  1.00  0.00    -0.206 F 
HETATM   20  C16 UNL     1      28.779   1.126  53.479  1.00  0.00     0.043 A 
HETATM   21  C17 UNL     1      27.788   1.788  52.789  1.00  0.00     0.011 A 
ENDBRANCH  13  15
TORSDOF 1
ENDMDL
MODEL 4
REMARK VINA RESULT:      -7.8      3.480      6.412
REMARK  1 active torsions:
REMARK  status: ('A' for Active; 'I' for Inactive)
REMARK    1  A    between atoms: C11_13  and  C12_14 
ROOT
HETATM    1  N1  UNL     1      24.123   4.118  52.570  1.00  0.00    -0.285 NA
HETATM    2  C1  UNL     1      23.042   3.561  52.077  1.00  0.00     0.127 C 
HETATM    3  N2  UNL     1      22.168   4.638  52.481  1.00  0.00    -0.245 NA
HETATM    4  C2  UNL     1      22.124   5.594  51.560  1.00  0.00     0.130 C 
HETATM    5  C3  UNL     1      22.997   5.189  50.458  1.00  0.00    -0.019 C 
HETATM    6  C4  UNL     1      22.875   4.181  49.541  1.00  0.00     0.013 C 
HETATM    7  C5  UNL     1      23.954   3.223  49.137  1.00  0.00     0.004 C 
HETATM    8  C6  UNL     1      25.006   3.224  49.997  1.00  0.00    -0.075 C 
HETATM    9  C7  UNL     1      26.028   4.267  49.758  1.00  0.00     0.061 C 
HETATM   10  C8  UNL     1      25.476   5.641  50.001  1.00  0.00    -0.021 C 
HETATM   11  C9  UNL     1      24.228   6.025  50.358  1.00  0.00     0.009 C 
HETATM   12  C10 UNL     1      24.718   2.129  50.953  1.00  0.00     0.051 C 
HETATM   13  C11 UNL     1      23.275   2.232  51.453  1.00  0.00     0.093 C 
HETATM   14  H1  UNL     1      24.116   5.043  53.054  1.00  0.00     0.188 HD
ENDROOT
BRANCH  13  15
HETATM   15  C12 UNL     1      23.175   1.184  52.503  1.00  0.00    -0.046 A 
HETATM   16  C13 UNL     1      21.925   0.963  53.078  1.00  0.00     0.011 A 
HETATM   17  C14 UNL     1      21.845  -0.021  54.059  1.00  0.00     0.043 A 
HETATM   18  C15 UNL     1      22.978  -0.748  54.443  1.00  0.00     0.116 A 
HETATM   19  F1  UNL     1      22.837  -1.692  55.402  1.00  0.00    -0.206 F 
HETATM   20  C16 UNL     1      24.202  -0.501  53.850  1.00  0.00     0.043 A 
HETATM   21  C17 UNL     1      24.293   0.470  52.877  1.00  0.00     0.011 A 
ENDBRANCH  13  15
TORSDOF 1
ENDMDL
MODEL 5
REMARK VINA RESULT:      -7.8      2.931      5.687
REMARK  1 active torsions:
REMARK  status: ('A' for Active; 'I' for Inactive)
REMARK    1  A    between atoms: C11_13  and  C12_14 
ROOT
HETATM    1  N1  UNL     1      26.105   2.085  49.822  1.00  0.00    -0.285 NA
HETATM    2  C1  UNL     1      26.365   2.837  50.866  1.00  0.00     0.127 C 
HETATM    3  N2  UNL     1      26.994   3.884  50.094  1.00  0.00    -0.245 NA
HETATM    4  C2  UNL     1      26.100   4.762  49.653  1.00  0.00     0.130 C 
HETATM    5  C3  UNL     1      24.784   4.330  50.125  1.00  0.00    -0.019 C 
HETATM    6  C4  UNL     1      24.251   4.290  51.384  1.00  0.00     0.013 C 
HETATM    7  C5  UNL     1      23.492   3.144  51.983  1.00  0.00     0.004 C 
HETATM    8  C6  UNL     1      23.643   1.991  51.280  1.00  0.00    -0.075 C 
HETATM    9  C7  UNL     1      22.729   1.819  50.129  1.00  0.00     0.061 C 
HETATM   10  C8  UNL     1      23.006   2.830  49.055  1.00  0.00    -0.021 C 
HETATM   11  C9  UNL     1      23.908   3.838  49.022  1.00  0.00     0.009 C 
HETATM   12  C10 UNL     1      24.766   1.285  51.941  1.00  0.00     0.051 C 
HETATM   13  C11 UNL     1      25.936   2.247  52.161  1.00  0.00     0.093 C 
HETATM   14  H1  UNL     1      26.361   2.356  48.847  1.00  0.00     0.188 HD
ENDROOT
BRANCH  13  15
HETATM   15  C12 UNL     1      27.028   1.383  52.680  1.00  0.00    -0.046 A 
HETATM   16  C13 UNL     1      28.128   2.010  53.262  1.00  0.00     0.011 A 
HETATM   17  C14 UNL     1      29.143   1.189  53.744  1.00  0.00     0.043 A 
HETATM   18  C15 UNL     1      29.053  -0.203  53.641  1.00  0.00     0.116 A 
HETATM   19  F1  UNL     1      30.072  -0.948  54.128  1.00  0.00    -0.206 F 
HETATM   20  C16 UNL     1      27.946  -0.791  53.057  1.00  0.00     0.043 A 
HETATM   21  C17 UNL     1      26.935   0.011  52.577  1.00  0.00     0.011 A 
ENDBRANCH  13  15
TORSDOF 1
ENDMDL
MODEL 6
REMARK VINA RESULT:      -7.8      3.853      5.771
REMARK  1 active torsions:
REMARK  status: ('A' for Active; 'I' for Inactive)
REMARK    1  A    between atoms: C11_13  and  C12_14 
ROOT
HETATM    1  N1  UNL     1      24.883  -0.276  52.491  1.00  0.00    -0.285 NA
HETATM    2  C1  UNL     1      24.453   0.227  53.625  1.00  0.00     0.127 C 
HETATM    3  N2  UNL     1      25.509  -0.363  54.415  1.00  0.00    -0.245 NA
HETATM    4  C2  UNL     1      26.582   0.418  54.447  1.00  0.00     0.130 C 
HETATM    5  C3  UNL     1      26.287   1.610  53.652  1.00  0.00    -0.019 C 
HETATM    6  C4  UNL     1      25.421   2.646  53.875  1.00  0.00     0.013 C 
HETATM    7  C5  UNL     1      24.473   3.232  52.872  1.00  0.00     0.004 C 
HETATM    8  C6  UNL     1      24.304   2.437  51.783  1.00  0.00    -0.075 C 
HETATM    9  C7  UNL     1      25.317   2.590  50.715  1.00  0.00     0.061 C 
HETATM   10  C8  UNL     1      26.671   2.136  51.175  1.00  0.00    -0.021 C 
HETATM   11  C9  UNL     1      27.066   1.664  52.380  1.00  0.00     0.009 C 
HETATM   12  C10 UNL     1      23.105   1.622  52.089  1.00  0.00     0.051 C 
HETATM   13  C11 UNL     1      23.212   1.035  53.498  1.00  0.00     0.093 C 
HETATM   14  H1  UNL     1      25.732  -0.879  52.422  1.00  0.00     0.188 HD
ENDROOT
BRANCH  13  15
HETATM   15  C12 UNL     1      22.037   0.131  53.609  1.00  0.00    -0.046 A 
HETATM   16  C13 UNL     1      20.870   0.501  52.943  1.00  0.00     0.011 A 
HETATM   17  C14 UNL     1      19.779  -0.355  53.055  1.00  0.00     0.043 A 
HETATM   18  C15 UNL     1      19.862  -1.532  53.807  1.00  0.00     0.116 A 
HETATM   19  F1  UNL     1      18.767  -2.323  53.878  1.00  0.00    -0.206 F 
HETATM   20  C16 UNL     1      21.036  -1.868  54.454  1.00  0.00     0.043 A 
HETATM   21  C17 UNL     1      22.123  -1.029  54.350  1.00  0.00     0.011 A 
ENDBRANCH  13  15
TORSDOF 1
ENDMDL
MODEL 7
REMARK VINA RESULT:      -7.4      5.447      8.391
REMARK  1 active torsions:
REMARK  status: ('A' for Active; 'I' for Inactive)
REMARK    1  A    between atoms: C11_13  and  C12_14 
ROOT
HETATM    1  N1  UNL     1      30.604   7.672  49.458  1.00  0.00    -0.285 NA
HETATM    2  C1  UNL     1      29.987   7.902  48.323  1.00  0.00     0.127 C 
HETATM    3  N2  UNL     1      30.040   9.340  48.458  1.00  0.00    -0.245 NA
HETATM    4  C2  UNL     1      31.174   9.829  47.969  1.00  0.00     0.130 C 
HETATM    5  C3  UNL     1      31.962   8.703  47.466  1.00  0.00    -0.019 C 
HETATM    6  C4  UNL     1      31.760   7.872  46.398  1.00  0.00     0.013 C 
HETATM    7  C5  UNL     1      31.887   6.378  46.409  1.00  0.00     0.004 C 
HETATM    8  C6  UNL     1      31.912   5.863  47.666  1.00  0.00    -0.075 C 
HETATM    9  C7  UNL     1      33.238   5.846  48.324  1.00  0.00     0.061 C 
HETATM   10  C8  UNL     1      33.736   7.236  48.590  1.00  0.00    -0.021 C 
HETATM   11  C9  UNL     1      33.174   8.431  48.293  1.00  0.00     0.009 C 
HETATM   12  C10 UNL     1      30.505   5.510  47.962  1.00  0.00     0.051 C 
HETATM   13  C11 UNL     1      29.581   6.672  47.593  1.00  0.00     0.093 C 
HETATM   14  H1  UNL     1      30.935   8.433  50.091  1.00  0.00     0.188 HD
ENDROOT
BRANCH  13  15
HETATM   15  C12 UNL     1      28.242   6.246  48.079  1.00  0.00    -0.046 A 
HETATM   16  C13 UNL     1      28.117   4.951  48.578  1.00  0.00     0.011 A 
HETATM   17  C14 UNL     1      26.859   4.565  49.030  1.00  0.00     0.043 A 
HETATM   18  C15 UNL     1      25.775   5.449  48.980  1.00  0.00     0.116 A 
HETATM   19  F1  UNL     1      24.576   5.016  49.435  1.00  0.00    -0.206 F 
HETATM   20  C16 UNL     1      25.936   6.727  48.479  1.00  0.00     0.043 A 
HETATM   21  C17 UNL     1      27.177   7.120  48.029  1.00  0.00     0.011 A 
ENDBRANCH  13  15
TORSDOF 1
ENDMDL
MODEL 8
REMARK VINA RESULT:      -7.4      6.767      9.397
REMARK  1 active torsions:
REMARK  status: ('A' for Active; 'I' for Inactive)
REMARK    1  A    between atoms: C11_13  and  C12_14 
ROOT
HETATM    1  N1  UNL     1      30.310   6.294  49.255  1.00  0.00    -0.285 NA
HETATM    2  C1  UNL     1      30.096   5.866  48.033  1.00  0.00     0.127 C 
HETATM    3  N2  UNL     1      28.946   5.069  48.394  1.00  0.00    -0.245 NA
HETATM    4  C2  UNL     1      27.831   5.790  48.362  1.00  0.00     0.130 C 
HETATM    5  C3  UNL     1      28.194   7.151  47.965  1.00  0.00    -0.019 C 
HETATM    6  C4  UNL     1      28.649   7.647  46.774  1.00  0.00     0.013 C 
HETATM    7  C5  UNL     1      29.797   8.594  46.597  1.00  0.00     0.004 C 
HETATM    8  C6  UNL     1      30.577   8.687  47.706  1.00  0.00    -0.075 C 
HETATM    9  C7  UNL     1      30.117   9.649  48.733  1.00  0.00     0.061 C 
HETATM   10  C8  UNL     1      28.820   9.213  49.349  1.00  0.00    -0.021 C 
HETATM   11  C9  UNL     1      28.047   8.135  49.077  1.00  0.00     0.009 C 
HETATM   12  C10 UNL     1      31.663   7.703  47.492  1.00  0.00     0.051 C 
HETATM   13  C11 UNL     1      31.079   6.365  47.035  1.00  0.00     0.093 C 
HETATM   14  H1  UNL     1      29.715   6.018  50.067  1.00  0.00     0.188 HD
ENDROOT
BRANCH  13  15
HETATM   15  C12 UNL     1      32.246   5.444  47.010  1.00  0.00    -0.046 A 
HETATM   16  C13 UNL     1      33.513   6.001  47.176  1.00  0.00     0.011 A 
HETATM   17  C14 UNL     1      34.596   5.128  47.151  1.00  0.00     0.043 A 
HETATM   18  C15 UNL     1      34.409   3.754  46.965  1.00  0.00     0.116 A 
HETATM   19  F1  UNL     1      35.501   2.956  46.950  1.00  0.00    -0.206 F 
HETATM   20  C16 UNL     1      33.137   3.237  46.803  1.00  0.00     0.043 A 
HETATM   21  C17 UNL     1      32.057   4.091  46.826  1.00  0.00     0.011 A 
ENDBRANCH  13  15
TORSDOF 1
ENDMDL
MODEL 9
REMARK VINA RESULT:      -7.4      3.796      6.263
REMARK  1 active torsions:
REMARK  status: ('A' for Active; 'I' for Inactive)
REMARK    1  A    between atoms: C11_13  and  C12_14 
ROOT
HETATM    1  N1  UNL     1      23.152   1.989  50.499  1.00  0.00    -0.285 NA
HETATM    2  C1  UNL     1      23.209   2.598  51.661  1.00  0.00     0.127 C 
HETATM    3  N2  UNL     1      23.393   3.911  51.088  1.00  0.00    -0.245 NA
HETATM    4  C2  UNL     1      22.228   4.487  50.816  1.00  0.00     0.130 C 
HETATM    5  C3  UNL     1      21.171   3.553  51.207  1.00  0.00    -0.019 C 
HETATM    6  C4  UNL     1      20.766   3.120  52.440  1.00  0.00     0.013 C 
HETATM    7  C5  UNL     1      20.483   1.700  52.825  1.00  0.00     0.004 C 
HETATM    8  C6  UNL     1      20.970   0.805  51.925  1.00  0.00    -0.075 C 
HETATM    9  C7  UNL     1      20.096   0.524  50.764  1.00  0.00     0.061 C 
HETATM   10  C8  UNL     1      19.941   1.733  49.889  1.00  0.00    -0.021 C 
HETATM   11  C9  UNL     1      20.443   2.982  50.036  1.00  0.00     0.009 C 
HETATM   12  C10 UNL     1      22.306   0.431  52.444  1.00  0.00     0.051 C 
HETATM   13  C11 UNL     1      23.092   1.686  52.829  1.00  0.00     0.093 C 
HETATM   14  H1  UNL     1      23.237   2.492  49.588  1.00  0.00     0.188 HD
ENDROOT
BRANCH  13  15
HETATM   15  C12 UNL     1      24.444   1.179  53.180  1.00  0.00    -0.046 A 
HETATM   16  C13 UNL     1      24.622  -0.202  53.243  1.00  0.00     0.011 A 
HETATM   17  C14 UNL     1      25.893  -0.662  53.572  1.00  0.00     0.043 A 
HETATM   18  C15 UNL     1      26.938   0.232  53.827  1.00  0.00     0.116 A 
HETATM   19  F1  UNL     1      28.152  -0.277  54.142  1.00  0.00    -0.206 F 
HETATM   20  C16 UNL     1      26.726   1.596  53.756  1.00  0.00     0.043 A 
HETATM   21  C17 UNL     1      25.472   2.064  53.431  1.00  0.00     0.011 A 
ENDBRANCH  13  15
TORSDOF 1
ENDMDL
