MODEL 1
REMARK VINA RESULT:      -7.5      0.000      0.000
REMARK  5 active torsions:
REMARK  status: ('A' for Active; 'I' for Inactive)
REMARK    1  A    between atoms: O1_2  and  C2_3 
REMARK    2  A    between atoms: C5_6  and  C6_7 
REMARK    3  A    between atoms: C7_8  and  N1_9 
REMARK    4  A    between atoms: N1_9  and  C8_10 
REMARK    5  A    between atoms: C15_18  and  N2_19 
ROOT
HETATM    1  C6  UNL     1      24.728   1.969  52.475  1.00  0.00     0.060 A 
HETATM    2  C7  UNL     1      24.269   3.171  52.046  1.00  0.00     0.099 A 
HETATM    3  C14 UNL     1      23.352   2.242  52.513  1.00  0.00     0.213 A 
HETATM    4  O2  UNL     1      22.186   1.862  52.790  1.00  0.00    -0.285 OA
ENDROOT
BRANCH   1   5
HETATM    5  C5  UNL     1      25.757   0.978  52.760  1.00  0.00     0.007 A 
HETATM    6  C4  UNL     1      25.713  -0.334  52.324  1.00  0.00     0.017 A 
HETATM    7  C3  UNL     1      26.772  -1.142  52.685  1.00  0.00     0.038 A 
HETATM    8  C2  UNL     1      27.842  -0.733  53.432  1.00  0.00     0.070 A 
HETATM    9  C16 UNL     1      27.876   0.582  53.863  1.00  0.00     0.066 A 
HETATM   10  C15 UNL     1      26.829   1.425  53.521  1.00  0.00     0.039 A 
BRANCH   8  11
HETATM   11  O1  UNL     1      28.842  -1.627  53.731  1.00  0.00    -0.356 OA
HETATM   12  C1  UNL     1      30.205  -1.269  53.697  1.00  0.00     0.210 C 
ENDBRANCH   8  11
BRANCH  10  13
HETATM   13  N2  UNL     1      26.964   2.763  54.018  1.00  0.00    -0.398 N 
HETATM   14  H16 UNL     1      27.504   3.554  53.622  1.00  0.00     0.156 HD
HETATM   15  H17 UNL     1      26.523   3.167  54.891  1.00  0.00     0.156 HD
ENDBRANCH  10  13
ENDBRANCH   1   5
BRANCH   2  16
HETATM   16  N1  UNL     1      24.474   4.472  51.505  1.00  0.00    -0.356 N 
HETATM   17  H6  UNL     1      24.081   5.305  52.002  1.00  0.00     0.166 HD
BRANCH  16  18
HETATM   18  C8  UNL     1      25.187   4.766  50.309  1.00  0.00     0.006 C 
HETATM   19  C9  UNL     1      25.180   6.033  49.888  1.00  0.00    -0.002 C 
HETATM   20  C10 UNL     1      25.891   6.447  48.655  1.00  0.00     0.029 C 
HETATM   21  C11 UNL     1      27.258   5.820  48.548  1.00  0.00     0.004 C 
HETATM   22  C12 UNL     1      27.280   4.384  48.991  1.00  0.00     0.006 C 
HETATM   23  C13 UNL     1      25.955   3.854  49.439  1.00  0.00     0.057 C 
ENDBRANCH  16  18
ENDBRANCH   2  16
TORSDOF 5
ENDMDL
MODEL 2
REMARK VINA RESULT:      -7.5      3.271      6.337
REMARK  5 active torsions:
REMARK  status: ('A' for Active; 'I' for Inactive)
REMARK    1  A    between atoms: O1_2  and  C2_3 
REMARK    2  A    between atoms: C5_6  and  C6_7 
REMARK    3  A    between atoms: C7_8  and  N1_9 
REMARK    4  A    between atoms: N1_9  and  C8_10 
REMARK    5  A    between atoms: C15_18  and  N2_19 
ROOT
HETATM    1  C6  UNL     1      23.638  -0.246  53.672  1.00  0.00     0.060 A 
HETATM    2  C7  UNL     1      24.585  -0.590  54.580  1.00  0.00     0.099 A 
HETATM    3  C14 UNL     1      23.295  -1.068  54.757  1.00  0.00     0.213 A 
HETATM    4  O2  UNL     1      22.420  -1.726  55.375  1.00  0.00    -0.285 OA
ENDROOT
BRANCH   1   5
HETATM    5  C5  UNL     1      23.141   0.418  52.474  1.00  0.00     0.007 A 
HETATM    6  C4  UNL     1      21.967   0.077  51.827  1.00  0.00     0.017 A 
HETATM    7  C3  UNL     1      21.645   0.811  50.703  1.00  0.00     0.038 A 
HETATM    8  C2  UNL     1      22.400   1.833  50.200  1.00  0.00     0.070 A 
HETATM    9  C16 UNL     1      23.574   2.166  50.854  1.00  0.00     0.066 A 
HETATM   10  C15 UNL     1      23.932   1.452  51.988  1.00  0.00     0.039 A 
BRANCH   8  11
HETATM   11  O1  UNL     1      21.979   2.495  49.071  1.00  0.00    -0.356 OA
HETATM   12  C1  UNL     1      22.306   2.052  47.773  1.00  0.00     0.210 C 
ENDBRANCH   8  11
BRANCH  10  13
HETATM   13  N2  UNL     1      25.162   1.877  52.587  1.00  0.00    -0.398 N 
HETATM   14  H16 UNL     1      25.537   1.663  53.530  1.00  0.00     0.156 HD
HETATM   15  H17 UNL     1      25.904   2.494  52.153  1.00  0.00     0.156 HD
ENDBRANCH  10  13
ENDBRANCH   1   5
BRANCH   2  16
HETATM   16  N1  UNL     1      25.917  -0.552  55.079  1.00  0.00    -0.356 N 
HETATM   17  H6  UNL     1      26.083  -0.584  56.111  1.00  0.00     0.166 HD
BRANCH  16  18
HETATM   18  C8  UNL     1      27.094  -0.470  54.282  1.00  0.00     0.006 C 
HETATM   19  C9  UNL     1      28.041   0.385  54.675  1.00  0.00    -0.002 C 
HETATM   20  C10 UNL     1      29.305   0.548  53.918  1.00  0.00     0.029 C 
HETATM   21  C11 UNL     1      29.881  -0.774  53.481  1.00  0.00     0.004 C 
HETATM   22  C12 UNL     1      28.833  -1.742  53.008  1.00  0.00     0.006 C 
HETATM   23  C13 UNL     1      27.436  -1.212  53.052  1.00  0.00     0.057 C 
ENDBRANCH  16  18
ENDBRANCH   2  16
TORSDOF 5
ENDMDL
MODEL 3
REMARK VINA RESULT:      -7.5      3.944      7.093
REMARK  5 active torsions:
REMARK  status: ('A' for Active; 'I' for Inactive)
REMARK    1  A    between atoms: O1_2  and  C2_3 
REMARK    2  A    between atoms: C5_6  and  C6_7 
REMARK    3  A    between atoms: C7_8  and  N1_9 
REMARK    4  A    between atoms: N1_9  and  C8_10 
REMARK    5  A    between atoms: C15_18  and  N2_19 
ROOT
HETATM    1  C6  UNL     1      23.443   0.509  52.878  1.00  0.00     0.060 A 
HETATM    2  C7  UNL     1      24.729   0.112  53.046  1.00  0.00     0.099 A 
HETATM    3  C14 UNL     1      24.437   1.463  53.145  1.00  0.00     0.213 A 
HETATM    4  O2  UNL     1      24.753   2.666  53.329  1.00  0.00    -0.285 OA
ENDROOT
BRANCH   1   5
HETATM    5  C5  UNL     1      22.024   0.303  52.621  1.00  0.00     0.007 A 
HETATM    6  C4  UNL     1      21.396   0.621  51.431  1.00  0.00     0.017 A 
HETATM    7  C3  UNL     1      20.042   0.360  51.357  1.00  0.00     0.038 A 
HETATM    8  C2  UNL     1      19.300  -0.184  52.367  1.00  0.00     0.070 A 
HETATM    9  C16 UNL     1      19.938  -0.499  53.555  1.00  0.00     0.066 A 
HETATM   10  C15 UNL     1      21.298  -0.251  53.668  1.00  0.00     0.039 A 
BRANCH   8  11
HETATM   11  O1  UNL     1      17.955  -0.400  52.180  1.00  0.00    -0.356 OA
HETATM   12  C1  UNL     1      17.237  -1.359  52.924  1.00  0.00     0.210 C 
ENDBRANCH   8  11
BRANCH  10  13
HETATM   13  N2  UNL     1      21.859  -0.614  54.936  1.00  0.00    -0.398 N 
HETATM   14  H16 UNL     1      22.846  -0.815  55.179  1.00  0.00     0.156 HD
HETATM   15  H17 UNL     1      21.341  -0.738  55.851  1.00  0.00     0.156 HD
ENDBRANCH  10  13
ENDBRANCH   1   5
BRANCH   2  16
HETATM   16  N1  UNL     1      25.734  -0.895  53.102  1.00  0.00    -0.356 N 
HETATM   17  H6  UNL     1      25.512  -1.865  52.778  1.00  0.00     0.166 HD
BRANCH  16  18
HETATM   18  C8  UNL     1      27.064  -0.708  53.574  1.00  0.00     0.006 C 
HETATM   19  C9  UNL     1      28.027  -1.426  52.991  1.00  0.00    -0.002 C 
HETATM   20  C10 UNL     1      29.445  -1.309  53.406  1.00  0.00     0.029 C 
HETATM   21  C11 UNL     1      29.858   0.125  53.622  1.00  0.00     0.004 C 
HETATM   22  C12 UNL     1      28.797   0.944  54.303  1.00  0.00     0.006 C 
HETATM   23  C13 UNL     1      27.553   0.187  54.641  1.00  0.00     0.057 C 
ENDBRANCH  16  18
ENDBRANCH   2  16
TORSDOF 5
ENDMDL
MODEL 4
REMARK VINA RESULT:      -7.3      2.505      6.634
REMARK  5 active torsions:
REMARK  status: ('A' for Active; 'I' for Inactive)
REMARK    1  A    between atoms: O1_2  and  C2_3 
REMARK    2  A    between atoms: C5_6  and  C6_7 
REMARK    3  A    between atoms: C7_8  and  N1_9 
REMARK    4  A    between atoms: N1_9  and  C8_10 
REMARK    5  A    between atoms: C15_18  and  N2_19 
ROOT
HETATM    1  C6  UNL     1      25.290   2.765  51.467  1.00  0.00     0.060 A 
HETATM    2  C7  UNL     1      26.592   2.599  51.809  1.00  0.00     0.099 A 
HETATM    3  C14 UNL     1      26.289   2.907  50.492  1.00  0.00     0.213 A 
HETATM    4  O2  UNL     1      26.603   3.146  49.298  1.00  0.00    -0.285 OA
ENDROOT
BRANCH   1   5
HETATM    5  C5  UNL     1      23.856   2.810  51.723  1.00  0.00     0.007 A 
HETATM    6  C4  UNL     1      23.026   1.705  51.682  1.00  0.00     0.017 A 
HETATM    7  C3  UNL     1      21.689   1.926  51.950  1.00  0.00     0.038 A 
HETATM    8  C2  UNL     1      21.148   3.145  52.248  1.00  0.00     0.070 A 
HETATM    9  C16 UNL     1      21.988   4.244  52.286  1.00  0.00     0.066 A 
HETATM   10  C15 UNL     1      23.337   4.063  52.022  1.00  0.00     0.039 A 
BRANCH   8  11
HETATM   11  O1  UNL     1      19.800   3.245  52.498  1.00  0.00    -0.356 OA
HETATM   12  C1  UNL     1      18.856   3.443  51.470  1.00  0.00     0.210 C 
ENDBRANCH   8  11
BRANCH  10  13
HETATM   13  N2  UNL     1      24.117   5.264  52.088  1.00  0.00    -0.398 N 
HETATM   14  H16 UNL     1      24.992   5.502  51.587  1.00  0.00     0.156 HD
HETATM   15  H17 UNL     1      23.918   6.122  52.674  1.00  0.00     0.156 HD
ENDBRANCH  10  13
ENDBRANCH   1   5
BRANCH   2  16
HETATM   16  N1  UNL     1      27.613   2.320  52.761  1.00  0.00    -0.356 N 
HETATM   17  H6  UNL     1      28.147   3.110  53.191  1.00  0.00     0.166 HD
BRANCH  16  18
HETATM   18  C8  UNL     1      27.997   1.022  53.203  1.00  0.00     0.006 C 
HETATM   19  C9  UNL     1      27.320  -0.017  52.710  1.00  0.00    -0.002 C 
HETATM   20  C10 UNL     1      27.639  -1.410  53.103  1.00  0.00     0.029 C 
HETATM   21  C11 UNL     1      29.124  -1.666  53.142  1.00  0.00     0.004 C 
HETATM   22  C12 UNL     1      29.901  -0.517  53.721  1.00  0.00     0.006 C 
HETATM   23  C13 UNL     1      29.062   0.643  54.153  1.00  0.00     0.057 C 
ENDBRANCH  16  18
ENDBRANCH   2  16
TORSDOF 5
ENDMDL
MODEL 5
REMARK VINA RESULT:      -7.3      3.286      4.010
REMARK  5 active torsions:
REMARK  status: ('A' for Active; 'I' for Inactive)
REMARK    1  A    between atoms: O1_2  and  C2_3 
REMARK    2  A    between atoms: C5_6  and  C6_7 
REMARK    3  A    between atoms: C7_8  and  N1_9 
REMARK    4  A    between atoms: N1_9  and  C8_10 
REMARK    5  A    between atoms: C15_18  and  N2_19 
ROOT
HETATM    1  C6  UNL     1      23.634  -0.372  53.470  1.00  0.00     0.060 A 
HETATM    2  C7  UNL     1      22.355  -0.387  53.018  1.00  0.00     0.099 A 
HETATM    3  C14 UNL     1      22.629  -0.970  54.246  1.00  0.00     0.213 A 
HETATM    4  O2  UNL     1      22.296  -1.577  55.295  1.00  0.00    -0.285 OA
ENDROOT
BRANCH   1   5
HETATM    5  C5  UNL     1      25.055  -0.057  53.394  1.00  0.00     0.007 A 
HETATM    6  C4  UNL     1      25.659   0.543  52.304  1.00  0.00     0.017 A 
HETATM    7  C3  UNL     1      27.018   0.770  52.398  1.00  0.00     0.038 A 
HETATM    8  C2  UNL     1      27.786   0.446  53.481  1.00  0.00     0.070 A 
HETATM    9  C16 UNL     1      27.172  -0.154  54.567  1.00  0.00     0.066 A 
HETATM   10  C15 UNL     1      25.808  -0.399  54.510  1.00  0.00     0.039 A 
BRANCH   8  11
HETATM   11  O1  UNL     1      29.133   0.721  53.464  1.00  0.00    -0.356 OA
HETATM   12  C1  UNL     1      30.109  -0.291  53.560  1.00  0.00     0.210 C 
ENDBRANCH   8  11
BRANCH  10  13
HETATM   13  N2  UNL     1      25.272  -1.023  55.685  1.00  0.00    -0.398 N 
HETATM   14  H16 UNL     1      25.243  -0.665  56.657  1.00  0.00     0.156 HD
HETATM   15  H17 UNL     1      24.810  -1.972  55.749  1.00  0.00     0.156 HD
ENDBRANCH  10  13
ENDBRANCH   1   5
BRANCH   2  16
HETATM   16  N1  UNL     1      21.365  -0.074  52.044  1.00  0.00    -0.356 N 
HETATM   17  H6  UNL     1      20.446  -0.573  52.065  1.00  0.00     0.166 HD
BRANCH  16  18
HETATM   18  C8  UNL     1      21.506   0.886  51.003  1.00  0.00     0.006 C 
HETATM   19  C9  UNL     1      22.453   1.816  51.152  1.00  0.00    -0.002 C 
HETATM   20  C10 UNL     1      22.684   2.862  50.127  1.00  0.00     0.029 C 
HETATM   21  C11 UNL     1      22.651   2.304  48.727  1.00  0.00     0.004 C 
HETATM   22  C12 UNL     1      21.573   1.276  48.532  1.00  0.00     0.006 C 
HETATM   23  C13 UNL     1      20.742   1.011  49.746  1.00  0.00     0.057 C 
ENDBRANCH  16  18
ENDBRANCH   2  16
TORSDOF 5
ENDMDL
MODEL 6
REMARK VINA RESULT:      -7.2      3.294      6.320
REMARK  5 active torsions:
REMARK  status: ('A' for Active; 'I' for Inactive)
REMARK    1  A    between atoms: O1_2  and  C2_3 
REMARK    2  A    between atoms: C5_6  and  C6_7 
REMARK    3  A    between atoms: C7_8  and  N1_9 
REMARK    4  A    between atoms: N1_9  and  C8_10 
REMARK    5  A    between atoms: C15_18  and  N2_19 
ROOT
HETATM    1  C6  UNL     1      23.858   1.710  53.103  1.00  0.00     0.060 A 
HETATM    2  C7  UNL     1      25.149   2.038  53.357  1.00  0.00     0.099 A 
HETATM    3  C14 UNL     1      24.419   2.844  52.498  1.00  0.00     0.213 A 
HETATM    4  O2  UNL     1      24.286   3.834  51.734  1.00  0.00    -0.285 OA
ENDROOT
BRANCH   1   5
HETATM    5  C5  UNL     1      22.655   0.896  53.232  1.00  0.00     0.007 A 
HETATM    6  C4  UNL     1      21.414   1.264  52.747  1.00  0.00     0.017 A 
HETATM    7  C3  UNL     1      20.379   0.374  52.956  1.00  0.00     0.038 A 
HETATM    8  C2  UNL     1      20.505  -0.825  53.600  1.00  0.00     0.070 A 
HETATM    9  C16 UNL     1      21.752  -1.185  54.081  1.00  0.00     0.066 A 
HETATM   10  C15 UNL     1      22.817  -0.316  53.891  1.00  0.00     0.039 A 
BRANCH   8  11
HETATM   11  O1  UNL     1      19.403  -1.633  53.750  1.00  0.00    -0.356 OA
HETATM   12  C1  UNL     1      18.123  -1.252  53.298  1.00  0.00     0.210 C 
ENDBRANCH   8  11
BRANCH  10  13
HETATM   13  N2  UNL     1      24.061  -0.783  54.427  1.00  0.00    -0.398 N 
HETATM   14  H16 UNL     1      24.985  -0.313  54.437  1.00  0.00     0.156 HD
HETATM   15  H17 UNL     1      24.241  -1.707  54.910  1.00  0.00     0.156 HD
ENDBRANCH  10  13
ENDBRANCH   1   5
BRANCH   2  16
HETATM   16  N1  UNL     1      26.399   1.809  53.998  1.00  0.00    -0.356 N 
HETATM   17  H6  UNL     1      26.630   2.326  54.878  1.00  0.00     0.166 HD
BRANCH  16  18
HETATM   18  C8  UNL     1      27.406   0.911  53.545  1.00  0.00     0.006 C 
HETATM   19  C9  UNL     1      28.640   1.081  54.028  1.00  0.00    -0.002 C 
HETATM   20  C10 UNL     1      29.762   0.202  53.622  1.00  0.00     0.029 C 
HETATM   21  C11 UNL     1      29.362  -1.251  53.584  1.00  0.00     0.004 C 
HETATM   22  C12 UNL     1      27.987  -1.465  53.017  1.00  0.00     0.006 C 
HETATM   23  C13 UNL     1      27.289  -0.212  52.595  1.00  0.00     0.057 C 
ENDBRANCH  16  18
ENDBRANCH   2  16
TORSDOF 5
ENDMDL
MODEL 7
REMARK VINA RESULT:      -7.1      3.967      6.142
REMARK  5 active torsions:
REMARK  status: ('A' for Active; 'I' for Inactive)
REMARK    1  A    between atoms: O1_2  and  C2_3 
REMARK    2  A    between atoms: C5_6  and  C6_7 
REMARK    3  A    between atoms: C7_8  and  N1_9 
REMARK    4  A    between atoms: N1_9  and  C8_10 
REMARK    5  A    between atoms: C15_18  and  N2_19 
ROOT
HETATM    1  C6  UNL     1      23.521  -0.362  53.444  1.00  0.00     0.060 A 
HETATM    2  C7  UNL     1      22.235  -0.367  53.010  1.00  0.00     0.099 A 
HETATM    3  C14 UNL     1      22.531  -1.001  54.206  1.00  0.00     0.213 A 
HETATM    4  O2  UNL     1      22.219  -1.658  55.232  1.00  0.00    -0.285 OA
ENDROOT
BRANCH   1   5
HETATM    5  C5  UNL     1      24.938  -0.032  53.362  1.00  0.00     0.007 A 
HETATM    6  C4  UNL     1      25.528   0.591  52.277  1.00  0.00     0.017 A 
HETATM    7  C3  UNL     1      26.885   0.830  52.364  1.00  0.00     0.038 A 
HETATM    8  C2  UNL     1      27.665   0.496  53.436  1.00  0.00     0.070 A 
HETATM    9  C16 UNL     1      27.065  -0.128  54.516  1.00  0.00     0.066 A 
HETATM   10  C15 UNL     1      25.703  -0.385  54.466  1.00  0.00     0.039 A 
BRANCH   8  11
HETATM   11  O1  UNL     1      29.009   0.784  53.412  1.00  0.00    -0.356 OA
HETATM   12  C1  UNL     1      29.995  -0.215  53.541  1.00  0.00     0.210 C 
ENDBRANCH   8  11
BRANCH  10  13
HETATM   13  N2  UNL     1      25.183  -1.032  55.635  1.00  0.00    -0.398 N 
HETATM   14  H16 UNL     1      25.644  -1.200  56.547  1.00  0.00     0.156 HD
HETATM   15  H17 UNL     1      24.220  -1.454  55.755  1.00  0.00     0.156 HD
ENDBRANCH  10  13
ENDBRANCH   1   5
BRANCH   2  16
HETATM   16  N1  UNL     1      21.229  -0.019  52.065  1.00  0.00    -0.356 N 
HETATM   17  H6  UNL     1      21.509   0.309  51.112  1.00  0.00     0.166 HD
BRANCH  16  18
HETATM   18  C8  UNL     1      19.826  -0.074  52.296  1.00  0.00     0.006 C 
HETATM   19  C9  UNL     1      19.033   0.507  51.392  1.00  0.00    -0.002 C 
HETATM   20  C10 UNL     1      17.558   0.507  51.536  1.00  0.00     0.029 C 
HETATM   21  C11 UNL     1      17.029  -0.834  51.977  1.00  0.00     0.004 C 
HETATM   22  C12 UNL     1      17.893  -1.491  53.016  1.00  0.00     0.006 C 
HETATM   23  C13 UNL     1      19.093  -0.696  53.417  1.00  0.00     0.057 C 
ENDBRANCH  16  18
ENDBRANCH   2  16
TORSDOF 5
ENDMDL
MODEL 8
REMARK VINA RESULT:      -7.1      2.501      3.227
REMARK  5 active torsions:
REMARK  status: ('A' for Active; 'I' for Inactive)
REMARK    1  A    between atoms: O1_2  and  C2_3 
REMARK    2  A    between atoms: C5_6  and  C6_7 
REMARK    3  A    between atoms: C7_8  and  N1_9 
REMARK    4  A    between atoms: N1_9  and  C8_10 
REMARK    5  A    between atoms: C15_18  and  N2_19 
ROOT
HETATM    1  C6  UNL     1      23.689   0.508  53.080  1.00  0.00     0.060 A 
HETATM    2  C7  UNL     1      22.513   0.876  52.515  1.00  0.00     0.099 A 
HETATM    3  C14 UNL     1      22.480   0.131  53.683  1.00  0.00     0.213 A 
HETATM    4  O2  UNL     1      21.880  -0.460  54.617  1.00  0.00    -0.285 OA
ENDROOT
BRANCH   1   5
HETATM    5  C5  UNL     1      25.142   0.440  53.173  1.00  0.00     0.007 A 
HETATM    6  C4  UNL     1      25.875  -0.725  53.035  1.00  0.00     0.017 A 
HETATM    7  C3  UNL     1      27.245  -0.611  53.152  1.00  0.00     0.038 A 
HETATM    8  C2  UNL     1      27.910   0.559  53.391  1.00  0.00     0.070 A 
HETATM    9  C16 UNL     1      27.167   1.720  53.528  1.00  0.00     0.066 A 
HETATM   10  C15 UNL     1      25.787   1.646  53.417  1.00  0.00     0.039 A 
BRANCH   8  11
HETATM   11  O1  UNL     1      29.281   0.553  53.488  1.00  0.00    -0.356 OA
HETATM   12  C1  UNL     1      30.024  -0.642  53.569  1.00  0.00     0.210 C 
ENDBRANCH   8  11
BRANCH  10  13
HETATM   13  N2  UNL     1      25.115   2.902  53.575  1.00  0.00    -0.398 N 
HETATM   14  H16 UNL     1      24.908   3.625  52.861  1.00  0.00     0.156 HD
HETATM   15  H17 UNL     1      24.715   3.304  54.467  1.00  0.00     0.156 HD
ENDBRANCH  10  13
ENDBRANCH   1   5
BRANCH   2  16
HETATM   16  N1  UNL     1      21.760   1.529  51.498  1.00  0.00    -0.356 N 
HETATM   17  H6  UNL     1      20.762   1.786  51.681  1.00  0.00     0.166 HD
BRANCH  16  18
HETATM   18  C8  UNL     1      22.246   1.880  50.207  1.00  0.00     0.006 C 
HETATM   19  C9  UNL     1      21.608   1.367  49.153  1.00  0.00    -0.002 C 
HETATM   20  C10 UNL     1      22.032   1.669  47.765  1.00  0.00     0.029 C 
HETATM   21  C11 UNL     1      22.362   3.127  47.575  1.00  0.00     0.004 C 
HETATM   22  C12 UNL     1      23.105   3.716  48.740  1.00  0.00     0.006 C 
HETATM   23  C13 UNL     1      23.382   2.753  49.849  1.00  0.00     0.057 C 
ENDBRANCH  16  18
ENDBRANCH   2  16
TORSDOF 5
ENDMDL
MODEL 9
REMARK VINA RESULT:      -6.9      2.727      6.790
REMARK  5 active torsions:
REMARK  status: ('A' for Active; 'I' for Inactive)
REMARK    1  A    between atoms: O1_2  and  C2_3 
REMARK    2  A    between atoms: C5_6  and  C6_7 
REMARK    3  A    between atoms: C7_8  and  N1_9 
REMARK    4  A    between atoms: N1_9  and  C8_10 
REMARK    5  A    between atoms: C15_18  and  N2_19 
ROOT
HETATM    1  C6  UNL     1      25.952   1.834  52.598  1.00  0.00     0.060 A 
HETATM    2  C7  UNL     1      25.663   0.747  53.356  1.00  0.00     0.099 A 
HETATM    3  C14 UNL     1      26.781   1.501  53.680  1.00  0.00     0.213 A 
HETATM    4  O2  UNL     1      27.795   1.756  54.378  1.00  0.00    -0.285 OA
ENDROOT
BRANCH   1   5
HETATM    5  C5  UNL     1      25.732   2.775  51.507  1.00  0.00     0.007 A 
HETATM    6  C4  UNL     1      26.548   2.878  50.395  1.00  0.00     0.017 A 
HETATM    7  C3  UNL     1      26.195   3.825  49.455  1.00  0.00     0.038 A 
HETATM    8  C2  UNL     1      25.109   4.650  49.553  1.00  0.00     0.070 A 
HETATM    9  C16 UNL     1      24.299   4.539  50.670  1.00  0.00     0.066 A 
HETATM   10  C15 UNL     1      24.622   3.599  51.638  1.00  0.00     0.039 A 
BRANCH   8  11
HETATM   11  O1  UNL     1      24.854   5.557  48.552  1.00  0.00    -0.356 OA
HETATM   12  C1  UNL     1      23.723   6.398  48.569  1.00  0.00     0.210 C 
ENDBRANCH   8  11
BRANCH  10  13
HETATM   13  N2  UNL     1      23.719   3.567  52.751  1.00  0.00    -0.398 N 
HETATM   14  H16 UNL     1      23.406   4.345  53.359  1.00  0.00     0.156 HD
HETATM   15  H17 UNL     1      23.216   2.721  53.140  1.00  0.00     0.156 HD
ENDBRANCH  10  13
ENDBRANCH   1   5
BRANCH   2  16
HETATM   16  N1  UNL     1      24.858  -0.382  53.675  1.00  0.00    -0.356 N 
HETATM   17  H6  UNL     1      25.315  -1.272  53.982  1.00  0.00     0.166 HD
BRANCH  16  18
HETATM   18  C8  UNL     1      23.436  -0.425  53.614  1.00  0.00     0.006 C 
HETATM   19  C9  UNL     1      22.799  -1.051  54.608  1.00  0.00    -0.002 C 
HETATM   20  C10 UNL     1      21.321  -1.153  54.642  1.00  0.00     0.029 C 
HETATM   21  C11 UNL     1      20.652   0.145  54.267  1.00  0.00     0.004 C 
HETATM   22  C12 UNL     1      21.338   0.851  53.132  1.00  0.00     0.006 C 
HETATM   23  C13 UNL     1      22.533   0.136  52.589  1.00  0.00     0.057 C 
ENDBRANCH  16  18
ENDBRANCH   2  16
TORSDOF 5
ENDMDL
