MODEL 1
REMARK VINA RESULT:      -7.9      0.000      0.000
REMARK  5 active torsions:
REMARK  status: ('A' for Active; 'I' for Inactive)
REMARK    1  A    between atoms: C2_2  and  C3_3 
REMARK    2  A    between atoms: C3_3  and  C4_4 
REMARK    3  A    between atoms: C5_6  and  N1_8 
REMARK    4  A    between atoms: N1_8  and  C7_9 
REMARK    5  A    between atoms: C7_9  and  C8_10 
ROOT
HETATM    1  C8  UNL     1      23.767  -0.304  53.145  1.00  0.00     0.010 C 
HETATM    2  C9  UNL     1      22.537  -0.592  53.504  1.00  0.00     0.042 A 
HETATM    3  C10 UNL     1      22.024  -1.266  54.680  1.00  0.00     0.256 A 
HETATM    4  O2  UNL     1      22.685  -1.739  55.644  1.00  0.00    -0.267 OA
HETATM    5  N2  UNL     1      20.616  -1.360  54.668  1.00  0.00    -0.322 N 
HETATM    6  C11 UNL     1      20.207  -0.737  53.462  1.00  0.00     0.046 A 
HETATM    7  C12 UNL     1      18.928  -0.561  52.966  1.00  0.00     0.030 A 
HETATM    8  C13 UNL     1      18.749   0.080  51.757  1.00  0.00     0.002 A 
HETATM    9  C14 UNL     1      19.809   0.559  51.012  1.00  0.00     0.001 A 
HETATM   10  C15 UNL     1      21.063   0.357  51.552  1.00  0.00     0.014 A 
HETATM   11  C16 UNL     1      21.304  -0.285  52.770  1.00  0.00     0.006 A 
HETATM   12  H14 UNL     1      19.983  -1.788  55.373  1.00  0.00     0.169 HD
ENDROOT
BRANCH   1  13
HETATM   13  C7  UNL     1      24.991  -0.619  53.909  1.00  0.00     0.148 C 
BRANCH  13  14
HETATM   14  N1  UNL     1      26.179  -0.275  53.164  1.00  0.00    -0.389 N 
HETATM   15  H10 UNL     1      26.438  -0.924  52.359  1.00  0.00     0.159 HD
BRANCH  14  16
HETATM   16  C5  UNL     1      27.001   0.856  53.433  1.00  0.00     0.010 C 
HETATM   17  C3  UNL     1      28.160   0.638  53.988  1.00  0.00     0.001 C 
HETATM   18  C6  UNL     1      26.546   2.237  53.103  1.00  0.00     0.068 C 
BRANCH  17  19
HETATM   19  C2  UNL     1      28.909  -0.561  54.438  1.00  0.00     0.039 C 
HETATM   20  C1  UNL     1      29.841  -1.067  53.361  1.00  0.00     0.010 C 
ENDBRANCH  17  19
BRANCH  17  21
HETATM   21  C4  UNL     1      29.005   1.784  54.282  1.00  0.00     0.267 C 
HETATM   22  O1  UNL     1      29.821   2.487  54.895  1.00  0.00    -0.302 OA
ENDBRANCH  17  21
ENDBRANCH  14  16
ENDBRANCH  13  14
ENDBRANCH   1  13
TORSDOF 5
ENDMDL
MODEL 2
REMARK VINA RESULT:      -7.6      2.108      7.814
REMARK  5 active torsions:
REMARK  status: ('A' for Active; 'I' for Inactive)
REMARK    1  A    between atoms: C2_2  and  C3_3 
REMARK    2  A    between atoms: C3_3  and  C4_4 
REMARK    3  A    between atoms: C5_6  and  N1_8 
REMARK    4  A    between atoms: N1_8  and  C7_9 
REMARK    5  A    between atoms: C7_9  and  C8_10 
ROOT
HETATM    1  C8  UNL     1      24.641   0.180  52.519  1.00  0.00     0.010 C 
HETATM    2  C9  UNL     1      25.658   0.824  53.046  1.00  0.00     0.042 A 
HETATM    3  C10 UNL     1      25.761   2.173  53.564  1.00  0.00     0.256 A 
HETATM    4  O2  UNL     1      24.856   3.049  53.613  1.00  0.00    -0.267 OA
HETATM    5  N2  UNL     1      27.055   2.460  54.049  1.00  0.00    -0.322 N 
HETATM    6  C11 UNL     1      27.806   1.274  53.842  1.00  0.00     0.046 A 
HETATM    7  C12 UNL     1      29.132   1.023  54.143  1.00  0.00     0.030 A 
HETATM    8  C13 UNL     1      29.672  -0.213  53.856  1.00  0.00     0.002 A 
HETATM    9  C14 UNL     1      28.933  -1.224  53.272  1.00  0.00     0.001 A 
HETATM   10  C15 UNL     1      27.617  -0.922  52.993  1.00  0.00     0.014 A 
HETATM   11  C16 UNL     1      27.016   0.312  53.261  1.00  0.00     0.006 A 
HETATM   12  H14 UNL     1      27.415   3.338  54.472  1.00  0.00     0.169 HD
ENDROOT
BRANCH   1  13
HETATM   13  C7  UNL     1      23.281   0.718  52.321  1.00  0.00     0.148 C 
BRANCH  13  14
HETATM   14  N1  UNL     1      22.499   0.629  53.531  1.00  0.00    -0.389 N 
HETATM   15  H10 UNL     1      22.763   1.300  54.316  1.00  0.00     0.159 HD
BRANCH  14  16
HETATM   16  C5  UNL     1      21.419  -0.278  53.731  1.00  0.00     0.010 C 
HETATM   17  C3  UNL     1      20.278   0.016  53.176  1.00  0.00     0.001 C 
HETATM   18  C6  UNL     1      21.589  -1.510  54.554  1.00  0.00     0.068 C 
BRANCH  17  19
HETATM   19  C2  UNL     1      19.767   1.117  52.323  1.00  0.00     0.039 C 
HETATM   20  C1  UNL     1      19.422   0.627  50.935  1.00  0.00     0.010 C 
ENDBRANCH  17  19
BRANCH  17  21
HETATM   21  C4  UNL     1      19.162  -0.894  53.383  1.00  0.00     0.267 C 
HETATM   22  O1  UNL     1      17.987  -1.266  53.508  1.00  0.00    -0.302 OA
ENDBRANCH  17  21
ENDBRANCH  14  16
ENDBRANCH  13  14
ENDBRANCH   1  13
TORSDOF 5
ENDMDL
MODEL 3
REMARK VINA RESULT:      -7.6      3.242      7.136
REMARK  5 active torsions:
REMARK  status: ('A' for Active; 'I' for Inactive)
REMARK    1  A    between atoms: C2_2  and  C3_3 
REMARK    2  A    between atoms: C3_3  and  C4_4 
REMARK    3  A    between atoms: C5_6  and  N1_8 
REMARK    4  A    between atoms: N1_8  and  C7_9 
REMARK    5  A    between atoms: C7_9  and  C8_10 
ROOT
HETATM    1  C8  UNL     1      24.527   0.095  53.054  1.00  0.00     0.010 C 
HETATM    2  C9  UNL     1      25.606   0.794  53.326  1.00  0.00     0.042 A 
HETATM    3  C10 UNL     1      25.772   2.197  53.647  1.00  0.00     0.256 A 
HETATM    4  O2  UNL     1      24.874   3.077  53.732  1.00  0.00    -0.267 OA
HETATM    5  N2  UNL     1      27.123   2.534  53.879  1.00  0.00    -0.322 N 
HETATM    6  C11 UNL     1      27.848   1.327  53.704  1.00  0.00     0.046 A 
HETATM    7  C12 UNL     1      29.208   1.108  53.817  1.00  0.00     0.030 A 
HETATM    8  C13 UNL     1      29.713  -0.159  53.604  1.00  0.00     0.002 A 
HETATM    9  C14 UNL     1      28.904  -1.230  53.278  1.00  0.00     0.001 A 
HETATM   10  C15 UNL     1      27.555  -0.957  53.179  1.00  0.00     0.014 A 
HETATM   11  C16 UNL     1      26.989   0.305  53.383  1.00  0.00     0.006 A 
HETATM   12  H14 UNL     1      27.534   3.456  54.125  1.00  0.00     0.169 HD
ENDROOT
BRANCH   1  13
HETATM   13  C7  UNL     1      23.145   0.613  53.012  1.00  0.00     0.148 C 
BRANCH  13  14
HETATM   14  N1  UNL     1      23.032   1.734  52.110  1.00  0.00    -0.389 N 
HETATM   15  H10 UNL     1      23.329   2.683  52.494  1.00  0.00     0.159 HD
BRANCH  14  16
HETATM   16  C5  UNL     1      22.561   1.648  50.769  1.00  0.00     0.010 C 
HETATM   17  C3  UNL     1      23.059   2.485  49.903  1.00  0.00     0.001 C 
HETATM   18  C6  UNL     1      21.530   0.645  50.376  1.00  0.00     0.068 C 
BRANCH  17  19
HETATM   19  C2  UNL     1      24.063   3.576  49.941  1.00  0.00     0.039 C 
HETATM   20  C1  UNL     1      25.471   3.037  49.836  1.00  0.00     0.010 C 
ENDBRANCH  17  19
BRANCH  17  21
HETATM   21  C4  UNL     1      22.578   2.418  48.532  1.00  0.00     0.267 C 
HETATM   22  O1  UNL     1      22.573   2.138  47.325  1.00  0.00    -0.302 OA
ENDBRANCH  17  21
ENDBRANCH  14  16
ENDBRANCH  13  14
ENDBRANCH   1  13
TORSDOF 5
ENDMDL
MODEL 4
REMARK VINA RESULT:      -7.6      2.380      7.172
REMARK  5 active torsions:
REMARK  status: ('A' for Active; 'I' for Inactive)
REMARK    1  A    between atoms: C2_2  and  C3_3 
REMARK    2  A    between atoms: C3_3  and  C4_4 
REMARK    3  A    between atoms: C5_6  and  N1_8 
REMARK    4  A    between atoms: N1_8  and  C7_9 
REMARK    5  A    between atoms: C7_9  and  C8_10 
ROOT
HETATM    1  C8  UNL     1      23.756   1.163  51.671  1.00  0.00     0.010 C 
HETATM    2  C9  UNL     1      24.729   1.469  52.498  1.00  0.00     0.042 A 
HETATM    3  C10 UNL     1      24.949   2.648  53.311  1.00  0.00     0.256 A 
HETATM    4  O2  UNL     1      24.220   3.674  53.389  1.00  0.00    -0.267 OA
HETATM    5  N2  UNL     1      26.135   2.559  54.069  1.00  0.00    -0.322 N 
HETATM    6  C11 UNL     1      26.697   1.298  53.743  1.00  0.00     0.046 A 
HETATM    7  C12 UNL     1      27.861   0.718  54.212  1.00  0.00     0.030 A 
HETATM    8  C13 UNL     1      28.229  -0.533  53.761  1.00  0.00     0.002 A 
HETATM    9  C14 UNL     1      27.471  -1.239  52.847  1.00  0.00     0.001 A 
HETATM   10  C15 UNL     1      26.319  -0.617  52.412  1.00  0.00     0.014 A 
HETATM   11  C16 UNL     1      25.898   0.648  52.834  1.00  0.00     0.006 A 
HETATM   12  H14 UNL     1      26.542   3.249  54.732  1.00  0.00     0.169 HD
ENDROOT
BRANCH   1  13
HETATM   13  C7  UNL     1      22.585   2.007  51.357  1.00  0.00     0.148 C 
BRANCH  13  14
HETATM   14  N1  UNL     1      21.565   1.889  52.373  1.00  0.00    -0.389 N 
HETATM   15  H10 UNL     1      21.616   2.584  53.179  1.00  0.00     0.159 HD
BRANCH  14  16
HETATM   16  C5  UNL     1      20.518   0.924  52.357  1.00  0.00     0.010 C 
HETATM   17  C3  UNL     1      20.429   0.118  53.377  1.00  0.00     0.001 C 
HETATM   18  C6  UNL     1      19.569   0.834  51.210  1.00  0.00     0.068 C 
BRANCH  17  19
HETATM   19  C2  UNL     1      21.175  -0.072  54.645  1.00  0.00     0.039 C 
HETATM   20  C1  UNL     1      22.349  -1.006  54.463  1.00  0.00     0.010 C 
ENDBRANCH  17  19
BRANCH  17  21
HETATM   21  C4  UNL     1      19.373  -0.883  53.368  1.00  0.00     0.267 C 
HETATM   22  O1  UNL     1      18.695  -1.845  53.755  1.00  0.00    -0.302 OA
ENDBRANCH  17  21
ENDBRANCH  14  16
ENDBRANCH  13  14
ENDBRANCH   1  13
TORSDOF 5
ENDMDL
MODEL 5
REMARK VINA RESULT:      -7.4      3.343      5.278
REMARK  5 active torsions:
REMARK  status: ('A' for Active; 'I' for Inactive)
REMARK    1  A    between atoms: C2_2  and  C3_3 
REMARK    2  A    between atoms: C3_3  and  C4_4 
REMARK    3  A    between atoms: C5_6  and  N1_8 
REMARK    4  A    between atoms: N1_8  and  C7_9 
REMARK    5  A    between atoms: C7_9  and  C8_10 
ROOT
HETATM    1  C8  UNL     1      25.597   1.045  52.006  1.00  0.00     0.010 C 
HETATM    2  C9  UNL     1      25.390   0.383  53.122  1.00  0.00     0.042 A 
HETATM    3  C10 UNL     1      26.285   0.065  54.217  1.00  0.00     0.256 A 
HETATM    4  O2  UNL     1      27.504   0.369  54.325  1.00  0.00    -0.267 OA
HETATM    5  N2  UNL     1      25.641  -0.668  55.235  1.00  0.00    -0.322 N 
HETATM    6  C11 UNL     1      24.302  -0.829  54.794  1.00  0.00     0.046 A 
HETATM    7  C12 UNL     1      23.253  -1.474  55.423  1.00  0.00     0.030 A 
HETATM    8  C13 UNL     1      22.016  -1.515  54.813  1.00  0.00     0.002 A 
HETATM    9  C14 UNL     1      21.780  -0.932  53.583  1.00  0.00     0.001 A 
HETATM   10  C15 UNL     1      22.860  -0.301  53.000  1.00  0.00     0.014 A 
HETATM   11  C16 UNL     1      24.134  -0.228  53.571  1.00  0.00     0.006 A 
HETATM   12  H14 UNL     1      26.030  -1.028  56.129  1.00  0.00     0.169 HD
ENDROOT
BRANCH   1  13
HETATM   13  C7  UNL     1      26.872   1.657  51.583  1.00  0.00     0.148 C 
BRANCH  13  14
HETATM   14  N1  UNL     1      26.757   3.093  51.479  1.00  0.00    -0.389 N 
HETATM   15  H10 UNL     1      27.109   3.658  52.311  1.00  0.00     0.159 HD
BRANCH  14  16
HETATM   16  C5  UNL     1      26.218   3.781  50.355  1.00  0.00     0.010 C 
HETATM   17  C3  UNL     1      24.993   4.218  50.448  1.00  0.00     0.001 C 
HETATM   18  C6  UNL     1      27.021   3.981  49.114  1.00  0.00     0.068 C 
BRANCH  17  19
HETATM   19  C2  UNL     1      23.939   4.197  51.491  1.00  0.00     0.039 C 
HETATM   20  C1  UNL     1      22.824   3.242  51.131  1.00  0.00     0.010 C 
ENDBRANCH  17  19
BRANCH  17  21
HETATM   21  C4  UNL     1      24.424   4.909  49.303  1.00  0.00     0.267 C 
HETATM   22  O1  UNL     1      23.795   5.772  48.674  1.00  0.00    -0.302 OA
ENDBRANCH  17  21
ENDBRANCH  14  16
ENDBRANCH  13  14
ENDBRANCH   1  13
TORSDOF 5
ENDMDL
MODEL 6
REMARK VINA RESULT:      -7.4      3.568      6.447
REMARK  5 active torsions:
REMARK  status: ('A' for Active; 'I' for Inactive)
REMARK    1  A    between atoms: C2_2  and  C3_3 
REMARK    2  A    between atoms: C3_3  and  C4_4 
REMARK    3  A    between atoms: C5_6  and  N1_8 
REMARK    4  A    between atoms: N1_8  and  C7_9 
REMARK    5  A    between atoms: C7_9  and  C8_10 
ROOT
HETATM    1  C8  UNL     1      23.793   0.943  52.131  1.00  0.00     0.010 C 
HETATM    2  C9  UNL     1      24.888   1.267  52.782  1.00  0.00     0.042 A 
HETATM    3  C10 UNL     1      25.240   2.472  53.506  1.00  0.00     0.256 A 
HETATM    4  O2  UNL     1      24.537   3.507  53.664  1.00  0.00    -0.267 OA
HETATM    5  N2  UNL     1      26.532   2.397  54.067  1.00  0.00    -0.322 N 
HETATM    6  C11 UNL     1      27.029   1.120  53.702  1.00  0.00     0.046 A 
HETATM    7  C12 UNL     1      28.251   0.545  53.999  1.00  0.00     0.030 A 
HETATM    8  C13 UNL     1      28.536  -0.724  53.539  1.00  0.00     0.002 A 
HETATM    9  C14 UNL     1      27.639  -1.454  52.784  1.00  0.00     0.001 A 
HETATM   10  C15 UNL     1      26.435  -0.835  52.516  1.00  0.00     0.014 A 
HETATM   11  C16 UNL     1      26.092   0.447  52.955  1.00  0.00     0.006 A 
HETATM   12  H14 UNL     1      27.042   3.105  54.632  1.00  0.00     0.169 HD
ENDROOT
BRANCH   1  13
HETATM   13  C7  UNL     1      22.591   1.787  51.979  1.00  0.00     0.148 C 
BRANCH  13  14
HETATM   14  N1  UNL     1      22.664   2.595  50.785  1.00  0.00    -0.389 N 
HETATM   15  H10 UNL     1      22.368   2.125  49.876  1.00  0.00     0.159 HD
BRANCH  14  16
HETATM   16  C5  UNL     1      23.093   3.953  50.754  1.00  0.00     0.010 C 
HETATM   17  C3  UNL     1      24.221   4.212  50.155  1.00  0.00     0.001 C 
HETATM   18  C6  UNL     1      22.287   5.032  51.394  1.00  0.00     0.068 C 
BRANCH  17  19
HETATM   19  C2  UNL     1      25.246   3.416  49.437  1.00  0.00     0.039 C 
HETATM   20  C1  UNL     1      26.534   3.333  50.225  1.00  0.00     0.010 C 
ENDBRANCH  17  19
BRANCH  17  21
HETATM   21  C4  UNL     1      24.679   5.592  50.127  1.00  0.00     0.267 C 
HETATM   22  O1  UNL     1      25.350   6.590  50.429  1.00  0.00    -0.302 OA
ENDBRANCH  17  21
ENDBRANCH  14  16
ENDBRANCH  13  14
ENDBRANCH   1  13
TORSDOF 5
ENDMDL
MODEL 7
REMARK VINA RESULT:      -7.3      2.633      7.670
REMARK  5 active torsions:
REMARK  status: ('A' for Active; 'I' for Inactive)
REMARK    1  A    between atoms: C2_2  and  C3_3 
REMARK    2  A    between atoms: C3_3  and  C4_4 
REMARK    3  A    between atoms: C5_6  and  N1_8 
REMARK    4  A    between atoms: N1_8  and  C7_9 
REMARK    5  A    between atoms: C7_9  and  C8_10 
ROOT
HETATM    1  C8  UNL     1      24.653  -0.086  53.227  1.00  0.00     0.010 C 
HETATM    2  C9  UNL     1      25.720   0.654  53.427  1.00  0.00     0.042 A 
HETATM    3  C10 UNL     1      25.857   2.072  53.695  1.00  0.00     0.256 A 
HETATM    4  O2  UNL     1      24.935   2.927  53.792  1.00  0.00    -0.267 OA
HETATM    5  N2  UNL     1      27.204   2.457  53.853  1.00  0.00    -0.322 N 
HETATM    6  C11 UNL     1      27.959   1.267  53.684  1.00  0.00     0.046 A 
HETATM    7  C12 UNL     1      29.329   1.093  53.741  1.00  0.00     0.030 A 
HETATM    8  C13 UNL     1      29.863  -0.164  53.546  1.00  0.00     0.002 A 
HETATM    9  C14 UNL     1      29.075  -1.270  53.291  1.00  0.00     0.001 A 
HETATM   10  C15 UNL     1      27.715  -1.041  53.246  1.00  0.00     0.014 A 
HETATM   11  C16 UNL     1      27.119   0.209  53.435  1.00  0.00     0.006 A 
HETATM   12  H14 UNL     1      27.597   3.399  54.050  1.00  0.00     0.169 HD
ENDROOT
BRANCH   1  13
HETATM   13  C7  UNL     1      23.255   0.389  53.232  1.00  0.00     0.148 C 
BRANCH  13  14
HETATM   14  N1  UNL     1      22.917   1.041  51.989  1.00  0.00    -0.389 N 
HETATM   15  H10 UNL     1      23.446   0.714  51.123  1.00  0.00     0.159 HD
BRANCH  14  16
HETATM   16  C5  UNL     1      21.938   2.067  51.855  1.00  0.00     0.010 C 
HETATM   17  C3  UNL     1      20.687   1.720  51.964  1.00  0.00     0.001 C 
HETATM   18  C6  UNL     1      22.333   3.480  51.588  1.00  0.00     0.068 C 
BRANCH  17  19
HETATM   19  C2  UNL     1      19.957   0.454  52.217  1.00  0.00     0.039 C 
HETATM   20  C1  UNL     1      18.863   0.232  51.198  1.00  0.00     0.010 C 
ENDBRANCH  17  19
BRANCH  17  21
HETATM   21  C4  UNL     1      19.675   2.755  51.815  1.00  0.00     0.267 C 
HETATM   22  O1  UNL     1      18.796   3.562  52.147  1.00  0.00    -0.302 OA
ENDBRANCH  17  21
ENDBRANCH  14  16
ENDBRANCH  13  14
ENDBRANCH   1  13
TORSDOF 5
ENDMDL
MODEL 8
REMARK VINA RESULT:      -7.2      4.399      6.719
REMARK  5 active torsions:
REMARK  status: ('A' for Active; 'I' for Inactive)
REMARK    1  A    between atoms: C2_2  and  C3_3 
REMARK    2  A    between atoms: C3_3  and  C4_4 
REMARK    3  A    between atoms: C5_6  and  N1_8 
REMARK    4  A    between atoms: N1_8  and  C7_9 
REMARK    5  A    between atoms: C7_9  and  C8_10 
ROOT
HETATM    1  C8  UNL     1      24.350   2.966  50.497  1.00  0.00     0.010 C 
HETATM    2  C9  UNL     1      24.437   4.253  50.743  1.00  0.00     0.042 A 
HETATM    3  C10 UNL     1      23.739   5.086  51.701  1.00  0.00     0.256 A 
HETATM    4  O2  UNL     1      22.859   4.729  52.531  1.00  0.00    -0.267 OA
HETATM    5  N2  UNL     1      24.147   6.434  51.633  1.00  0.00    -0.322 N 
HETATM    6  C11 UNL     1      25.130   6.479  50.610  1.00  0.00     0.046 A 
HETATM    7  C12 UNL     1      25.849   7.564  50.144  1.00  0.00     0.030 A 
HETATM    8  C13 UNL     1      26.768   7.386  49.130  1.00  0.00     0.002 A 
HETATM    9  C14 UNL     1      27.001   6.153  48.553  1.00  0.00     0.001 A 
HETATM   10  C15 UNL     1      26.257   5.105  49.055  1.00  0.00     0.014 A 
HETATM   11  C16 UNL     1      25.314   5.226  50.080  1.00  0.00     0.006 A 
HETATM   12  H14 UNL     1      23.821   7.246  52.193  1.00  0.00     0.169 HD
ENDROOT
BRANCH   1  13
HETATM   13  C7  UNL     1      23.463   2.008  51.186  1.00  0.00     0.148 C 
BRANCH  13  14
HETATM   14  N1  UNL     1      23.949   1.700  52.510  1.00  0.00    -0.389 N 
HETATM   15  H10 UNL     1      23.899   2.486  53.228  1.00  0.00     0.159 HD
BRANCH  14  16
HETATM   16  C5  UNL     1      24.475   0.436  52.904  1.00  0.00     0.010 C 
HETATM   17  C3  UNL     1      25.735   0.207  52.659  1.00  0.00     0.001 C 
HETATM   18  C6  UNL     1      23.612  -0.589  53.559  1.00  0.00     0.068 C 
BRANCH  17  19
HETATM   19  C2  UNL     1      26.849   0.969  52.045  1.00  0.00     0.039 C 
HETATM   20  C1  UNL     1      27.397   2.010  52.995  1.00  0.00     0.010 C 
ENDBRANCH  17  19
BRANCH  17  21
HETATM   21  C4  UNL     1      26.282  -1.084  53.043  1.00  0.00     0.267 C 
HETATM   22  O1  UNL     1      27.024  -2.076  53.011  1.00  0.00    -0.302 OA
ENDBRANCH  17  21
ENDBRANCH  14  16
ENDBRANCH  13  14
ENDBRANCH   1  13
TORSDOF 5
ENDMDL
MODEL 9
REMARK VINA RESULT:      -7.2      3.265      6.913
REMARK  5 active torsions:
REMARK  status: ('A' for Active; 'I' for Inactive)
REMARK    1  A    between atoms: C2_2  and  C3_3 
REMARK    2  A    between atoms: C3_3  and  C4_4 
REMARK    3  A    between atoms: C5_6  and  N1_8 
REMARK    4  A    between atoms: N1_8  and  C7_9 
REMARK    5  A    between atoms: C7_9  and  C8_10 
ROOT
HETATM    1  C8  UNL     1      25.966   2.326  53.539  1.00  0.00     0.010 C 
HETATM    2  C9  UNL     1      26.225   1.051  53.360  1.00  0.00     0.042 A 
HETATM    3  C10 UNL     1      25.345  -0.067  53.086  1.00  0.00     0.256 A 
HETATM    4  O2  UNL     1      24.091  -0.045  52.962  1.00  0.00    -0.267 OA
HETATM    5  N2  UNL     1      26.051  -1.281  52.956  1.00  0.00    -0.322 N 
HETATM    6  C11 UNL     1      27.416  -0.946  53.150  1.00  0.00     0.046 A 
HETATM    7  C12 UNL     1      28.525  -1.772  53.126  1.00  0.00     0.030 A 
HETATM    8  C13 UNL     1      29.778  -1.235  53.341  1.00  0.00     0.002 A 
HETATM    9  C14 UNL     1      29.972   0.111  53.585  1.00  0.00     0.001 A 
HETATM   10  C15 UNL     1      28.833   0.889  53.598  1.00  0.00     0.014 A 
HETATM   11  C16 UNL     1      27.541   0.401  53.386  1.00  0.00     0.006 A 
HETATM   12  H14 UNL     1      25.685  -2.235  52.762  1.00  0.00     0.169 HD
ENDROOT
BRANCH   1  13
HETATM   13  C7  UNL     1      24.630   2.955  53.500  1.00  0.00     0.148 C 
BRANCH  13  14
HETATM   14  N1  UNL     1      24.425   3.676  52.266  1.00  0.00    -0.389 N 
HETATM   15  H10 UNL     1      24.934   4.608  52.171  1.00  0.00     0.159 HD
BRANCH  14  16
HETATM   16  C5  UNL     1      23.606   3.223  51.192  1.00  0.00     0.010 C 
HETATM   17  C3  UNL     1      24.042   3.421  49.980  1.00  0.00     0.001 C 
HETATM   18  C6  UNL     1      22.295   2.560  51.449  1.00  0.00     0.068 C 
BRANCH  17  19
HETATM   19  C2  UNL     1      25.253   4.026  49.376  1.00  0.00     0.039 C 
HETATM   20  C1  UNL     1      26.471   3.156  49.588  1.00  0.00     0.010 C 
ENDBRANCH  17  19
BRANCH  17  21
HETATM   21  C4  UNL     1      23.209   2.977  48.873  1.00  0.00     0.267 C 
HETATM   22  O1  UNL     1      22.895   2.372  47.838  1.00  0.00    -0.302 OA
ENDBRANCH  17  21
ENDBRANCH  14  16
ENDBRANCH  13  14
ENDBRANCH   1  13
TORSDOF 5
ENDMDL
