MODEL 1
REMARK VINA RESULT:      -7.7      0.000      0.000
REMARK  4 active torsions:
REMARK  status: ('A' for Active; 'I' for Inactive)
REMARK    1  A    between atoms: O1_2  and  C2_3 
REMARK    2  A    between atoms: C7_8  and  C8_9 
REMARK    3  A    between atoms: N1_10  and  C9_11 
REMARK    4  A    between atoms: C10_13  and  C11_14 
ROOT
HETATM    1  C9  UNL     1      25.907   1.872  51.740  1.00  0.00     0.193 A 
HETATM    2  N2  UNL     1      24.771   1.512  51.934  1.00  0.00    -0.222 NA
HETATM    3  C10 UNL     1      24.427   0.496  52.709  1.00  0.00     0.076 A 
HETATM    4  C17 UNL     1      25.580  -0.223  53.367  1.00  0.00     0.086 A 
HETATM    5  S1  UNL     1      27.013   0.704  52.748  1.00  0.00    -0.060 SA
ENDROOT
BRANCH   1   6
HETATM    6  N1  UNL     1      26.514   2.893  50.981  1.00  0.00    -0.234 NA
HETATM    7  C8  UNL     1      25.814   3.636  50.178  1.00  0.00     0.129 C 
BRANCH   7   8
HETATM    8  C7  UNL     1      26.489   4.677  49.416  1.00  0.00    -0.008 A 
HETATM    9  C2  UNL     1      25.975   6.049  49.176  1.00  0.00     0.184 A 
HETATM   10  C3  UNL     1      27.028   6.702  48.355  1.00  0.00    -0.051 A 
HETATM   11  C4  UNL     1      26.982   8.100  47.851  1.00  0.00     0.046 C 
HETATM   12  C5  UNL     1      28.006   5.833  48.152  1.00  0.00     0.006 A 
HETATM   13  C6  UNL     1      27.664   4.569  48.818  1.00  0.00     0.012 A 
BRANCH   9  14
HETATM   14  O1  UNL     1      25.666   6.731  50.329  1.00  0.00    -0.382 OA
HETATM   15  C1  UNL     1      24.311   7.038  50.429  1.00  0.00     0.202 C 
ENDBRANCH   9  14
ENDBRANCH   7   8
ENDBRANCH   1   6
BRANCH   3  16
HETATM   16  C11 UNL     1      23.059   0.069  52.940  1.00  0.00    -0.007 A 
HETATM   17  C12 UNL     1      22.642  -0.728  53.971  1.00  0.00     0.015 A 
HETATM   18  C13 UNL     1      21.334  -1.116  54.163  1.00  0.00     0.024 A 
HETATM   19  C14 UNL     1      20.361  -0.697  53.282  1.00  0.00     0.034 A 
HETATM   20 CL1  UNL     1      18.685  -1.166  53.484  1.00  0.00    -0.084 Cl
HETATM   21  C15 UNL     1      20.729   0.104  52.229  1.00  0.00     0.024 A 
HETATM   22  C16 UNL     1      22.047   0.456  52.094  1.00  0.00     0.015 A 
ENDBRANCH   3  16
TORSDOF 4
ENDMDL
MODEL 2
REMARK VINA RESULT:      -7.5      4.203      8.815
REMARK  4 active torsions:
REMARK  status: ('A' for Active; 'I' for Inactive)
REMARK    1  A    between atoms: O1_2  and  C2_3 
REMARK    2  A    between atoms: C7_8  and  C8_9 
REMARK    3  A    between atoms: N1_10  and  C9_11 
REMARK    4  A    between atoms: C10_13  and  C11_14 
ROOT
HETATM    1  C9  UNL     1      24.140   3.927  50.554  1.00  0.00     0.193 A 
HETATM    2  N2  UNL     1      25.192   4.325  50.113  1.00  0.00    -0.222 NA
HETATM    3  C10 UNL     1      25.313   5.272  49.197  1.00  0.00     0.076 A 
HETATM    4  C17 UNL     1      24.010   5.857  48.708  1.00  0.00     0.086 A 
HETATM    5  S1  UNL     1      22.787   4.925  49.672  1.00  0.00    -0.060 SA
ENDROOT
BRANCH   1   6
HETATM    6  N1  UNL     1      23.758   2.959  51.504  1.00  0.00    -0.234 NA
HETATM    7  C8  UNL     1      24.364   1.813  51.572  1.00  0.00     0.129 C 
BRANCH   7   8
HETATM    8  C7  UNL     1      23.931   0.846  52.571  1.00  0.00    -0.008 A 
HETATM    9  C2  UNL     1      22.524   0.521  52.913  1.00  0.00     0.184 A 
HETATM   10  C3  UNL     1      22.630  -0.510  53.979  1.00  0.00    -0.051 A 
HETATM   11  C4  UNL     1      21.481  -1.165  54.658  1.00  0.00     0.046 C 
HETATM   12  C5  UNL     1      23.911  -0.745  54.216  1.00  0.00     0.006 A 
HETATM   13  C6  UNL     1      24.721   0.106  53.333  1.00  0.00     0.012 A 
BRANCH   9  14
HETATM   14  O1  UNL     1      21.771   0.128  51.833  1.00  0.00    -0.382 OA
HETATM   15  C1  UNL     1      20.649   0.928  51.636  1.00  0.00     0.202 C 
ENDBRANCH   9  14
ENDBRANCH   7   8
ENDBRANCH   1   6
BRANCH   3  16
HETATM   16  C11 UNL     1      26.581   5.745  48.672  1.00  0.00    -0.007 A 
HETATM   17  C12 UNL     1      26.797   6.977  48.118  1.00  0.00     0.015 A 
HETATM   18  C13 UNL     1      28.014   7.397  47.628  1.00  0.00     0.024 A 
HETATM   19  C14 UNL     1      29.101   6.553  47.683  1.00  0.00     0.034 A 
HETATM   20 CL1  UNL     1      30.669   7.042  47.072  1.00  0.00    -0.084 Cl
HETATM   21  C15 UNL     1      28.936   5.305  48.231  1.00  0.00     0.024 A 
HETATM   22  C16 UNL     1      27.699   4.946  48.701  1.00  0.00     0.015 A 
ENDBRANCH   3  16
TORSDOF 4
ENDMDL
MODEL 3
REMARK VINA RESULT:      -7.4      4.674      9.347
REMARK  4 active torsions:
REMARK  status: ('A' for Active; 'I' for Inactive)
REMARK    1  A    between atoms: O1_2  and  C2_3 
REMARK    2  A    between atoms: C7_8  and  C8_9 
REMARK    3  A    between atoms: N1_10  and  C9_11 
REMARK    4  A    between atoms: C10_13  and  C11_14 
ROOT
HETATM    1  C9  UNL     1      26.587   4.142  49.488  1.00  0.00     0.193 A 
HETATM    2  N2  UNL     1      27.635   4.499  49.003  1.00  0.00    -0.222 NA
HETATM    3  C10 UNL     1      27.830   5.668  48.414  1.00  0.00     0.076 A 
HETATM    4  C17 UNL     1      26.622   6.574  48.377  1.00  0.00     0.086 A 
HETATM    5  S1  UNL     1      25.366   5.570  49.219  1.00  0.00    -0.060 SA
ENDROOT
BRANCH   1   6
HETATM    6  N1  UNL     1      26.139   2.982  50.150  1.00  0.00    -0.234 NA
HETATM    7  C8  UNL     1      26.616   2.647  51.310  1.00  0.00     0.129 C 
BRANCH   7   8
HETATM    8  C7  UNL     1      26.120   1.438  51.953  1.00  0.00    -0.008 A 
HETATM    9  C2  UNL     1      24.809   1.292  52.634  1.00  0.00     0.184 A 
HETATM   10  C3  UNL     1      24.794  -0.115  53.112  1.00  0.00    -0.051 A 
HETATM   11  C4  UNL     1      23.682  -0.757  53.861  1.00  0.00     0.046 C 
HETATM   12  C5  UNL     1      25.930  -0.696  52.756  1.00  0.00     0.006 A 
HETATM   13  C6  UNL     1      26.755   0.280  52.032  1.00  0.00     0.012 A 
BRANCH   9  14
HETATM   14  O1  UNL     1      23.736   1.622  51.841  1.00  0.00    -0.382 OA
HETATM   15  C1  UNL     1      22.997   2.688  52.348  1.00  0.00     0.202 C 
ENDBRANCH   9  14
ENDBRANCH   7   8
ENDBRANCH   1   6
BRANCH   3  16
HETATM   16  C11 UNL     1      29.092   6.091  47.834  1.00  0.00    -0.007 A 
HETATM   17  C12 UNL     1      29.289   7.245  47.126  1.00  0.00     0.015 A 
HETATM   18  C13 UNL     1      30.501   7.619  46.587  1.00  0.00     0.024 A 
HETATM   19  C14 UNL     1      31.601   6.807  46.751  1.00  0.00     0.034 A 
HETATM   20 CL1  UNL     1      33.162   7.240  46.084  1.00  0.00    -0.084 Cl
HETATM   21  C15 UNL     1      31.455   5.637  47.455  1.00  0.00     0.024 A 
HETATM   22  C16 UNL     1      30.222   5.321  47.966  1.00  0.00     0.015 A 
ENDBRANCH   3  16
TORSDOF 4
ENDMDL
MODEL 4
REMARK VINA RESULT:      -7.3      4.139      8.877
REMARK  4 active torsions:
REMARK  status: ('A' for Active; 'I' for Inactive)
REMARK    1  A    between atoms: O1_2  and  C2_3 
REMARK    2  A    between atoms: C7_8  and  C8_9 
REMARK    3  A    between atoms: N1_10  and  C9_11 
REMARK    4  A    between atoms: C10_13  and  C11_14 
ROOT
HETATM    1  C9  UNL     1      23.557   3.841  50.693  1.00  0.00     0.193 A 
HETATM    2  N2  UNL     1      24.620   4.265  50.308  1.00  0.00    -0.222 NA
HETATM    3  C10 UNL     1      24.776   5.059  49.261  1.00  0.00     0.076 A 
HETATM    4  C17 UNL     1      23.500   5.423  48.539  1.00  0.00     0.086 A 
HETATM    5  S1  UNL     1      22.247   4.540  49.512  1.00  0.00    -0.060 SA
ENDROOT
BRANCH   1   6
HETATM    6  N1  UNL     1      23.141   3.006  51.750  1.00  0.00    -0.234 NA
HETATM    7  C8  UNL     1      22.617   1.841  51.516  1.00  0.00     0.129 C 
BRANCH   7   8
HETATM    8  C7  UNL     1      22.203   1.017  52.643  1.00  0.00    -0.008 A 
HETATM    9  C2  UNL     1      23.004  -0.066  53.267  1.00  0.00     0.184 A 
HETATM   10  C3  UNL     1      22.140  -0.585  54.359  1.00  0.00    -0.051 A 
HETATM   11  C4  UNL     1      22.497  -1.688  55.288  1.00  0.00     0.046 C 
HETATM   12  C5  UNL     1      21.006   0.100  54.364  1.00  0.00     0.006 A 
HETATM   13  C6  UNL     1      21.051   1.100  53.288  1.00  0.00     0.012 A 
BRANCH   9  14
HETATM   14  O1  UNL     1      24.247   0.341  53.688  1.00  0.00    -0.382 OA
HETATM   15  C1  UNL     1      25.284  -0.302  53.015  1.00  0.00     0.202 C 
ENDBRANCH   9  14
ENDBRANCH   7   8
ENDBRANCH   1   6
BRANCH   3  16
HETATM   16  C11 UNL     1      26.057   5.567  48.802  1.00  0.00    -0.007 A 
HETATM   17  C12 UNL     1      26.281   6.826  48.318  1.00  0.00     0.015 A 
HETATM   18  C13 UNL     1      27.510   7.279  47.890  1.00  0.00     0.024 A 
HETATM   19  C14 UNL     1      28.602   6.439  47.938  1.00  0.00     0.034 A 
HETATM   20 CL1  UNL     1      30.184   6.969  47.405  1.00  0.00    -0.084 Cl
HETATM   21  C15 UNL     1      28.429   5.163  48.416  1.00  0.00     0.024 A 
HETATM   22  C16 UNL     1      27.179   4.774  48.826  1.00  0.00     0.015 A 
ENDBRANCH   3  16
TORSDOF 4
ENDMDL
MODEL 5
REMARK VINA RESULT:      -7.3      4.426      5.684
REMARK  4 active torsions:
REMARK  status: ('A' for Active; 'I' for Inactive)
REMARK    1  A    between atoms: O1_2  and  C2_3 
REMARK    2  A    between atoms: C7_8  and  C8_9 
REMARK    3  A    between atoms: N1_10  and  C9_11 
REMARK    4  A    between atoms: C10_13  and  C11_14 
ROOT
HETATM    1  C9  UNL     1      23.439   1.312  52.333  1.00  0.00     0.193 A 
HETATM    2  N2  UNL     1      22.409   0.682  52.366  1.00  0.00    -0.222 NA
HETATM    3  C10 UNL     1      21.207   1.197  52.165  1.00  0.00     0.076 A 
HETATM    4  C17 UNL     1      21.187   2.680  51.879  1.00  0.00     0.086 A 
HETATM    5  S1  UNL     1      22.951   3.105  51.947  1.00  0.00    -0.060 SA
ENDROOT
BRANCH   1   6
HETATM    6  N1  UNL     1      24.803   1.003  52.508  1.00  0.00    -0.234 NA
HETATM    7  C8  UNL     1      25.530   1.649  53.368  1.00  0.00     0.129 C 
BRANCH   7   8
HETATM    8  C7  UNL     1      26.935   1.291  53.511  1.00  0.00    -0.008 A 
HETATM    9  C2  UNL     1      27.492  -0.082  53.441  1.00  0.00     0.184 A 
HETATM   10  C3  UNL     1      28.953   0.099  53.648  1.00  0.00    -0.051 A 
HETATM   11  C4  UNL     1      29.962  -0.993  53.664  1.00  0.00     0.046 C 
HETATM   12  C5  UNL     1      29.201   1.390  53.812  1.00  0.00     0.006 A 
HETATM   13  C6  UNL     1      27.935   2.130  53.726  1.00  0.00     0.012 A 
BRANCH   9  14
HETATM   14  O1  UNL     1      27.174  -0.748  52.282  1.00  0.00    -0.382 OA
HETATM   15  C1  UNL     1      26.727  -2.047  52.510  1.00  0.00     0.202 C 
ENDBRANCH   9  14
ENDBRANCH   7   8
ENDBRANCH   1   6
BRANCH   3  16
HETATM   16  C11 UNL     1      19.972   0.434  52.206  1.00  0.00    -0.007 A 
HETATM   17  C12 UNL     1      18.963   0.514  51.287  1.00  0.00     0.015 A 
HETATM   18  C13 UNL     1      17.801  -0.225  51.354  1.00  0.00     0.024 A 
HETATM   19  C14 UNL     1      17.611  -1.106  52.396  1.00  0.00     0.034 A 
HETATM   20 CL1  UNL     1      16.151  -2.065  52.524  1.00  0.00    -0.084 Cl
HETATM   21  C15 UNL     1      18.596  -1.222  53.346  1.00  0.00     0.024 A 
HETATM   22  C16 UNL     1      19.728  -0.458  53.223  1.00  0.00     0.015 A 
ENDBRANCH   3  16
TORSDOF 4
ENDMDL
MODEL 6
REMARK VINA RESULT:      -7.2      5.671      7.647
REMARK  4 active torsions:
REMARK  status: ('A' for Active; 'I' for Inactive)
REMARK    1  A    between atoms: O1_2  and  C2_3 
REMARK    2  A    between atoms: C7_8  and  C8_9 
REMARK    3  A    between atoms: N1_10  and  C9_11 
REMARK    4  A    between atoms: C10_13  and  C11_14 
ROOT
HETATM    1  C9  UNL     1      22.037  -0.187  53.065  1.00  0.00     0.193 A 
HETATM    2  N2  UNL     1      23.243  -0.125  53.026  1.00  0.00    -0.222 NA
HETATM    3  C10 UNL     1      24.049  -0.588  53.968  1.00  0.00     0.076 A 
HETATM    4  C17 UNL     1      23.354  -1.226  55.147  1.00  0.00     0.086 A 
HETATM    5  S1  UNL     1      21.604  -1.053  54.697  1.00  0.00    -0.060 SA
ENDROOT
BRANCH   1   6
HETATM    6  N1  UNL     1      20.990   0.220  52.215  1.00  0.00    -0.234 NA
HETATM    7  C8  UNL     1      19.748   0.071  52.563  1.00  0.00     0.129 C 
BRANCH   7   8
HETATM    8  C7  UNL     1      18.703   0.508  51.648  1.00  0.00    -0.008 A 
HETATM    9  C2  UNL     1      18.380   1.916  51.308  1.00  0.00     0.184 A 
HETATM   10  C3  UNL     1      17.251   1.817  50.346  1.00  0.00    -0.051 A 
HETATM   11  C4  UNL     1      16.564   2.968  49.705  1.00  0.00     0.046 C 
HETATM   12  C5  UNL     1      16.966   0.537  50.158  1.00  0.00     0.006 A 
HETATM   13  C6  UNL     1      17.877  -0.276  50.975  1.00  0.00     0.012 A 
BRANCH   9  14
HETATM   14  O1  UNL     1      19.455   2.629  50.832  1.00  0.00    -0.382 OA
HETATM   15  C1  UNL     1      19.761   3.737  51.619  1.00  0.00     0.202 C 
ENDBRANCH   9  14
ENDBRANCH   7   8
ENDBRANCH   1   6
BRANCH   3  16
HETATM   16  C11 UNL     1      25.498  -0.511  53.915  1.00  0.00    -0.007 A 
HETATM   17  C12 UNL     1      26.290   0.128  54.830  1.00  0.00     0.015 A 
HETATM   18  C13 UNL     1      27.664   0.183  54.751  1.00  0.00     0.024 A 
HETATM   19  C14 UNL     1      28.314  -0.430  53.703  1.00  0.00     0.034 A 
HETATM   20 CL1  UNL     1      30.060  -0.386  53.561  1.00  0.00    -0.084 Cl
HETATM   21  C15 UNL     1      27.564  -1.085  52.758  1.00  0.00     0.024 A 
HETATM   22  C16 UNL     1      26.199  -1.104  52.892  1.00  0.00     0.015 A 
ENDBRANCH   3  16
TORSDOF 4
ENDMDL
MODEL 7
REMARK VINA RESULT:      -7.1      6.295      8.390
REMARK  4 active torsions:
REMARK  status: ('A' for Active; 'I' for Inactive)
REMARK    1  A    between atoms: O1_2  and  C2_3 
REMARK    2  A    between atoms: C7_8  and  C8_9 
REMARK    3  A    between atoms: N1_10  and  C9_11 
REMARK    4  A    between atoms: C10_13  and  C11_14 
ROOT
HETATM    1  C9  UNL     1      22.167  -0.480  52.968  1.00  0.00     0.193 A 
HETATM    2  N2  UNL     1      23.372  -0.429  52.902  1.00  0.00    -0.222 NA
HETATM    3  C10 UNL     1      24.191  -0.675  53.912  1.00  0.00     0.076 A 
HETATM    4  C17 UNL     1      23.512  -1.040  55.210  1.00  0.00     0.086 A 
HETATM    5  S1  UNL     1      21.755  -0.969  54.756  1.00  0.00    -0.060 SA
ENDROOT
BRANCH   1   6
HETATM    6  N1  UNL     1      21.109  -0.268  52.063  1.00  0.00    -0.234 NA
HETATM    7  C8  UNL     1      19.983   0.244  52.457  1.00  0.00     0.129 C 
BRANCH   7   8
HETATM    8  C7  UNL     1      18.920   0.443  51.481  1.00  0.00    -0.008 A 
HETATM    9  C2  UNL     1      17.718  -0.412  51.320  1.00  0.00     0.184 A 
HETATM   10  C3  UNL     1      16.963   0.215  50.203  1.00  0.00    -0.051 A 
HETATM   11  C4  UNL     1      15.671  -0.276  49.657  1.00  0.00     0.046 C 
HETATM   12  C5  UNL     1      17.633   1.277  49.782  1.00  0.00     0.006 A 
HETATM   13  C6  UNL     1      18.856   1.415  50.585  1.00  0.00     0.012 A 
BRANCH   9  14
HETATM   14  O1  UNL     1      16.985  -0.555  52.474  1.00  0.00    -0.382 OA
HETATM   15  C1  UNL     1      16.937  -1.873  52.924  1.00  0.00     0.202 C 
ENDBRANCH   9  14
ENDBRANCH   7   8
ENDBRANCH   1   6
BRANCH   3  16
HETATM   16  C11 UNL     1      25.639  -0.612  53.826  1.00  0.00    -0.007 A 
HETATM   17  C12 UNL     1      26.402  -1.239  52.880  1.00  0.00     0.015 A 
HETATM   18  C13 UNL     1      27.777  -1.159  52.825  1.00  0.00     0.024 A 
HETATM   19  C14 UNL     1      28.456  -0.412  53.763  1.00  0.00     0.034 A 
HETATM   20 CL1  UNL     1      30.203  -0.281  53.733  1.00  0.00    -0.084 Cl
HETATM   21  C15 UNL     1      27.734   0.237  54.734  1.00  0.00     0.024 A 
HETATM   22  C16 UNL     1      26.368   0.117  54.734  1.00  0.00     0.015 A 
ENDBRANCH   3  16
TORSDOF 4
ENDMDL
MODEL 8
REMARK VINA RESULT:      -7.1      4.979      8.606
REMARK  4 active torsions:
REMARK  status: ('A' for Active; 'I' for Inactive)
REMARK    1  A    between atoms: O1_2  and  C2_3 
REMARK    2  A    between atoms: C7_8  and  C8_9 
REMARK    3  A    between atoms: N1_10  and  C9_11 
REMARK    4  A    between atoms: C10_13  and  C11_14 
ROOT
HETATM    1  C9  UNL     1      22.368   0.887  52.925  1.00  0.00     0.193 A 
HETATM    2  N2  UNL     1      23.498   0.498  53.104  1.00  0.00    -0.222 NA
HETATM    3  C10 UNL     1      24.585   1.210  52.854  1.00  0.00     0.076 A 
HETATM    4  C17 UNL     1      24.330   2.595  52.308  1.00  0.00     0.086 A 
HETATM    5  S1  UNL     1      22.517   2.652  52.242  1.00  0.00    -0.060 SA
ENDROOT
BRANCH   1   6
HETATM    6  N1  UNL     1      21.084   0.337  53.108  1.00  0.00    -0.234 NA
HETATM    7  C8  UNL     1      20.226   0.302  52.134  1.00  0.00     0.129 C 
BRANCH   7   8
HETATM    8  C7  UNL     1      18.912  -0.277  52.374  1.00  0.00    -0.008 A 
HETATM    9  C2  UNL     1      17.656   0.099  51.678  1.00  0.00     0.184 A 
HETATM   10  C3  UNL     1      16.618  -0.776  52.284  1.00  0.00    -0.051 A 
HETATM   11  C4  UNL     1      15.178  -0.781  51.919  1.00  0.00     0.046 C 
HETATM   12  C5  UNL     1      17.193  -1.545  53.197  1.00  0.00     0.006 A 
HETATM   13  C6  UNL     1      18.627  -1.229  53.249  1.00  0.00     0.012 A 
BRANCH   9  14
HETATM   14  O1  UNL     1      17.734   0.002  50.310  1.00  0.00    -0.382 OA
HETATM   15  C1  UNL     1      17.492   1.214  49.667  1.00  0.00     0.202 C 
ENDBRANCH   9  14
ENDBRANCH   7   8
ENDBRANCH   1   6
BRANCH   3  16
HETATM   16  C11 UNL     1      25.941   0.738  53.071  1.00  0.00    -0.007 A 
HETATM   17  C12 UNL     1      26.967   1.486  53.578  1.00  0.00     0.015 A 
HETATM   18  C13 UNL     1      28.245   1.008  53.773  1.00  0.00     0.024 A 
HETATM   19  C14 UNL     1      28.542  -0.298  53.449  1.00  0.00     0.034 A 
HETATM   20 CL1  UNL     1      30.151  -0.951  53.678  1.00  0.00    -0.084 Cl
HETATM   21  C15 UNL     1      27.545  -1.091  52.937  1.00  0.00     0.024 A 
HETATM   22  C16 UNL     1      26.294  -0.555  52.766  1.00  0.00     0.015 A 
ENDBRANCH   3  16
TORSDOF 4
ENDMDL
MODEL 9
REMARK VINA RESULT:      -7.1      1.820      2.540
REMARK  4 active torsions:
REMARK  status: ('A' for Active; 'I' for Inactive)
REMARK    1  A    between atoms: O1_2  and  C2_3 
REMARK    2  A    between atoms: C7_8  and  C8_9 
REMARK    3  A    between atoms: N1_10  and  C9_11 
REMARK    4  A    between atoms: C10_13  and  C11_14 
ROOT
HETATM    1  C9  UNL     1      23.202   1.372  51.572  1.00  0.00     0.193 A 
HETATM    2  N2  UNL     1      22.042   1.042  51.514  1.00  0.00    -0.222 NA
HETATM    3  C10 UNL     1      21.418   0.326  52.435  1.00  0.00     0.076 A 
HETATM    4  C17 UNL     1      22.269  -0.076  53.616  1.00  0.00     0.086 A 
HETATM    5  S1  UNL     1      23.874   0.663  53.199  1.00  0.00    -0.060 SA
ENDROOT
BRANCH   1   6
HETATM    6  N1  UNL     1      24.071   2.111  50.744  1.00  0.00    -0.234 NA
HETATM    7  C8  UNL     1      24.568   3.244  51.138  1.00  0.00     0.129 C 
BRANCH   7   8
HETATM    8  C7  UNL     1      25.461   3.969  50.245  1.00  0.00    -0.008 A 
HETATM    9  C2  UNL     1      25.268   5.361  49.765  1.00  0.00     0.184 A 
HETATM   10  C3  UNL     1      26.443   5.619  48.892  1.00  0.00    -0.051 A 
HETATM   11  C4  UNL     1      26.713   6.888  48.167  1.00  0.00     0.046 C 
HETATM   12  C5  UNL     1      27.202   4.534  48.872  1.00  0.00     0.006 A 
HETATM   13  C6  UNL     1      26.583   3.506  49.719  1.00  0.00     0.012 A 
BRANCH   9  14
HETATM   14  O1  UNL     1      25.117   6.277  50.778  1.00  0.00    -0.382 OA
HETATM   15  C1  UNL     1      23.892   6.939  50.731  1.00  0.00     0.202 C 
ENDBRANCH   9  14
ENDBRANCH   7   8
ENDBRANCH   1   6
BRANCH   3  16
HETATM   16  C11 UNL     1      20.022  -0.067  52.360  1.00  0.00    -0.007 A 
HETATM   17  C12 UNL     1      19.355  -0.798  53.304  1.00  0.00     0.015 A 
HETATM   18  C13 UNL     1      18.028  -1.156  53.203  1.00  0.00     0.024 A 
HETATM   19  C14 UNL     1      17.299  -0.773  52.098  1.00  0.00     0.034 A 
HETATM   20 CL1  UNL     1      15.610  -1.204  51.926  1.00  0.00    -0.084 Cl
HETATM   21  C15 UNL     1      17.924  -0.037  51.122  1.00  0.00     0.024 A 
HETATM   22  C16 UNL     1      19.247   0.287  51.281  1.00  0.00     0.015 A 
ENDBRANCH   3  16
TORSDOF 4
ENDMDL
