MODEL 1
REMARK VINA RESULT:      -9.7      0.000      0.000
REMARK  2 active torsions:
REMARK  status: ('A' for Active; 'I' for Inactive)
REMARK    1  A    between atoms: C10_13  and  N3_14 
REMARK    2  A    between atoms: N3_14  and  C11_15 
ROOT
HETATM    1  O1  UNL     1      18.669  -0.512  51.588  1.00  0.00    -0.405 OA
HETATM    2  C1  UNL     1      19.619   0.330  51.481  1.00  0.00     0.389 C 
HETATM    3  C2  UNL     1      20.796   1.258  51.570  1.00  0.00    -0.016 C 
HETATM    4  C3  UNL     1      20.778   1.853  50.395  1.00  0.00    -0.010 C 
HETATM    5  C4  UNL     1      21.673   2.908  49.837  1.00  0.00     0.056 C 
HETATM    6  C5  UNL     1      22.407   2.660  48.647  1.00  0.00    -0.011 C 
HETATM    7  C6  UNL     1      22.885   3.860  48.310  1.00  0.00    -0.027 C 
HETATM    8  C7  UNL     1      23.372   4.471  49.399  1.00  0.00     0.046 C 
HETATM    9  C8  UNL     1      24.266   3.753  50.318  1.00  0.00     0.089 A 
HETATM   10  N1  UNL     1      25.289   3.683  49.457  1.00  0.00    -0.240 NA
HETATM   11  C9  UNL     1      26.513   3.179  49.634  1.00  0.00     0.236 A 
HETATM   12  N2  UNL     1      26.821   2.653  50.836  1.00  0.00    -0.222 NA
HETATM   13  C10 UNL     1      25.800   2.699  51.762  1.00  0.00     0.158 A 
HETATM   14  C17 UNL     1      24.534   3.210  51.589  1.00  0.00     0.104 A 
HETATM   15  N4  UNL     1      23.781   2.953  52.827  1.00  0.00    -0.382 N 
HETATM   16  C18 UNL     1      23.279   1.672  52.458  1.00  0.00     0.147 C 
HETATM   17  C19 UNL     1      22.405   0.945  53.365  1.00  0.00    -0.007 C 
HETATM   18  C20 UNL     1      21.168   0.754  52.856  1.00  0.00     0.011 C 
HETATM   19  H12 UNL     1      24.067   3.860  53.229  1.00  0.00     0.160 HD
ENDROOT
BRANCH  13  20
HETATM   20  N3  UNL     1      26.216   2.195  53.049  1.00  0.00    -0.339 N 
HETATM   21  H8  UNL     1      26.234   2.516  54.040  1.00  0.00     0.167 HD
BRANCH  20  22
HETATM   22  C11 UNL     1      26.765   0.879  53.022  1.00  0.00     0.035 A 
HETATM   23  C12 UNL     1      26.119  -0.279  52.605  1.00  0.00     0.032 A 
HETATM   24  C13 UNL     1      26.639  -1.544  52.551  1.00  0.00     0.046 A 
HETATM   25  C14 UNL     1      27.946  -1.726  52.947  1.00  0.00     0.138 A 
HETATM   26  F1  UNL     1      28.423  -2.974  52.879  1.00  0.00    -0.204 F 
HETATM   27  C15 UNL     1      28.656  -0.631  53.374  1.00  0.00     0.074 A 
HETATM   28 CL1  UNL     1      30.315  -0.950  53.853  1.00  0.00    -0.081 Cl
HETATM   29  C16 UNL     1      28.078   0.598  53.403  1.00  0.00     0.056 A 
ENDBRANCH  20  22
ENDBRANCH  13  20
TORSDOF 2
ENDMDL
MODEL 2
REMARK VINA RESULT:      -9.2      3.645      5.632
REMARK  2 active torsions:
REMARK  status: ('A' for Active; 'I' for Inactive)
REMARK    1  A    between atoms: C10_13  and  N3_14 
REMARK    2  A    between atoms: N3_14  and  C11_15 
ROOT
HETATM    1  O1  UNL     1      29.333   7.610  48.266  1.00  0.00    -0.405 OA
HETATM    2  C1  UNL     1      28.171   7.147  48.510  1.00  0.00     0.389 C 
HETATM    3  C2  UNL     1      26.895   6.394  48.751  1.00  0.00    -0.016 C 
HETATM    4  C3  UNL     1      26.053   7.355  49.067  1.00  0.00    -0.010 C 
HETATM    5  C4  UNL     1      24.602   7.291  49.408  1.00  0.00     0.056 C 
HETATM    6  C5  UNL     1      24.146   7.766  50.667  1.00  0.00    -0.011 C 
HETATM    7  C6  UNL     1      22.818   7.790  50.538  1.00  0.00    -0.027 C 
HETATM    8  C7  UNL     1      22.404   6.660  49.948  1.00  0.00     0.046 C 
HETATM    9  C8  UNL     1      22.895   5.355  50.411  1.00  0.00     0.089 A 
HETATM   10  N1  UNL     1      22.258   5.401  51.588  1.00  0.00    -0.240 NA
HETATM   11  C9  UNL     1      22.207   4.486  52.560  1.00  0.00     0.236 A 
HETATM   12  N2  UNL     1      22.873   3.327  52.384  1.00  0.00    -0.222 NA
HETATM   13  C10 UNL     1      23.548   3.229  51.186  1.00  0.00     0.158 A 
HETATM   14  C17 UNL     1      23.613   4.166  50.180  1.00  0.00     0.104 A 
HETATM   15  N4  UNL     1      24.520   3.643  49.147  1.00  0.00    -0.382 N 
HETATM   16  C18 UNL     1      25.722   4.186  49.686  1.00  0.00     0.147 C 
HETATM   17  C19 UNL     1      26.987   3.977  48.998  1.00  0.00    -0.007 C 
HETATM   18  C20 UNL     1      27.538   5.130  48.561  1.00  0.00     0.011 C 
HETATM   19  H12 UNL     1      23.741   3.190  48.643  1.00  0.00     0.160 HD
ENDROOT
BRANCH  13  20
HETATM   20  N3  UNL     1      24.172   1.937  51.024  1.00  0.00    -0.339 N 
HETATM   21  H8  UNL     1      24.202   1.172  50.317  1.00  0.00     0.167 HD
BRANCH  20  22
HETATM   22  C11 UNL     1      25.007   1.540  52.111  1.00  0.00     0.035 A 
HETATM   23  C12 UNL     1      24.749   0.524  53.023  1.00  0.00     0.032 A 
HETATM   24  C13 UNL     1      25.549   0.115  54.056  1.00  0.00     0.046 A 
HETATM   25  C14 UNL     1      26.751   0.763  54.240  1.00  0.00     0.138 A 
HETATM   26  F1  UNL     1      27.510   0.336  55.257  1.00  0.00    -0.204 F 
HETATM   27  C15 UNL     1      27.082   1.781  53.381  1.00  0.00     0.074 A 
HETATM   28 CL1  UNL     1      28.633   2.546  53.681  1.00  0.00    -0.081 Cl
HETATM   29  C16 UNL     1      26.241   2.136  52.375  1.00  0.00     0.056 A 
ENDBRANCH  20  22
ENDBRANCH  13  20
TORSDOF 2
ENDMDL
MODEL 3
REMARK VINA RESULT:      -8.9      3.564      5.362
REMARK  2 active torsions:
REMARK  status: ('A' for Active; 'I' for Inactive)
REMARK    1  A    between atoms: C10_13  and  N3_14 
REMARK    2  A    between atoms: N3_14  and  C11_15 
ROOT
HETATM    1  O1  UNL     1      21.903  -2.213  55.018  1.00  0.00    -0.405 OA
HETATM    2  C1  UNL     1      21.924  -1.091  54.414  1.00  0.00     0.389 C 
HETATM    3  C2  UNL     1      22.180   0.212  53.714  1.00  0.00    -0.016 C 
HETATM    4  C3  UNL     1      20.962   0.650  53.473  1.00  0.00    -0.010 C 
HETATM    5  C4  UNL     1      20.503   1.907  52.814  1.00  0.00     0.056 C 
HETATM    6  C5  UNL     1      19.694   1.844  51.649  1.00  0.00    -0.011 C 
HETATM    7  C6  UNL     1      19.275   3.100  51.482  1.00  0.00    -0.027 C 
HETATM    8  C7  UNL     1      20.302   3.944  51.659  1.00  0.00     0.046 C 
HETATM    9  C8  UNL     1      21.591   3.695  51.001  1.00  0.00     0.089 A 
HETATM   10  N1  UNL     1      21.140   3.934  49.764  1.00  0.00    -0.240 NA
HETATM   11  C9  UNL     1      21.805   3.939  48.605  1.00  0.00     0.236 A 
HETATM   12  N2  UNL     1      23.126   3.675  48.625  1.00  0.00    -0.222 NA
HETATM   13  C10 UNL     1      23.643   3.421  49.877  1.00  0.00     0.158 A 
HETATM   14  C17 UNL     1      22.967   3.406  51.076  1.00  0.00     0.104 A 
HETATM   15  N4  UNL     1      23.924   3.001  52.118  1.00  0.00    -0.382 N 
HETATM   16  C18 UNL     1      23.703   1.597  52.014  1.00  0.00     0.147 C 
HETATM   17  C19 UNL     1      24.418   0.682  52.889  1.00  0.00    -0.007 C 
HETATM   18  C20 UNL     1      23.595   0.000  53.715  1.00  0.00     0.011 C 
HETATM   19  H12 UNL     1      24.189   3.981  52.305  1.00  0.00     0.160 HD
ENDROOT
BRANCH  13  20
HETATM   20  N3  UNL     1      25.073   3.226  49.842  1.00  0.00    -0.339 N 
HETATM   21  H8  UNL     1      25.758   2.463  50.031  1.00  0.00     0.167 HD
BRANCH  20  22
HETATM   22  C11 UNL     1      25.818   4.370  49.430  1.00  0.00     0.035 A 
HETATM   23  C12 UNL     1      25.383   5.691  49.445  1.00  0.00     0.032 A 
HETATM   24  C13 UNL     1      26.093   6.801  49.076  1.00  0.00     0.046 A 
HETATM   25  C14 UNL     1      27.387   6.627  48.635  1.00  0.00     0.138 A 
HETATM   26  F1  UNL     1      28.053   7.734  48.286  1.00  0.00    -0.204 F 
HETATM   27  C15 UNL     1      27.894   5.352  48.590  1.00  0.00     0.074 A 
HETATM   28 CL1  UNL     1      29.551   5.221  48.025  1.00  0.00    -0.081 Cl
HETATM   29  C16 UNL     1      27.134   4.293  48.971  1.00  0.00     0.056 A 
ENDBRANCH  20  22
ENDBRANCH  13  20
TORSDOF 2
ENDMDL
MODEL 4
REMARK VINA RESULT:      -8.8      4.042      6.088
REMARK  2 active torsions:
REMARK  status: ('A' for Active; 'I' for Inactive)
REMARK    1  A    between atoms: C10_13  and  N3_14 
REMARK    2  A    between atoms: N3_14  and  C11_15 
ROOT
HETATM    1  O1  UNL     1      26.757  -1.756  53.487  1.00  0.00    -0.405 OA
HETATM    2  C1  UNL     1      25.873  -0.845  53.372  1.00  0.00     0.389 C 
HETATM    3  C2  UNL     1      25.000   0.373  53.298  1.00  0.00    -0.016 C 
HETATM    4  C3  UNL     1      23.839  -0.129  52.932  1.00  0.00    -0.010 C 
HETATM    5  C4  UNL     1      22.530   0.545  52.694  1.00  0.00     0.056 C 
HETATM    6  C5  UNL     1      21.904   0.452  51.423  1.00  0.00    -0.011 C 
HETATM    7  C6  UNL     1      20.679   0.938  51.634  1.00  0.00    -0.027 C 
HETATM    8  C7  UNL     1      20.759   2.054  52.371  1.00  0.00     0.046 C 
HETATM    9  C8  UNL     1      21.722   3.108  52.025  1.00  0.00     0.089 A 
HETATM   10  N1  UNL     1      21.103   3.467  50.893  1.00  0.00    -0.240 NA
HETATM   11  C9  UNL     1      21.407   4.443  50.034  1.00  0.00     0.236 A 
HETATM   12  N2  UNL     1      22.482   5.213  50.294  1.00  0.00    -0.222 NA
HETATM   13  C10 UNL     1      23.158   4.884  51.450  1.00  0.00     0.158 A 
HETATM   14  C17 UNL     1      22.859   3.877  52.339  1.00  0.00     0.104 A 
HETATM   15  N4  UNL     1      23.915   3.864  53.364  1.00  0.00    -0.382 N 
HETATM   16  C18 UNL     1      24.792   2.965  52.692  1.00  0.00     0.147 C 
HETATM   17  C19 UNL     1      26.045   2.569  53.315  1.00  0.00    -0.007 C 
HETATM   18  C20 UNL     1      26.097   1.246  53.585  1.00  0.00     0.011 C 
HETATM   19  H12 UNL     1      23.388   4.519  53.964  1.00  0.00     0.160 HD
ENDROOT
BRANCH  13  20
HETATM   20  N3  UNL     1      24.248   5.793  51.714  1.00  0.00    -0.339 N 
HETATM   21  H8  UNL     1      24.577   6.408  52.489  1.00  0.00     0.167 HD
BRANCH  20  22
HETATM   22  C11 UNL     1      25.183   5.926  50.644  1.00  0.00     0.035 A 
HETATM   23  C12 UNL     1      25.776   4.891  49.930  1.00  0.00     0.032 A 
HETATM   24  C13 UNL     1      26.656   5.003  48.887  1.00  0.00     0.046 A 
HETATM   25  C14 UNL     1      27.015   6.267  48.474  1.00  0.00     0.138 A 
HETATM   26  F1  UNL     1      27.873   6.339  47.450  1.00  0.00    -0.204 F 
HETATM   27  C15 UNL     1      26.473   7.346  49.128  1.00  0.00     0.074 A 
HETATM   28 CL1  UNL     1      26.977   8.918  48.533  1.00  0.00    -0.081 Cl
HETATM   29  C16 UNL     1      25.605   7.164  50.157  1.00  0.00     0.056 A 
ENDBRANCH  20  22
ENDBRANCH  13  20
TORSDOF 2
ENDMDL
MODEL 5
REMARK VINA RESULT:      -8.6      3.779      5.708
REMARK  2 active torsions:
REMARK  status: ('A' for Active; 'I' for Inactive)
REMARK    1  A    between atoms: C10_13  and  N3_14 
REMARK    2  A    between atoms: N3_14  and  C11_15 
ROOT
HETATM    1  O1  UNL     1      15.958  -0.045  52.206  1.00  0.00    -0.405 OA
HETATM    2  C1  UNL     1      17.232  -0.044  52.160  1.00  0.00     0.389 C 
HETATM    3  C2  UNL     1      18.707   0.063  51.902  1.00  0.00    -0.016 C 
HETATM    4  C3  UNL     1      19.225  -0.498  52.975  1.00  0.00    -0.010 C 
HETATM    5  C4  UNL     1      20.651  -0.732  53.345  1.00  0.00     0.056 C 
HETATM    6  C5  UNL     1      21.177  -0.170  54.538  1.00  0.00    -0.011 C 
HETATM    7  C6  UNL     1      22.361  -0.770  54.680  1.00  0.00    -0.027 C 
HETATM    8  C7  UNL     1      22.995  -0.796  53.499  1.00  0.00     0.046 C 
HETATM    9  C8  UNL     1      23.080   0.415  52.672  1.00  0.00     0.089 A 
HETATM   10  N1  UNL     1      23.899   1.069  53.505  1.00  0.00    -0.240 NA
HETATM   11  C9  UNL     1      24.458   2.275  53.371  1.00  0.00     0.236 A 
HETATM   12  N2  UNL     1      24.198   2.979  52.252  1.00  0.00    -0.222 NA
HETATM   13  C10 UNL     1      23.357   2.350  51.359  1.00  0.00     0.158 A 
HETATM   14  C17 UNL     1      22.770   1.112  51.489  1.00  0.00     0.104 A 
HETATM   15  N4  UNL     1      21.893   0.914  50.324  1.00  0.00    -0.382 N 
HETATM   16  C18 UNL     1      20.722   1.493  50.893  1.00  0.00     0.147 C 
HETATM   17  C19 UNL     1      19.485   1.533  50.129  1.00  0.00    -0.007 C 
HETATM   18  C20 UNL     1      18.500   0.802  50.695  1.00  0.00     0.011 C 
HETATM   19  H12 UNL     1      22.653   0.472  49.784  1.00  0.00     0.160 HD
ENDROOT
BRANCH  13  20
HETATM   20  N3  UNL     1      23.183   3.119  50.150  1.00  0.00    -0.339 N 
HETATM   21  H8  UNL     1      22.426   3.326  49.463  1.00  0.00     0.167 HD
BRANCH  20  22
HETATM   22  C11 UNL     1      24.346   3.827  49.723  1.00  0.00     0.035 A 
HETATM   23  C12 UNL     1      25.637   3.320  49.636  1.00  0.00     0.032 A 
HETATM   24  C13 UNL     1      26.758   3.978  49.206  1.00  0.00     0.046 A 
HETATM   25  C14 UNL     1      26.627   5.291  48.809  1.00  0.00     0.138 A 
HETATM   26  F1  UNL     1      27.742   5.903  48.392  1.00  0.00    -0.204 F 
HETATM   27  C15 UNL     1      25.383   5.868  48.865  1.00  0.00     0.074 A 
HETATM   28 CL1  UNL     1      25.303   7.539  48.333  1.00  0.00    -0.081 Cl
HETATM   29  C16 UNL     1      24.311   5.157  49.302  1.00  0.00     0.056 A 
ENDBRANCH  20  22
ENDBRANCH  13  20
TORSDOF 2
ENDMDL
MODEL 6
REMARK VINA RESULT:      -8.6      4.477      7.075
REMARK  2 active torsions:
REMARK  status: ('A' for Active; 'I' for Inactive)
REMARK    1  A    between atoms: C10_13  and  N3_14 
REMARK    2  A    between atoms: N3_14  and  C11_15 
ROOT
HETATM    1  O1  UNL     1      27.927  -2.665  53.043  1.00  0.00    -0.405 OA
HETATM    2  C1  UNL     1      27.083  -1.711  53.060  1.00  0.00     0.389 C 
HETATM    3  C2  UNL     1      26.271  -0.448  53.046  1.00  0.00    -0.016 C 
HETATM    4  C3  UNL     1      25.045  -0.896  53.219  1.00  0.00    -0.010 C 
HETATM    5  C4  UNL     1      23.754  -0.155  53.318  1.00  0.00     0.056 C 
HETATM    6  C5  UNL     1      22.710  -0.418  52.392  1.00  0.00    -0.011 C 
HETATM    7  C6  UNL     1      21.655   0.213  52.912  1.00  0.00    -0.027 C 
HETATM    8  C7  UNL     1      22.021   1.432  53.330  1.00  0.00     0.046 C 
HETATM    9  C8  UNL     1      22.821   2.308  52.462  1.00  0.00     0.089 A 
HETATM   10  N1  UNL     1      21.844   2.512  51.569  1.00  0.00    -0.240 NA
HETATM   11  C9  UNL     1      21.842   3.282  50.478  1.00  0.00     0.236 A 
HETATM   12  N2  UNL     1      22.956   3.980  50.184  1.00  0.00    -0.222 NA
HETATM   13  C10 UNL     1      23.995   3.804  51.074  1.00  0.00     0.158 A 
HETATM   14  C17 UNL     1      24.012   3.010  52.197  1.00  0.00     0.104 A 
HETATM   15  N4  UNL     1      25.365   3.083  52.770  1.00  0.00    -0.382 N 
HETATM   16  C18 UNL     1      25.920   1.997  52.034  1.00  0.00     0.147 C 
HETATM   17  C19 UNL     1      27.304   1.604  52.250  1.00  0.00    -0.007 C 
HETATM   18  C20 UNL     1      27.418   0.354  52.750  1.00  0.00     0.011 C 
HETATM   19  H12 UNL     1      25.106   3.884  53.368  1.00  0.00     0.160 HD
ENDROOT
BRANCH  13  20
HETATM   20  N3  UNL     1      25.128   4.638  50.750  1.00  0.00    -0.339 N 
HETATM   21  H8  UNL     1      26.169   4.586  50.792  1.00  0.00     0.167 HD
BRANCH  20  22
HETATM   22  C11 UNL     1      24.791   5.914  50.208  1.00  0.00     0.035 A 
HETATM   23  C12 UNL     1      24.077   6.922  50.845  1.00  0.00     0.032 A 
HETATM   24  C13 UNL     1      23.766   8.158  50.347  1.00  0.00     0.046 A 
HETATM   25  C14 UNL     1      24.194   8.472  49.076  1.00  0.00     0.138 A 
HETATM   26  F1  UNL     1      23.875   9.690  48.622  1.00  0.00    -0.204 F 
HETATM   27  C15 UNL     1      24.907   7.530  48.377  1.00  0.00     0.074 A 
HETATM   28 CL1  UNL     1      25.420   8.015  46.769  1.00  0.00    -0.081 Cl
HETATM   29  C16 UNL     1      25.181   6.321  48.931  1.00  0.00     0.056 A 
ENDBRANCH  20  22
ENDBRANCH  13  20
TORSDOF 2
ENDMDL
MODEL 7
REMARK VINA RESULT:      -8.6      2.598      4.342
REMARK  2 active torsions:
REMARK  status: ('A' for Active; 'I' for Inactive)
REMARK    1  A    between atoms: C10_13  and  N3_14 
REMARK    2  A    between atoms: N3_14  and  C11_15 
ROOT
HETATM    1  O1  UNL     1      23.037   8.478  47.823  1.00  0.00    -0.405 OA
HETATM    2  C1  UNL     1      23.168   7.276  48.227  1.00  0.00     0.389 C 
HETATM    3  C2  UNL     1      23.547   5.911  48.724  1.00  0.00    -0.016 C 
HETATM    4  C3  UNL     1      22.391   5.282  48.738  1.00  0.00    -0.010 C 
HETATM    5  C4  UNL     1      22.064   3.876  49.115  1.00  0.00     0.056 C 
HETATM    6  C5  UNL     1      21.147   3.618  50.169  1.00  0.00    -0.011 C 
HETATM    7  C6  UNL     1      20.906   2.309  50.070  1.00  0.00    -0.027 C 
HETATM    8  C7  UNL     1      22.059   1.653  49.877  1.00  0.00     0.046 C 
HETATM    9  C8  UNL     1      23.229   1.941  50.718  1.00  0.00     0.089 A 
HETATM   10  N1  UNL     1      22.702   1.423  51.835  1.00  0.00    -0.240 NA
HETATM   11  C9  UNL     1      23.246   1.291  53.047  1.00  0.00     0.236 A 
HETATM   12  N2  UNL     1      24.509   1.724  53.232  1.00  0.00    -0.222 NA
HETATM   13  C10 UNL     1      25.100   2.269  52.111  1.00  0.00     0.158 A 
HETATM   14  C17 UNL     1      24.547   2.415  50.860  1.00  0.00     0.104 A 
HETATM   15  N4  UNL     1      25.528   3.127  50.024  1.00  0.00    -0.382 N 
HETATM   16  C18 UNL     1      25.090   4.447  50.336  1.00  0.00     0.147 C 
HETATM   17  C19 UNL     1      25.742   5.592  49.721  1.00  0.00    -0.007 C 
HETATM   18  C20 UNL     1      24.908   6.301  48.929  1.00  0.00     0.011 C 
HETATM   19  H12 UNL     1      25.952   2.240  49.708  1.00  0.00     0.160 HD
ENDROOT
BRANCH  13  20
HETATM   20  N3  UNL     1      26.474   2.638  52.352  1.00  0.00    -0.339 N 
HETATM   21  H8  UNL     1      27.067   3.494  52.313  1.00  0.00     0.167 HD
BRANCH  20  22
HETATM   22  C11 UNL     1      27.313   1.563  52.773  1.00  0.00     0.035 A 
HETATM   23  C12 UNL     1      28.475   1.668  53.528  1.00  0.00     0.032 A 
HETATM   24  C13 UNL     1      29.278   0.646  53.959  1.00  0.00     0.046 A 
HETATM   25  C14 UNL     1      28.923  -0.643  53.625  1.00  0.00     0.138 A 
HETATM   26  F1  UNL     1      29.727  -1.617  54.066  1.00  0.00    -0.204 F 
HETATM   27  C15 UNL     1      27.787  -0.834  52.879  1.00  0.00     0.074 A 
HETATM   28 CL1  UNL     1      27.403  -2.505  52.504  1.00  0.00    -0.081 Cl
HETATM   29  C16 UNL     1      27.035   0.226  52.483  1.00  0.00     0.056 A 
ENDBRANCH  20  22
ENDBRANCH  13  20
TORSDOF 2
ENDMDL
MODEL 8
REMARK VINA RESULT:      -8.5      4.323      7.243
REMARK  2 active torsions:
REMARK  status: ('A' for Active; 'I' for Inactive)
REMARK    1  A    between atoms: C10_13  and  N3_14 
REMARK    2  A    between atoms: N3_14  and  C11_15 
ROOT
HETATM    1  O1  UNL     1      27.808  -1.658  52.918  1.00  0.00    -0.405 OA
HETATM    2  C1  UNL     1      26.700  -1.045  53.065  1.00  0.00     0.389 C 
HETATM    3  C2  UNL     1      25.504  -0.142  53.145  1.00  0.00    -0.016 C 
HETATM    4  C3  UNL     1      24.592  -0.924  53.684  1.00  0.00    -0.010 C 
HETATM    5  C4  UNL     1      23.176  -0.639  54.053  1.00  0.00     0.056 C 
HETATM    6  C5  UNL     1      22.124  -1.396  53.472  1.00  0.00    -0.011 C 
HETATM    7  C6  UNL     1      21.051  -1.059  54.191  1.00  0.00    -0.027 C 
HETATM    8  C7  UNL     1      21.032   0.270  54.373  1.00  0.00     0.046 C 
HETATM    9  C8  UNL     1      21.251   1.179  53.240  1.00  0.00     0.089 A 
HETATM   10  N1  UNL     1      20.099   0.882  52.626  1.00  0.00    -0.240 NA
HETATM   11  C9  UNL     1      19.581   1.391  51.504  1.00  0.00     0.236 A 
HETATM   12  N2  UNL     1      20.275   2.346  50.855  1.00  0.00    -0.222 NA
HETATM   13  C10 UNL     1      21.473   2.688  51.445  1.00  0.00     0.158 A 
HETATM   14  C17 UNL     1      22.019   2.168  52.596  1.00  0.00     0.104 A 
HETATM   15  N4  UNL     1      23.344   2.784  52.774  1.00  0.00    -0.382 N 
HETATM   16  C18 UNL     1      24.081   1.820  52.027  1.00  0.00     0.147 C 
HETATM   17  C19 UNL     1      25.524   1.947  51.901  1.00  0.00    -0.007 C 
HETATM   18  C20 UNL     1      26.189   0.919  52.473  1.00  0.00     0.011 C 
HETATM   19  H12 UNL     1      22.948   3.553  53.337  1.00  0.00     0.160 HD
ENDROOT
BRANCH  13  20
HETATM   20  N3  UNL     1      22.128   3.769  50.748  1.00  0.00    -0.339 N 
HETATM   21  H8  UNL     1      22.633   4.651  50.981  1.00  0.00     0.167 HD
BRANCH  20  22
HETATM   22  C11 UNL     1      22.120   3.650  49.326  1.00  0.00     0.035 A 
HETATM   23  C12 UNL     1      22.506   2.538  48.586  1.00  0.00     0.032 A 
HETATM   24  C13 UNL     1      22.482   2.400  47.225  1.00  0.00     0.046 A 
HETATM   25  C14 UNL     1      22.031   3.463  46.473  1.00  0.00     0.138 A 
HETATM   26  F1  UNL     1      22.017   3.293  45.146  1.00  0.00    -0.204 F 
HETATM   27  C15 UNL     1      21.629   4.601  47.127  1.00  0.00     0.074 A 
HETATM   28 CL1  UNL     1      21.061   5.902  46.095  1.00  0.00    -0.081 Cl
HETATM   29  C16 UNL     1      21.679   4.671  48.483  1.00  0.00     0.056 A 
ENDBRANCH  20  22
ENDBRANCH  13  20
TORSDOF 2
ENDMDL
MODEL 9
REMARK VINA RESULT:      -8.5      4.348      6.806
REMARK  2 active torsions:
REMARK  status: ('A' for Active; 'I' for Inactive)
REMARK    1  A    between atoms: C10_13  and  N3_14 
REMARK    2  A    between atoms: N3_14  and  C11_15 
ROOT
HETATM    1  O1  UNL     1      28.735  -0.728  54.126  1.00  0.00    -0.405 OA
HETATM    2  C1  UNL     1      27.795  -0.227  53.426  1.00  0.00     0.389 C 
HETATM    3  C2  UNL     1      26.549   0.221  52.720  1.00  0.00    -0.016 C 
HETATM    4  C3  UNL     1      27.007   1.126  51.880  1.00  0.00    -0.010 C 
HETATM    5  C4  UNL     1      26.288   1.951  50.867  1.00  0.00     0.056 C 
HETATM    6  C5  UNL     1      26.331   3.368  50.943  1.00  0.00    -0.011 C 
HETATM    7  C6  UNL     1      25.814   3.767  49.779  1.00  0.00    -0.027 C 
HETATM    8  C7  UNL     1      24.717   3.047  49.505  1.00  0.00     0.046 C 
HETATM    9  C8  UNL     1      23.687   2.839  50.530  1.00  0.00     0.089 A 
HETATM   10  N1  UNL     1      23.282   4.115  50.551  1.00  0.00    -0.240 NA
HETATM   11  C9  UNL     1      22.296   4.681  51.252  1.00  0.00     0.236 A 
HETATM   12  N2  UNL     1      21.566   3.900  52.073  1.00  0.00    -0.222 NA
HETATM   13  C10 UNL     1      21.942   2.574  52.091  1.00  0.00     0.158 A 
HETATM   14  C17 UNL     1      22.960   1.981  51.378  1.00  0.00     0.104 A 
HETATM   15  N4  UNL     1      23.029   0.572  51.796  1.00  0.00    -0.382 N 
HETATM   16  C18 UNL     1      23.939   0.760  52.876  1.00  0.00     0.147 C 
HETATM   17  C19 UNL     1      24.388  -0.383  53.656  1.00  0.00    -0.007 C 
HETATM   18  C20 UNL     1      25.717  -0.597  53.548  1.00  0.00     0.011 C 
HETATM   19  H12 UNL     1      22.373   0.284  51.053  1.00  0.00     0.160 HD
ENDROOT
BRANCH  13  20
HETATM   20  N3  UNL     1      21.074   1.778  52.925  1.00  0.00    -0.339 N 
HETATM   21  H8  UNL     1      21.001   1.497  53.926  1.00  0.00     0.167 HD
BRANCH  20  22
HETATM   22  C11 UNL     1      19.974   1.181  52.238  1.00  0.00     0.035 A 
HETATM   23  C12 UNL     1      19.486   1.540  50.987  1.00  0.00     0.032 A 
HETATM   24  C13 UNL     1      18.449   0.963  50.305  1.00  0.00     0.046 A 
HETATM   25  C14 UNL     1      17.793  -0.095  50.897  1.00  0.00     0.138 A 
HETATM   26  F1  UNL     1      16.787  -0.637  50.201  1.00  0.00    -0.204 F 
HETATM   27  C15 UNL     1      18.213  -0.513  52.135  1.00  0.00     0.074 A 
HETATM   28 CL1  UNL     1      17.330  -1.870  52.812  1.00  0.00    -0.081 Cl
HETATM   29  C16 UNL     1      19.251   0.106  52.757  1.00  0.00     0.056 A 
ENDBRANCH  20  22
ENDBRANCH  13  20
TORSDOF 2
ENDMDL
