MODEL 1
REMARK VINA RESULT:      -8.0      0.000      0.000
REMARK  5 active torsions:
REMARK  status: ('A' for Active; 'I' for Inactive)
REMARK    1  A    between atoms: O1_2  and  C2_3 
REMARK    2  A    between atoms: C3_4  and  O2_5 
REMARK    3  A    between atoms: C4_6  and  O3_7 
REMARK    4  A    between atoms: C6_9  and  C7_10 
REMARK    5  A    between atoms: C7_10  and  C8_11 
ROOT
HETATM    1  C8  UNL     1      24.637   0.393  53.490  1.00  0.00     0.116 A 
HETATM    2  C9  UNL     1      25.342  -0.287  54.544  1.00  0.00     0.250 A 
HETATM    3  O4  UNL     1      26.571   0.075  54.545  1.00  0.00    -0.271 OA
HETATM    4  N1  UNL     1      24.822  -1.215  55.465  1.00  0.00    -0.229 N 
HETATM    5  O5  UNL     1      23.509  -1.422  55.254  1.00  0.00    -0.238 OA
HETATM    6  C10 UNL     1      22.716  -0.833  54.279  1.00  0.00     0.100 A 
HETATM    7  C11 UNL     1      23.199   0.060  53.387  1.00  0.00    -0.024 A 
HETATM    8  C12 UNL     1      22.041   0.403  52.586  1.00  0.00     0.052 A 
HETATM    9  C13 UNL     1      21.374   1.017  51.632  1.00  0.00    -0.017 A 
HETATM   10  C14 UNL     1      19.956   0.619  51.623  1.00  0.00    -0.002 A 
HETATM   11  C15 UNL     1      19.079  -0.149  52.235  1.00  0.00     0.019 A 
HETATM   12  C16 UNL     1      19.221  -1.062  53.362  1.00  0.00     0.110 A 
HETATM   13  N2  UNL     1      20.444  -0.865  53.540  1.00  0.00    -0.295 NA
HETATM   14  C17 UNL     1      21.337  -1.419  54.493  1.00  0.00     0.215 A 
HETATM   15  H11 UNL     1      25.515  -1.572  56.130  1.00  0.00     0.198 HD
ENDROOT
BRANCH   1  16
HETATM   16  C7  UNL     1      24.881   1.875  53.613  1.00  0.00     0.056 C 
BRANCH  16  17
HETATM   17  C6  UNL     1      25.243   2.526  52.346  1.00  0.00    -0.042 A 
HETATM   18  C4  UNL     1      24.566   3.640  52.014  1.00  0.00     0.106 A 
HETATM   19  C3  UNL     1      24.876   4.336  50.769  1.00  0.00     0.129 A 
HETATM   20  C2  UNL     1      25.841   3.776  50.053  1.00  0.00     0.082 A 
HETATM   21  C19 UNL     1      26.661   2.576  50.284  1.00  0.00     0.072 A 
HETATM   22  C18 UNL     1      26.323   1.879  51.559  1.00  0.00     0.044 A 
BRANCH  18  23
HETATM   23  O3  UNL     1      23.574   4.149  52.826  1.00  0.00    -0.353 OA
HETATM   24  C5  UNL     1      22.234   4.314  52.406  1.00  0.00     0.210 C 
ENDBRANCH  18  23
BRANCH  19  25
HETATM   25  O2  UNL     1      24.250   5.479  50.331  1.00  0.00    -0.356 OA
HETATM   26  H4  UNL     1      23.424   5.518  49.752  1.00  0.00     0.218 HD
ENDBRANCH  19  25
BRANCH  20  27
HETATM   27  O1  UNL     1      26.146   4.431  48.862  1.00  0.00    -0.357 OA
HETATM   28  C1  UNL     1      27.462   4.863  48.651  1.00  0.00     0.209 C 
ENDBRANCH  20  27
ENDBRANCH  16  17
ENDBRANCH   1  16
TORSDOF 5
ENDMDL
MODEL 2
REMARK VINA RESULT:      -8.0      2.405      4.220
REMARK  5 active torsions:
REMARK  status: ('A' for Active; 'I' for Inactive)
REMARK    1  A    between atoms: O1_2  and  C2_3 
REMARK    2  A    between atoms: C3_4  and  O2_5 
REMARK    3  A    between atoms: C4_6  and  O3_7 
REMARK    4  A    between atoms: C6_9  and  C7_10 
REMARK    5  A    between atoms: C7_10  and  C8_11 
ROOT
HETATM    1  C8  UNL     1      22.009  -0.372  53.057  1.00  0.00     0.116 A 
HETATM    2  C9  UNL     1      21.117  -1.019  53.982  1.00  0.00     0.250 A 
HETATM    3  O4  UNL     1      21.790  -1.536  54.941  1.00  0.00    -0.271 OA
HETATM    4  N1  UNL     1      19.715  -1.106  53.904  1.00  0.00    -0.229 N 
HETATM    5  O5  UNL     1      19.252  -0.483  52.804  1.00  0.00    -0.238 OA
HETATM    6  C10 UNL     1      20.002   0.176  51.840  1.00  0.00     0.100 A 
HETATM    7  C11 UNL     1      21.348   0.269  51.899  1.00  0.00    -0.024 A 
HETATM    8  C12 UNL     1      21.690   1.030  50.714  1.00  0.00     0.052 A 
HETATM    9  C13 UNL     1      22.487   1.633  49.856  1.00  0.00    -0.017 A 
HETATM   10  C14 UNL     1      21.728   2.241  48.751  1.00  0.00    -0.002 A 
HETATM   11  C15 UNL     1      20.508   2.411  48.286  1.00  0.00     0.019 A 
HETATM   12  C16 UNL     1      19.214   1.972  48.795  1.00  0.00     0.110 A 
HETATM   13  N2  UNL     1      19.662   1.389  49.808  1.00  0.00    -0.295 NA
HETATM   14  C17 UNL     1      18.986   0.686  50.839  1.00  0.00     0.215 A 
HETATM   15  H11 UNL     1      19.287  -1.619  54.680  1.00  0.00     0.198 HD
ENDROOT
BRANCH   1  16
HETATM   16  C7  UNL     1      22.898   0.578  53.816  1.00  0.00     0.056 C 
BRANCH  16  17
HETATM   17  C6  UNL     1      24.328   0.427  53.513  1.00  0.00    -0.042 A 
HETATM   18  C4  UNL     1      25.049   1.554  53.376  1.00  0.00     0.106 A 
HETATM   19  C3  UNL     1      26.475   1.474  53.075  1.00  0.00     0.129 A 
HETATM   20  C2  UNL     1      26.944   0.240  52.961  1.00  0.00     0.082 A 
HETATM   21  C19 UNL     1      26.287  -1.072  53.083  1.00  0.00     0.072 A 
HETATM   22  C18 UNL     1      24.831  -0.965  53.385  1.00  0.00     0.044 A 
BRANCH  18  23
HETATM   23  O3  UNL     1      24.472   2.799  53.513  1.00  0.00    -0.353 OA
HETATM   24  C5  UNL     1      24.100   3.608  52.415  1.00  0.00     0.210 C 
ENDBRANCH  18  23
BRANCH  19  25
HETATM   25  O2  UNL     1      27.306   2.559  52.914  1.00  0.00    -0.356 OA
HETATM   26  H4  UNL     1      27.028   3.477  52.604  1.00  0.00     0.218 HD
ENDBRANCH  19  25
BRANCH  20  27
HETATM   27  O1  UNL     1      28.304   0.150  52.674  1.00  0.00    -0.357 OA
HETATM   28  C1  UNL     1      29.119  -0.622  53.511  1.00  0.00     0.209 C 
ENDBRANCH  20  27
ENDBRANCH  16  17
ENDBRANCH   1  16
TORSDOF 5
ENDMDL
MODEL 3
REMARK VINA RESULT:      -7.9      2.023      4.488
REMARK  5 active torsions:
REMARK  status: ('A' for Active; 'I' for Inactive)
REMARK    1  A    between atoms: O1_2  and  C2_3 
REMARK    2  A    between atoms: C3_4  and  O2_5 
REMARK    3  A    between atoms: C4_6  and  O3_7 
REMARK    4  A    between atoms: C6_9  and  C7_10 
REMARK    5  A    between atoms: C7_10  and  C8_11 
ROOT
HETATM    1  C8  UNL     1      23.662   1.549  52.682  1.00  0.00     0.116 A 
HETATM    2  C9  UNL     1      22.611   0.606  52.964  1.00  0.00     0.250 A 
HETATM    3  O4  UNL     1      21.509   1.026  52.464  1.00  0.00    -0.271 OA
HETATM    4  N1  UNL     1      22.712  -0.605  53.673  1.00  0.00    -0.229 N 
HETATM    5  O5  UNL     1      23.974  -0.816  54.092  1.00  0.00    -0.238 OA
HETATM    6  C10 UNL     1      25.072   0.008  53.886  1.00  0.00     0.100 A 
HETATM    7  C11 UNL     1      24.993   1.174  53.209  1.00  0.00    -0.024 A 
HETATM    8  C12 UNL     1      26.351   1.679  53.238  1.00  0.00     0.052 A 
HETATM    9  C13 UNL     1      27.329   2.524  52.988  1.00  0.00    -0.017 A 
HETATM   10  C14 UNL     1      28.606   2.053  53.549  1.00  0.00    -0.002 A 
HETATM   11  C15 UNL     1      29.150   1.067  54.231  1.00  0.00     0.019 A 
HETATM   12  C16 UNL     1      28.576  -0.151  54.788  1.00  0.00     0.110 A 
HETATM   13  N2  UNL     1      27.405   0.065  54.398  1.00  0.00    -0.295 NA
HETATM   14  C17 UNL     1      26.224  -0.703  54.563  1.00  0.00     0.215 A 
HETATM   15  H11 UNL     1      21.828  -1.115  53.751  1.00  0.00     0.198 HD
ENDROOT
BRANCH   1  16
HETATM   16  C7  UNL     1      23.683   1.831  51.202  1.00  0.00     0.056 C 
BRANCH  16  17
HETATM   17  C6  UNL     1      24.258   3.138  50.853  1.00  0.00    -0.042 A 
HETATM   18  C4  UNL     1      23.643   4.229  51.342  1.00  0.00     0.106 A 
HETATM   19  C3  UNL     1      24.162   5.557  51.034  1.00  0.00     0.129 A 
HETATM   20  C2  UNL     1      25.243   5.560  50.265  1.00  0.00     0.082 A 
HETATM   21  C19 UNL     1      26.018   4.462  49.664  1.00  0.00     0.072 A 
HETATM   22  C18 UNL     1      25.465   3.116  49.989  1.00  0.00     0.044 A 
BRANCH  18  23
HETATM   23  O3  UNL     1      22.519   4.128  52.136  1.00  0.00    -0.353 OA
HETATM   24  C5  UNL     1      21.213   4.404  51.673  1.00  0.00     0.210 C 
ENDBRANCH  18  23
BRANCH  19  25
HETATM   25  O2  UNL     1      23.615   6.739  51.478  1.00  0.00    -0.356 OA
HETATM   26  H4  UNL     1      23.676   7.104  52.416  1.00  0.00     0.218 HD
ENDBRANCH  19  25
BRANCH  20  27
HETATM   27  O1  UNL     1      25.749   6.822  49.964  1.00  0.00    -0.357 OA
HETATM   28  C1  UNL     1      26.687   6.941  48.931  1.00  0.00     0.209 C 
ENDBRANCH  20  27
ENDBRANCH  16  17
ENDBRANCH   1  16
TORSDOF 5
ENDMDL
MODEL 4
REMARK VINA RESULT:      -7.9      2.469      3.654
REMARK  5 active torsions:
REMARK  status: ('A' for Active; 'I' for Inactive)
REMARK    1  A    between atoms: O1_2  and  C2_3 
REMARK    2  A    between atoms: C3_4  and  O2_5 
REMARK    3  A    between atoms: C4_6  and  O3_7 
REMARK    4  A    between atoms: C6_9  and  C7_10 
REMARK    5  A    between atoms: C7_10  and  C8_11 
ROOT
HETATM    1  C8  UNL     1      25.178   1.995  51.447  1.00  0.00     0.116 A 
HETATM    2  C9  UNL     1      26.598   2.145  51.622  1.00  0.00     0.250 A 
HETATM    3  O4  UNL     1      27.058   2.958  50.745  1.00  0.00    -0.271 OA
HETATM    4  N1  UNL     1      27.415   1.524  52.585  1.00  0.00    -0.229 N 
HETATM    5  O5  UNL     1      26.691   0.720  53.386  1.00  0.00    -0.238 OA
HETATM    6  C10 UNL     1      25.324   0.491  53.326  1.00  0.00     0.100 A 
HETATM    7  C11 UNL     1      24.526   1.077  52.408  1.00  0.00    -0.024 A 
HETATM    8  C12 UNL     1      23.208   0.560  52.720  1.00  0.00     0.052 A 
HETATM    9  C13 UNL     1      21.907   0.412  52.582  1.00  0.00    -0.017 A 
HETATM   10  C14 UNL     1      21.361  -0.514  53.589  1.00  0.00    -0.002 A 
HETATM   11  C15 UNL     1      21.703  -1.273  54.609  1.00  0.00     0.019 A 
HETATM   12  C16 UNL     1      22.996  -1.524  55.233  1.00  0.00     0.110 A 
HETATM   13  N2  UNL     1      23.656  -0.778  54.473  1.00  0.00    -0.295 NA
HETATM   14  C17 UNL     1      25.043  -0.486  54.448  1.00  0.00     0.215 A 
HETATM   15  H11 UNL     1      28.404   1.782  52.518  1.00  0.00     0.198 HD
ENDROOT
BRANCH   1  16
HETATM   16  C7  UNL     1      24.540   3.360  51.425  1.00  0.00     0.056 C 
BRANCH  16  17
HETATM   17  C6  UNL     1      23.875   3.686  50.156  1.00  0.00    -0.042 A 
HETATM   18  C4  UNL     1      24.092   4.912  49.647  1.00  0.00     0.106 A 
HETATM   19  C3  UNL     1      23.462   5.301  48.390  1.00  0.00     0.129 A 
HETATM   20  C2  UNL     1      22.701   4.363  47.844  1.00  0.00     0.082 A 
HETATM   21  C19 UNL     1      22.373   2.994  48.276  1.00  0.00     0.072 A 
HETATM   22  C18 UNL     1      23.024   2.622  49.565  1.00  0.00     0.044 A 
BRANCH  18  23
HETATM   23  O3  UNL     1      24.903   5.825  50.289  1.00  0.00    -0.353 OA
HETATM   24  C5  UNL     1      24.405   6.930  51.016  1.00  0.00     0.210 C 
ENDBRANCH  18  23
BRANCH  19  25
HETATM   25  O2  UNL     1      23.613   6.525  47.780  1.00  0.00    -0.356 OA
HETATM   26  H4  UNL     1      23.456   6.723  46.803  1.00  0.00     0.218 HD
ENDBRANCH  19  25
BRANCH  20  27
HETATM   27  O1  UNL     1      22.094   4.721  46.643  1.00  0.00    -0.357 OA
HETATM   28  C1  UNL     1      21.881   3.731  45.675  1.00  0.00     0.209 C 
ENDBRANCH  20  27
ENDBRANCH  16  17
ENDBRANCH   1  16
TORSDOF 5
ENDMDL
MODEL 5
REMARK VINA RESULT:      -7.8      3.075      6.559
REMARK  5 active torsions:
REMARK  status: ('A' for Active; 'I' for Inactive)
REMARK    1  A    between atoms: O1_2  and  C2_3 
REMARK    2  A    between atoms: C3_4  and  O2_5 
REMARK    3  A    between atoms: C4_6  and  O3_7 
REMARK    4  A    between atoms: C6_9  and  C7_10 
REMARK    5  A    between atoms: C7_10  and  C8_11 
ROOT
HETATM    1  C8  UNL     1      23.032   1.789  50.407  1.00  0.00     0.116 A 
HETATM    2  C9  UNL     1      21.734   1.254  50.094  1.00  0.00     0.250 A 
HETATM    3  O4  UNL     1      21.559   0.152  50.724  1.00  0.00    -0.271 OA
HETATM    4  N1  UNL     1      20.760   1.804  49.240  1.00  0.00    -0.229 N 
HETATM    5  O5  UNL     1      21.188   2.962  48.703  1.00  0.00    -0.238 OA
HETATM    6  C10 UNL     1      22.409   3.584  48.922  1.00  0.00     0.100 A 
HETATM    7  C11 UNL     1      23.354   3.070  49.738  1.00  0.00    -0.024 A 
HETATM    8  C12 UNL     1      24.431   4.038  49.666  1.00  0.00     0.052 A 
HETATM    9  C13 UNL     1      25.612   4.550  49.941  1.00  0.00    -0.017 A 
HETATM   10  C14 UNL     1      25.826   5.822  49.232  1.00  0.00    -0.002 A 
HETATM   11  C15 UNL     1      25.255   6.666  48.397  1.00  0.00     0.019 A 
HETATM   12  C16 UNL     1      23.953   6.640  47.743  1.00  0.00     0.110 A 
HETATM   13  N2  UNL     1      23.575   5.557  48.244  1.00  0.00    -0.295 NA
HETATM   14  C17 UNL     1      22.361   4.841  48.079  1.00  0.00     0.215 A 
HETATM   15  H11 UNL     1      19.906   1.243  49.169  1.00  0.00     0.198 HD
ENDROOT
BRANCH   1  16
HETATM   16  C7  UNL     1      23.185   1.862  51.903  1.00  0.00     0.056 C 
BRANCH  16  17
HETATM   17  C6  UNL     1      24.363   1.148  52.417  1.00  0.00    -0.042 A 
HETATM   18  C4  UNL     1      24.171   0.316  53.456  1.00  0.00     0.106 A 
HETATM   19  C3  UNL     1      25.298  -0.423  54.014  1.00  0.00     0.129 A 
HETATM   20  C2  UNL     1      26.458  -0.193  53.414  1.00  0.00     0.082 A 
HETATM   21  C19 UNL     1      26.818   0.677  52.282  1.00  0.00     0.072 A 
HETATM   22  C18 UNL     1      25.651   1.425  51.732  1.00  0.00     0.044 A 
BRANCH  18  23
HETATM   23  O3  UNL     1      22.923   0.140  54.016  1.00  0.00    -0.353 OA
HETATM   24  C5  UNL     1      22.173  -1.051  53.885  1.00  0.00     0.210 C 
ENDBRANCH  18  23
BRANCH  19  25
HETATM   25  O2  UNL     1      25.218  -1.298  55.072  1.00  0.00    -0.356 OA
HETATM   26  H4  UNL     1      25.312  -1.059  56.048  1.00  0.00     0.218 HD
ENDBRANCH  19  25
BRANCH  20  27
HETATM   27  O1  UNL     1      27.542  -0.893  53.937  1.00  0.00    -0.357 OA
HETATM   28  C1  UNL     1      28.612  -0.170  54.478  1.00  0.00     0.209 C 
ENDBRANCH  20  27
ENDBRANCH  16  17
ENDBRANCH   1  16
TORSDOF 5
ENDMDL
MODEL 6
REMARK VINA RESULT:      -7.7      2.801      5.629
REMARK  5 active torsions:
REMARK  status: ('A' for Active; 'I' for Inactive)
REMARK    1  A    between atoms: O1_2  and  C2_3 
REMARK    2  A    between atoms: C3_4  and  O2_5 
REMARK    3  A    between atoms: C4_6  and  O3_7 
REMARK    4  A    between atoms: C6_9  and  C7_10 
REMARK    5  A    between atoms: C7_10  and  C8_11 
ROOT
HETATM    1  C8  UNL     1      22.640  -0.340  53.904  1.00  0.00     0.116 A 
HETATM    2  C9  UNL     1      22.558  -1.289  54.983  1.00  0.00     0.250 A 
HETATM    3  O4  UNL     1      21.346  -1.678  55.124  1.00  0.00    -0.271 OA
HETATM    4  N1  UNL     1      23.607  -1.759  55.795  1.00  0.00    -0.229 N 
HETATM    5  O5  UNL     1      24.779  -1.199  55.443  1.00  0.00    -0.238 OA
HETATM    6  C10 UNL     1      24.993  -0.277  54.427  1.00  0.00     0.100 A 
HETATM    7  C11 UNL     1      23.998   0.184  53.639  1.00  0.00    -0.024 A 
HETATM    8  C12 UNL     1      24.672   1.099  52.739  1.00  0.00     0.052 A 
HETATM    9  C13 UNL     1      24.772   1.965  51.752  1.00  0.00    -0.017 A 
HETATM   10  C14 UNL     1      26.162   2.417  51.570  1.00  0.00    -0.002 A 
HETATM   11  C15 UNL     1      27.382   2.270  52.044  1.00  0.00     0.019 A 
HETATM   12  C16 UNL     1      27.900   1.452  53.133  1.00  0.00     0.110 A 
HETATM   13  N2  UNL     1      26.800   0.946  53.453  1.00  0.00    -0.295 NA
HETATM   14  C17 UNL     1      26.479   0.012  54.471  1.00  0.00     0.215 A 
HETATM   15  H11 UNL     1      23.311  -2.436  56.504  1.00  0.00     0.198 HD
ENDROOT
BRANCH   1  16
HETATM   16  C7  UNL     1      21.999  -0.936  52.678  1.00  0.00     0.056 C 
BRANCH  16  17
HETATM   17  C6  UNL     1      21.223   0.027  51.884  1.00  0.00    -0.042 A 
HETATM   18  C4  UNL     1      19.956   0.260  52.271  1.00  0.00     0.106 A 
HETATM   19  C3  UNL     1      19.130   1.205  51.527  1.00  0.00     0.129 A 
HETATM   20  C2  UNL     1      19.737   1.770  50.493  1.00  0.00     0.082 A 
HETATM   21  C19 UNL     1      21.099   1.619  49.956  1.00  0.00     0.072 A 
HETATM   22  C18 UNL     1      21.922   0.645  50.729  1.00  0.00     0.044 A 
BRANCH  18  23
HETATM   23  O3  UNL     1      19.407  -0.378  53.364  1.00  0.00    -0.353 OA
HETATM   24  C5  UNL     1      18.376  -1.340  53.266  1.00  0.00     0.210 C 
ENDBRANCH  18  23
BRANCH  19  25
HETATM   25  O2  UNL     1      17.825   1.519  51.831  1.00  0.00    -0.356 OA
HETATM   26  H4  UNL     1      17.493   1.884  52.711  1.00  0.00     0.218 HD
ENDBRANCH  19  25
BRANCH  20  27
HETATM   27  O1  UNL     1      18.959   2.675  49.775  1.00  0.00    -0.357 OA
HETATM   28  C1  UNL     1      19.337   4.023  49.759  1.00  0.00     0.209 C 
ENDBRANCH  20  27
ENDBRANCH  16  17
ENDBRANCH   1  16
TORSDOF 5
ENDMDL
MODEL 7
REMARK VINA RESULT:      -7.3      2.174      4.726
REMARK  5 active torsions:
REMARK  status: ('A' for Active; 'I' for Inactive)
REMARK    1  A    between atoms: O1_2  and  C2_3 
REMARK    2  A    between atoms: C3_4  and  O2_5 
REMARK    3  A    between atoms: C4_6  and  O3_7 
REMARK    4  A    between atoms: C6_9  and  C7_10 
REMARK    5  A    between atoms: C7_10  and  C8_11 
ROOT
HETATM    1  C8  UNL     1      22.011   1.092  53.136  1.00  0.00     0.116 A 
HETATM    2  C9  UNL     1      21.238   0.028  53.721  1.00  0.00     0.250 A 
HETATM    3  O4  UNL     1      19.991   0.314  53.653  1.00  0.00    -0.271 OA
HETATM    4  N1  UNL     1      21.715  -1.165  54.294  1.00  0.00    -0.229 N 
HETATM    5  O5  UNL     1      23.058  -1.224  54.240  1.00  0.00    -0.238 OA
HETATM    6  C10 UNL     1      23.916  -0.273  53.705  1.00  0.00     0.100 A 
HETATM    7  C11 UNL     1      23.476   0.877  53.151  1.00  0.00    -0.024 A 
HETATM    8  C12 UNL     1      24.693   1.543  52.731  1.00  0.00     0.052 A 
HETATM    9  C13 UNL     1      25.421   2.501  52.196  1.00  0.00    -0.017 A 
HETATM   10  C14 UNL     1      26.858   2.184  52.258  1.00  0.00    -0.002 A 
HETATM   11  C15 UNL     1      27.713   1.268  52.664  1.00  0.00     0.019 A 
HETATM   12  C16 UNL     1      27.508  -0.012  53.329  1.00  0.00     0.110 A 
HETATM   13  N2  UNL     1      26.259   0.062  53.379  1.00  0.00    -0.295 NA
HETATM   14  C17 UNL     1      25.304  -0.843  53.908  1.00  0.00     0.215 A 
HETATM   15  H11 UNL     1      20.976  -1.778  54.650  1.00  0.00     0.198 HD
ENDROOT
BRANCH   1  16
HETATM   16  C7  UNL     1      21.483   1.380  51.755  1.00  0.00     0.056 C 
BRANCH  16  17
HETATM   17  C6  UNL     1      21.754   2.746  51.286  1.00  0.00    -0.042 A 
HETATM   18  C4  UNL     1      22.310   2.878  50.069  1.00  0.00     0.106 A 
HETATM   19  C3  UNL     1      22.606   4.207  49.544  1.00  0.00     0.129 A 
HETATM   20  C2  UNL     1      22.282   5.203  50.356  1.00  0.00     0.082 A 
HETATM   21  C19 UNL     1      21.674   5.215  51.697  1.00  0.00     0.072 A 
HETATM   22  C18 UNL     1      21.386   3.846  52.214  1.00  0.00     0.044 A 
BRANCH  18  23
HETATM   23  O3  UNL     1      22.614   1.779  49.293  1.00  0.00    -0.353 OA
HETATM   24  C5  UNL     1      21.831   1.365  48.191  1.00  0.00     0.210 C 
ENDBRANCH  18  23
BRANCH  19  25
HETATM   25  O2  UNL     1      23.173   4.459  48.316  1.00  0.00    -0.356 OA
HETATM   26  H4  UNL     1      24.135   4.294  48.062  1.00  0.00     0.218 HD
ENDBRANCH  19  25
BRANCH  20  27
HETATM   27  O1  UNL     1      22.559   6.477  49.866  1.00  0.00    -0.357 OA
HETATM   28  C1  UNL     1      23.198   7.397  50.707  1.00  0.00     0.209 C 
ENDBRANCH  20  27
ENDBRANCH  16  17
ENDBRANCH   1  16
TORSDOF 5
ENDMDL
MODEL 8
REMARK VINA RESULT:      -7.1      3.201      4.643
REMARK  5 active torsions:
REMARK  status: ('A' for Active; 'I' for Inactive)
REMARK    1  A    between atoms: O1_2  and  C2_3 
REMARK    2  A    between atoms: C3_4  and  O2_5 
REMARK    3  A    between atoms: C4_6  and  O3_7 
REMARK    4  A    between atoms: C6_9  and  C7_10 
REMARK    5  A    between atoms: C7_10  and  C8_11 
ROOT
HETATM    1  C8  UNL     1      24.763   2.696  50.548  1.00  0.00     0.116 A 
HETATM    2  C9  UNL     1      26.102   3.200  50.702  1.00  0.00     0.250 A 
HETATM    3  O4  UNL     1      26.359   4.036  49.766  1.00  0.00    -0.271 OA
HETATM    4  N1  UNL     1      27.034   2.869  51.702  1.00  0.00    -0.229 N 
HETATM    5  O5  UNL     1      26.520   1.972  52.564  1.00  0.00    -0.238 OA
HETATM    6  C10 UNL     1      25.251   1.412  52.529  1.00  0.00     0.100 A 
HETATM    7  C11 UNL     1      24.344   1.718  51.576  1.00  0.00    -0.024 A 
HETATM    8  C12 UNL     1      23.189   0.919  51.934  1.00  0.00     0.052 A 
HETATM    9  C13 UNL     1      21.965   0.447  51.816  1.00  0.00    -0.017 A 
HETATM   10  C14 UNL     1      21.650  -0.509  52.890  1.00  0.00    -0.002 A 
HETATM   11  C15 UNL     1      22.155  -1.087  53.960  1.00  0.00     0.019 A 
HETATM   12  C16 UNL     1      23.463  -0.968  54.592  1.00  0.00     0.110 A 
HETATM   13  N2  UNL     1      23.929  -0.141  53.776  1.00  0.00    -0.295 NA
HETATM   14  C17 UNL     1      25.204   0.479  53.721  1.00  0.00     0.215 A 
HETATM   15  H11 UNL     1      27.931   3.355  51.611  1.00  0.00     0.198 HD
ENDROOT
BRANCH   1  16
HETATM   16  C7  UNL     1      23.812   3.858  50.431  1.00  0.00     0.056 C 
BRANCH  16  17
HETATM   17  C6  UNL     1      22.680   3.614  49.526  1.00  0.00    -0.042 A 
HETATM   18  C4  UNL     1      21.458   3.968  49.961  1.00  0.00     0.106 A 
HETATM   19  C3  UNL     1      20.292   3.753  49.112  1.00  0.00     0.129 A 
HETATM   20  C2  UNL     1      20.563   3.203  47.936  1.00  0.00     0.082 A 
HETATM   21  C19 UNL     1      21.831   2.768  47.328  1.00  0.00     0.072 A 
HETATM   22  C18 UNL     1      23.007   2.994  48.217  1.00  0.00     0.044 A 
BRANCH  18  23
HETATM   23  O3  UNL     1      21.273   4.536  51.205  1.00  0.00    -0.353 OA
HETATM   24  C5  UNL     1      20.785   3.820  52.321  1.00  0.00     0.210 C 
ENDBRANCH  18  23
BRANCH  19  25
HETATM   25  O2  UNL     1      18.999   4.076  49.454  1.00  0.00    -0.356 OA
HETATM   26  H4  UNL     1      18.682   4.971  49.795  1.00  0.00     0.218 HD
ENDBRANCH  19  25
BRANCH  20  27
HETATM   27  O1  UNL     1      19.457   2.993  47.115  1.00  0.00    -0.357 OA
HETATM   28  C1  UNL     1      19.404   3.648  45.878  1.00  0.00     0.209 C 
ENDBRANCH  20  27
ENDBRANCH  16  17
ENDBRANCH   1  16
TORSDOF 5
ENDMDL
MODEL 9
REMARK VINA RESULT:      -7.1      2.406      4.670
REMARK  5 active torsions:
REMARK  status: ('A' for Active; 'I' for Inactive)
REMARK    1  A    between atoms: O1_2  and  C2_3 
REMARK    2  A    between atoms: C3_4  and  O2_5 
REMARK    3  A    between atoms: C4_6  and  O3_7 
REMARK    4  A    between atoms: C6_9  and  C7_10 
REMARK    5  A    between atoms: C7_10  and  C8_11 
ROOT
HETATM    1  C8  UNL     1      21.715   0.619  52.876  1.00  0.00     0.116 A 
HETATM    2  C9  UNL     1      20.962  -0.275  53.714  1.00  0.00     0.250 A 
HETATM    3  O4  UNL     1      19.709  -0.102  53.513  1.00  0.00    -0.271 OA
HETATM    4  N1  UNL     1      21.462  -1.217  54.633  1.00  0.00    -0.229 N 
HETATM    5  O5  UNL     1      22.807  -1.202  54.655  1.00  0.00    -0.238 OA
HETATM    6  C10 UNL     1      23.648  -0.395  53.901  1.00  0.00     0.100 A 
HETATM    7  C11 UNL     1      23.185   0.514  53.015  1.00  0.00    -0.024 A 
HETATM    8  C12 UNL     1      24.391   1.105  52.470  1.00  0.00     0.052 A 
HETATM    9  C13 UNL     1      25.101   1.910  51.709  1.00  0.00    -0.017 A 
HETATM   10  C14 UNL     1      26.546   1.718  51.921  1.00  0.00    -0.002 A 
HETATM   11  C15 UNL     1      27.419   1.017  52.614  1.00  0.00     0.019 A 
HETATM   12  C16 UNL     1      27.239  -0.025  53.617  1.00  0.00     0.110 A 
HETATM   13  N2  UNL     1      25.987  -0.019  53.590  1.00  0.00    -0.295 NA
HETATM   14  C17 UNL     1      25.047  -0.791  54.320  1.00  0.00     0.215 A 
HETATM   15  H11 UNL     1      20.734  -1.746  55.122  1.00  0.00     0.198 HD
ENDROOT
BRANCH   1  16
HETATM   16  C7  UNL     1      21.256   0.459  51.450  1.00  0.00     0.056 C 
BRANCH  16  17
HETATM   17  C6  UNL     1      21.410   1.672  50.634  1.00  0.00    -0.042 A 
HETATM   18  C4  UNL     1      20.602   2.709  50.917  1.00  0.00     0.106 A 
HETATM   19  C3  UNL     1      20.703   3.943  50.146  1.00  0.00     0.129 A 
HETATM   20  C2  UNL     1      21.627   3.922  49.195  1.00  0.00     0.082 A 
HETATM   21  C19 UNL     1      22.574   2.877  48.774  1.00  0.00     0.072 A 
HETATM   22  C18 UNL     1      22.448   1.624  49.574  1.00  0.00     0.044 A 
BRANCH  18  23
HETATM   23  O3  UNL     1      19.666   2.637  51.929  1.00  0.00    -0.353 OA
HETATM   24  C5  UNL     1      18.278   2.510  51.696  1.00  0.00     0.210 C 
ENDBRANCH  18  23
BRANCH  19  25
HETATM   25  O2  UNL     1      19.929   5.062  50.347  1.00  0.00    -0.356 OA
HETATM   26  H4  UNL     1      20.232   5.923  50.777  1.00  0.00     0.218 HD
ENDBRANCH  19  25
BRANCH  20  27
HETATM   27  O1  UNL     1      21.734   5.095  48.451  1.00  0.00    -0.357 OA
HETATM   28  C1  UNL     1      22.987   5.454  47.938  1.00  0.00     0.209 C 
ENDBRANCH  20  27
ENDBRANCH  16  17
ENDBRANCH   1  16
TORSDOF 5
ENDMDL
