MODEL 1
REMARK VINA RESULT:      -9.2      0.000      0.000
REMARK  4 active torsions:
REMARK  status: ('A' for Active; 'I' for Inactive)
REMARK    1  A    between atoms: C5_5  and  N1_6 
REMARK    2  A    between atoms: N1_6  and  C6_7 
REMARK    3  A    between atoms: C10_13  and  O1_14 
REMARK    4  A    between atoms: O1_14  and  C11_15 
ROOT
HETATM    1  C1  UNL     1      30.109  -0.992  53.831  1.00  0.00     0.049 C 
HETATM    2  C2  UNL     1      28.695  -0.671  53.553  1.00  0.00    -0.041 A 
HETATM    3  C3  UNL     1      27.822  -1.599  52.975  1.00  0.00     0.010 A 
HETATM    4  C4  UNL     1      26.499  -1.250  52.732  1.00  0.00     0.030 A 
HETATM    5  C5  UNL     1      26.069  -0.003  53.062  1.00  0.00     0.035 A 
HETATM    6  C19 UNL     1      26.885   0.950  53.634  1.00  0.00     0.052 A 
HETATM    7  C20 UNL     1      28.194   0.574  53.864  1.00  0.00     0.052 A 
HETATM    8  C21 UNL     1      29.091   1.544  54.469  1.00  0.00     0.100 C 
HETATM    9  N4  UNL     1      29.802   2.307  54.969  1.00  0.00    -0.191 NA
ENDROOT
BRANCH   5  10
HETATM   10  N1  UNL     1      24.747   0.379  52.840  1.00  0.00    -0.340 N 
HETATM   11  H6  UNL     1      24.420   1.066  52.123  1.00  0.00     0.167 HD
BRANCH  10  12
HETATM   12  C6  UNL     1      23.455   0.107  53.346  1.00  0.00     0.144 A 
HETATM   13  N2  UNL     1      23.205  -0.961  54.130  1.00  0.00    -0.223 NA
HETATM   14  C7  UNL     1      21.949  -1.194  54.602  1.00  0.00     0.236 A 
HETATM   15  N3  UNL     1      20.915  -0.372  54.306  1.00  0.00    -0.241 NA
HETATM   16  C8  UNL     1      21.086   0.713  53.529  1.00  0.00     0.077 A 
HETATM   17  C9  UNL     1      20.073   1.588  53.195  1.00  0.00     0.072 A 
HETATM   18  C16 UNL     1      22.364   0.932  53.060  1.00  0.00     0.075 A 
HETATM   19  C10 UNL     1      20.267   2.698  52.401  1.00  0.00     0.107 A 
HETATM   20  C14 UNL     1      21.539   2.944  51.915  1.00  0.00     0.136 A 
HETATM   21  C15 UNL     1      22.552   2.048  52.263  1.00  0.00     0.121 A 
HETATM   22  O3  UNL     1      21.790   4.032  51.122  1.00  0.00    -0.344 OA
HETATM   23  O2  UNL     1      23.798   2.346  51.750  1.00  0.00    -0.345 OA
HETATM   24  C17 UNL     1      23.949   3.049  50.515  1.00  0.00     0.202 C 
HETATM   25  C18 UNL     1      22.927   4.113  50.310  1.00  0.00     0.202 C 
BRANCH  19  26
HETATM   26  O1  UNL     1      19.270   3.573  52.062  1.00  0.00    -0.344 OA
BRANCH  26  27
HETATM   27  C11 UNL     1      18.175   3.315  51.233  1.00  0.00     0.121 C 
HETATM   28  C12 UNL     1      16.932   4.048  51.708  1.00  0.00     0.040 C 
HETATM   29  C13 UNL     1      18.471   3.845  49.846  1.00  0.00     0.040 C 
ENDBRANCH  26  27
ENDBRANCH  19  26
ENDBRANCH  10  12
ENDBRANCH   5  10
TORSDOF 4
ENDMDL
MODEL 2
REMARK VINA RESULT:      -8.8      1.551      3.116
REMARK  4 active torsions:
REMARK  status: ('A' for Active; 'I' for Inactive)
REMARK    1  A    between atoms: C5_5  and  N1_6 
REMARK    2  A    between atoms: N1_6  and  C6_7 
REMARK    3  A    between atoms: C10_13  and  O1_14 
REMARK    4  A    between atoms: O1_14  and  C11_15 
ROOT
HETATM    1  C1  UNL     1      29.797  -1.059  53.868  1.00  0.00     0.049 C 
HETATM    2  C2  UNL     1      28.501  -0.537  53.390  1.00  0.00    -0.041 A 
HETATM    3  C3  UNL     1      27.588  -1.338  52.694  1.00  0.00     0.010 A 
HETATM    4  C4  UNL     1      26.381  -0.800  52.265  1.00  0.00     0.030 A 
HETATM    5  C5  UNL     1      26.102   0.504  52.528  1.00  0.00     0.035 A 
HETATM    6  C19 UNL     1      26.964   1.337  53.209  1.00  0.00     0.052 A 
HETATM    7  C20 UNL     1      28.155   0.776  53.624  1.00  0.00     0.052 A 
HETATM    8  C21 UNL     1      29.094   1.615  54.350  1.00  0.00     0.100 C 
HETATM    9  N4  UNL     1      29.834   2.274  54.945  1.00  0.00    -0.191 NA
ENDROOT
BRANCH   5  10
HETATM   10  N1  UNL     1      24.897   1.073  52.119  1.00  0.00    -0.340 N 
HETATM   11  H6  UNL     1      23.971   0.591  52.084  1.00  0.00     0.167 HD
BRANCH  10  12
HETATM   12  C6  UNL     1      24.406   2.312  51.643  1.00  0.00     0.144 A 
HETATM   13  N2  UNL     1      25.210   3.220  51.054  1.00  0.00    -0.223 NA
HETATM   14  C7  UNL     1      24.705   4.403  50.606  1.00  0.00     0.236 A 
HETATM   15  N3  UNL     1      23.392   4.709  50.733  1.00  0.00    -0.241 NA
HETATM   16  C8  UNL     1      22.529   3.854  51.310  1.00  0.00     0.077 A 
HETATM   17  C9  UNL     1      21.182   4.107  51.465  1.00  0.00     0.072 A 
HETATM   18  C16 UNL     1      23.059   2.661  51.758  1.00  0.00     0.075 A 
HETATM   19  C10 UNL     1      20.310   3.216  52.055  1.00  0.00     0.107 A 
HETATM   20  C14 UNL     1      20.812   2.012  52.514  1.00  0.00     0.136 A 
HETATM   21  C15 UNL     1      22.178   1.773  52.350  1.00  0.00     0.121 A 
HETATM   22  O3  UNL     1      19.992   1.089  53.109  1.00  0.00    -0.344 OA
HETATM   23  O2  UNL     1      22.620   0.555  52.826  1.00  0.00    -0.345 OA
HETATM   24  C17 UNL     1      21.974  -0.098  53.921  1.00  0.00     0.202 C 
HETATM   25  C18 UNL     1      20.493   0.062  53.915  1.00  0.00     0.202 C 
BRANCH  19  26
HETATM   26  O1  UNL     1      18.972   3.457  52.215  1.00  0.00    -0.344 OA
BRANCH  26  27
HETATM   27  C11 UNL     1      18.039   3.710  51.206  1.00  0.00     0.121 C 
HETATM   28  C12 UNL     1      17.785   2.474  50.360  1.00  0.00     0.040 C 
HETATM   29  C13 UNL     1      16.711   4.065  51.841  1.00  0.00     0.040 C 
ENDBRANCH  26  27
ENDBRANCH  19  26
ENDBRANCH  10  12
ENDBRANCH   5  10
TORSDOF 4
ENDMDL
MODEL 3
REMARK VINA RESULT:      -8.7      2.216      3.461
REMARK  4 active torsions:
REMARK  status: ('A' for Active; 'I' for Inactive)
REMARK    1  A    between atoms: C5_5  and  N1_6 
REMARK    2  A    between atoms: N1_6  and  C6_7 
REMARK    3  A    between atoms: C10_13  and  O1_14 
REMARK    4  A    between atoms: O1_14  and  C11_15 
ROOT
HETATM    1  C1  UNL     1      29.826  -0.914  53.688  1.00  0.00     0.049 C 
HETATM    2  C2  UNL     1      28.465  -0.417  53.409  1.00  0.00    -0.041 A 
HETATM    3  C3  UNL     1      27.505  -1.201  52.758  1.00  0.00     0.010 A 
HETATM    4  C4  UNL     1      26.236  -0.687  52.517  1.00  0.00     0.030 A 
HETATM    5  C5  UNL     1      25.944   0.578  52.920  1.00  0.00     0.035 A 
HETATM    6  C19 UNL     1      26.849   1.393  53.565  1.00  0.00     0.052 A 
HETATM    7  C20 UNL     1      28.101   0.856  53.791  1.00  0.00     0.052 A 
HETATM    8  C21 UNL     1      29.088   1.677  54.472  1.00  0.00     0.100 C 
HETATM    9  N4  UNL     1      29.869   2.320  55.031  1.00  0.00    -0.191 NA
ENDROOT
BRANCH   5  10
HETATM   10  N1  UNL     1      24.679   1.122  52.701  1.00  0.00    -0.340 N 
HETATM   11  H6  UNL     1      23.944   1.278  53.428  1.00  0.00     0.167 HD
BRANCH  10  12
HETATM   12  C6  UNL     1      23.903   1.630  51.633  1.00  0.00     0.144 A 
HETATM   13  N2  UNL     1      24.407   2.496  50.732  1.00  0.00    -0.223 NA
HETATM   14  C7  UNL     1      23.633   2.966  49.715  1.00  0.00     0.236 A 
HETATM   15  N3  UNL     1      22.342   2.585  49.571  1.00  0.00    -0.241 NA
HETATM   16  C8  UNL     1      21.768   1.725  50.431  1.00  0.00     0.077 A 
HETATM   17  C9  UNL     1      20.459   1.298  50.335  1.00  0.00     0.072 A 
HETATM   18  C16 UNL     1      22.567   1.261  51.455  1.00  0.00     0.075 A 
HETATM   19  C10 UNL     1      19.888   0.412  51.223  1.00  0.00     0.107 A 
HETATM   20  C14 UNL     1      20.665  -0.072  52.261  1.00  0.00     0.136 A 
HETATM   21  C15 UNL     1      21.987   0.371  52.343  1.00  0.00     0.121 A 
HETATM   22  O3  UNL     1      20.151  -0.955  53.173  1.00  0.00    -0.344 OA
HETATM   23  O2  UNL     1      22.713  -0.145  53.397  1.00  0.00    -0.345 OA
HETATM   24  C17 UNL     1      22.082  -0.535  54.619  1.00  0.00     0.202 C 
HETATM   25  C18 UNL     1      20.747  -1.165  54.421  1.00  0.00     0.202 C 
BRANCH  19  26
HETATM   26  O1  UNL     1      18.591  -0.019  51.139  1.00  0.00    -0.344 OA
BRANCH  26  27
HETATM   27  C11 UNL     1      17.538   0.620  50.480  1.00  0.00     0.121 C 
HETATM   28  C12 UNL     1      16.675  -0.370  49.716  1.00  0.00     0.040 C 
HETATM   29  C13 UNL     1      16.629   1.261  51.509  1.00  0.00     0.040 C 
ENDBRANCH  26  27
ENDBRANCH  19  26
ENDBRANCH  10  12
ENDBRANCH   5  10
TORSDOF 4
ENDMDL
MODEL 4
REMARK VINA RESULT:      -8.6      3.843      5.979
REMARK  4 active torsions:
REMARK  status: ('A' for Active; 'I' for Inactive)
REMARK    1  A    between atoms: C5_5  and  N1_6 
REMARK    2  A    between atoms: N1_6  and  C6_7 
REMARK    3  A    between atoms: C10_13  and  O1_14 
REMARK    4  A    between atoms: O1_14  and  C11_15 
ROOT
HETATM    1  C1  UNL     1      28.394   8.208  47.444  1.00  0.00     0.049 C 
HETATM    2  C2  UNL     1      27.703   7.032  48.009  1.00  0.00    -0.041 A 
HETATM    3  C3  UNL     1      26.344   7.058  48.345  1.00  0.00     0.010 A 
HETATM    4  C4  UNL     1      25.738   5.924  48.873  1.00  0.00     0.030 A 
HETATM    5  C5  UNL     1      26.479   4.800  49.059  1.00  0.00     0.035 A 
HETATM    6  C19 UNL     1      27.819   4.718  48.745  1.00  0.00     0.052 A 
HETATM    7  C20 UNL     1      28.394   5.859  48.221  1.00  0.00     0.052 A 
HETATM    8  C21 UNL     1      29.804   5.819  47.872  1.00  0.00     0.100 C 
HETATM    9  N4  UNL     1      30.921   5.785  47.574  1.00  0.00    -0.191 NA
ENDROOT
BRANCH   5  10
HETATM   10  N1  UNL     1      25.902   3.643  49.580  1.00  0.00    -0.340 N 
HETATM   11  H6  UNL     1      25.152   3.074  49.127  1.00  0.00     0.167 HD
BRANCH  10  12
HETATM   12  C6  UNL     1      26.000   2.822  50.728  1.00  0.00     0.144 A 
HETATM   13  N2  UNL     1      27.142   2.717  51.436  1.00  0.00    -0.223 NA
HETATM   14  C7  UNL     1      27.203   1.918  52.537  1.00  0.00     0.236 A 
HETATM   15  N3  UNL     1      26.131   1.206  52.958  1.00  0.00    -0.241 NA
HETATM   16  C8  UNL     1      24.958   1.259  52.303  1.00  0.00     0.077 A 
HETATM   17  C9  UNL     1      23.831   0.559  52.685  1.00  0.00     0.072 A 
HETATM   18  C16 UNL     1      24.915   2.072  51.190  1.00  0.00     0.075 A 
HETATM   19  C10 UNL     1      22.634   0.629  52.004  1.00  0.00     0.107 A 
HETATM   20  C14 UNL     1      22.561   1.437  50.884  1.00  0.00     0.136 A 
HETATM   21  C15 UNL     1      23.711   2.136  50.512  1.00  0.00     0.121 A 
HETATM   22  O3  UNL     1      21.397   1.544  50.168  1.00  0.00    -0.344 OA
HETATM   23  O2  UNL     1      23.577   2.926  49.388  1.00  0.00    -0.345 OA
HETATM   24  C17 UNL     1      22.653   2.597  48.348  1.00  0.00     0.202 C 
HETATM   25  C18 UNL     1      21.376   2.019  48.853  1.00  0.00     0.202 C 
BRANCH  19  26
HETATM   26  O1  UNL     1      21.510  -0.060  52.372  1.00  0.00    -0.344 OA
BRANCH  26  27
HETATM   27  C11 UNL     1      20.467   0.406  53.176  1.00  0.00     0.121 C 
HETATM   28  C12 UNL     1      19.199  -0.405  52.971  1.00  0.00     0.040 C 
HETATM   29  C13 UNL     1      20.848   0.229  54.631  1.00  0.00     0.040 C 
ENDBRANCH  26  27
ENDBRANCH  19  26
ENDBRANCH  10  12
ENDBRANCH   5  10
TORSDOF 4
ENDMDL
MODEL 5
REMARK VINA RESULT:      -8.5      4.036      6.494
REMARK  4 active torsions:
REMARK  status: ('A' for Active; 'I' for Inactive)
REMARK    1  A    between atoms: C5_5  and  N1_6 
REMARK    2  A    between atoms: N1_6  and  C6_7 
REMARK    3  A    between atoms: C10_13  and  O1_14 
REMARK    4  A    between atoms: O1_14  and  C11_15 
ROOT
HETATM    1  C1  UNL     1      29.165   7.749  47.042  1.00  0.00     0.049 C 
HETATM    2  C2  UNL     1      28.223   6.861  47.751  1.00  0.00    -0.041 A 
HETATM    3  C3  UNL     1      26.896   7.232  48.000  1.00  0.00     0.010 A 
HETATM    4  C4  UNL     1      26.047   6.360  48.672  1.00  0.00     0.030 A 
HETATM    5  C5  UNL     1      26.520   5.154  49.081  1.00  0.00     0.035 A 
HETATM    6  C19 UNL     1      27.816   4.738  48.863  1.00  0.00     0.052 A 
HETATM    7  C20 UNL     1      28.637   5.623  48.192  1.00  0.00     0.052 A 
HETATM    8  C21 UNL     1      30.011   5.227  47.935  1.00  0.00     0.100 C 
HETATM    9  N4  UNL     1      31.099   4.906  47.711  1.00  0.00    -0.191 NA
ENDROOT
BRANCH   5  10
HETATM   10  N1  UNL     1      25.694   4.253  49.751  1.00  0.00    -0.340 N 
HETATM   11  H6  UNL     1      26.001   3.552  50.463  1.00  0.00     0.167 HD
BRANCH  10  12
HETATM   12  C6  UNL     1      24.327   3.893  49.809  1.00  0.00     0.144 A 
HETATM   13  N2  UNL     1      23.382   4.564  49.121  1.00  0.00    -0.223 NA
HETATM   14  C7  UNL     1      22.075   4.190  49.197  1.00  0.00     0.236 A 
HETATM   15  N3  UNL     1      21.678   3.143  49.958  1.00  0.00    -0.241 NA
HETATM   16  C8  UNL     1      22.563   2.426  50.673  1.00  0.00     0.077 A 
HETATM   17  C9  UNL     1      22.220   1.348  51.464  1.00  0.00     0.072 A 
HETATM   18  C16 UNL     1      23.882   2.819  50.584  1.00  0.00     0.075 A 
HETATM   19  C10 UNL     1      23.141   0.621  52.187  1.00  0.00     0.107 A 
HETATM   20  C14 UNL     1      24.472   0.991  52.117  1.00  0.00     0.136 A 
HETATM   21  C15 UNL     1      24.801   2.085  51.313  1.00  0.00     0.121 A 
HETATM   22  O3  UNL     1      25.431   0.305  52.815  1.00  0.00    -0.344 OA
HETATM   23  O2  UNL     1      26.143   2.406  51.283  1.00  0.00    -0.345 OA
HETATM   24  C17 UNL     1      27.001   2.136  52.392  1.00  0.00     0.202 C 
HETATM   25  C18 UNL     1      26.689   0.854  53.084  1.00  0.00     0.202 C 
BRANCH  19  26
HETATM   26  O1  UNL     1      22.814  -0.449  52.975  1.00  0.00    -0.344 OA
BRANCH  26  27
HETATM   27  C11 UNL     1      22.087  -0.420  54.168  1.00  0.00     0.121 C 
HETATM   28  C12 UNL     1      20.741  -1.110  54.018  1.00  0.00     0.040 C 
HETATM   29  C13 UNL     1      22.842  -1.199  55.225  1.00  0.00     0.040 C 
ENDBRANCH  26  27
ENDBRANCH  19  26
ENDBRANCH  10  12
ENDBRANCH   5  10
TORSDOF 4
ENDMDL
MODEL 6
REMARK VINA RESULT:      -8.4      3.635      6.146
REMARK  4 active torsions:
REMARK  status: ('A' for Active; 'I' for Inactive)
REMARK    1  A    between atoms: C5_5  and  N1_6 
REMARK    2  A    between atoms: N1_6  and  C6_7 
REMARK    3  A    between atoms: C10_13  and  O1_14 
REMARK    4  A    between atoms: O1_14  and  C11_15 
ROOT
HETATM    1  C1  UNL     1      27.740   8.305  47.617  1.00  0.00     0.049 C 
HETATM    2  C2  UNL     1      27.301   7.018  48.192  1.00  0.00    -0.041 A 
HETATM    3  C3  UNL     1      28.123   5.885  48.195  1.00  0.00     0.010 A 
HETATM    4  C4  UNL     1      27.664   4.696  48.749  1.00  0.00     0.030 A 
HETATM    5  C5  UNL     1      26.414   4.650  49.283  1.00  0.00     0.035 A 
HETATM    6  C19 UNL     1      25.563   5.734  49.307  1.00  0.00     0.052 A 
HETATM    7  C20 UNL     1      26.047   6.902  48.751  1.00  0.00     0.052 A 
HETATM    8  C21 UNL     1      25.187   8.074  48.757  1.00  0.00     0.100 C 
HETATM    9  N4  UNL     1      24.513   9.013  48.779  1.00  0.00    -0.191 NA
ENDROOT
BRANCH   5  10
HETATM   10  N1  UNL     1      25.924   3.476  49.852  1.00  0.00    -0.340 N 
HETATM   11  H6  UNL     1      25.220   2.834  49.424  1.00  0.00     0.167 HD
BRANCH  10  12
HETATM   12  C6  UNL     1      26.081   2.713  51.033  1.00  0.00     0.144 A 
HETATM   13  N2  UNL     1      27.291   2.484  51.581  1.00  0.00    -0.223 NA
HETATM   14  C7  UNL     1      27.407   1.746  52.719  1.00  0.00     0.236 A 
HETATM   15  N3  UNL     1      26.324   1.219  53.338  1.00  0.00    -0.241 NA
HETATM   16  C8  UNL     1      25.084   1.403  52.851  1.00  0.00     0.077 A 
HETATM   17  C9  UNL     1      23.943   0.895  53.437  1.00  0.00     0.072 A 
HETATM   18  C16 UNL     1      24.987   2.153  51.697  1.00  0.00     0.075 A 
HETATM   19  C10 UNL     1      22.679   1.098  52.927  1.00  0.00     0.107 A 
HETATM   20  C14 UNL     1      22.549   1.846  51.771  1.00  0.00     0.136 A 
HETATM   21  C15 UNL     1      23.714   2.352  51.191  1.00  0.00     0.121 A 
HETATM   22  O3  UNL     1      21.317   2.080  51.219  1.00  0.00    -0.344 OA
HETATM   23  O2  UNL     1      23.521   3.090  50.041  1.00  0.00    -0.345 OA
HETATM   24  C17 UNL     1      22.418   2.841  49.168  1.00  0.00     0.202 C 
HETATM   25  C18 UNL     1      21.164   2.481  49.888  1.00  0.00     0.202 C 
BRANCH  19  26
HETATM   26  O1  UNL     1      21.540   0.599  53.499  1.00  0.00    -0.344 OA
BRANCH  26  27
HETATM   27  C11 UNL     1      20.957  -0.647  53.255  1.00  0.00     0.121 C 
HETATM   28  C12 UNL     1      21.172  -1.601  54.418  1.00  0.00     0.040 C 
HETATM   29  C13 UNL     1      19.457  -0.473  53.127  1.00  0.00     0.040 C 
ENDBRANCH  26  27
ENDBRANCH  19  26
ENDBRANCH  10  12
ENDBRANCH   5  10
TORSDOF 4
ENDMDL
MODEL 7
REMARK VINA RESULT:      -8.4      1.841      2.281
REMARK  4 active torsions:
REMARK  status: ('A' for Active; 'I' for Inactive)
REMARK    1  A    between atoms: C5_5  and  N1_6 
REMARK    2  A    between atoms: N1_6  and  C6_7 
REMARK    3  A    between atoms: C10_13  and  O1_14 
REMARK    4  A    between atoms: O1_14  and  C11_15 
ROOT
HETATM    1  C1  UNL     1      29.457   0.563  53.821  1.00  0.00     0.049 C 
HETATM    2  C2  UNL     1      28.013   0.618  53.517  1.00  0.00    -0.041 A 
HETATM    3  C3  UNL     1      27.295   1.819  53.531  1.00  0.00     0.010 A 
HETATM    4  C4  UNL     1      25.936   1.819  53.238  1.00  0.00     0.030 A 
HETATM    5  C5  UNL     1      25.321   0.644  52.940  1.00  0.00     0.035 A 
HETATM    6  C19 UNL     1      25.979  -0.567  52.911  1.00  0.00     0.052 A 
HETATM    7  C20 UNL     1      27.327  -0.536  53.206  1.00  0.00     0.052 A 
HETATM    8  C21 UNL     1      28.065  -1.788  53.184  1.00  0.00     0.100 C 
HETATM    9  N4  UNL     1      28.658  -2.780  53.148  1.00  0.00    -0.191 NA
ENDROOT
BRANCH   5  10
HETATM   10  N1  UNL     1      23.961   0.608  52.634  1.00  0.00    -0.340 N 
HETATM   11  H6  UNL     1      23.493   1.131  51.860  1.00  0.00     0.167 HD
BRANCH  10  12
HETATM   12  C6  UNL     1      22.775  -0.008  53.099  1.00  0.00     0.144 A 
HETATM   13  N2  UNL     1      22.781  -0.889  54.119  1.00  0.00    -0.223 NA
HETATM   14  C7  UNL     1      21.621  -1.463  54.543  1.00  0.00     0.236 A 
HETATM   15  N3  UNL     1      20.432  -1.175  53.963  1.00  0.00    -0.241 NA
HETATM   16  C8  UNL     1      20.347  -0.306  52.940  1.00  0.00     0.077 A 
HETATM   17  C9  UNL     1      19.165   0.029  52.311  1.00  0.00     0.072 A 
HETATM   18  C16 UNL     1      21.532   0.264  52.524  1.00  0.00     0.075 A 
HETATM   19  C10 UNL     1      19.096   0.925  51.266  1.00  0.00     0.107 A 
HETATM   20  C14 UNL     1      20.268   1.515  50.826  1.00  0.00     0.136 A 
HETATM   21  C15 UNL     1      21.454   1.163  51.474  1.00  0.00     0.121 A 
HETATM   22  O3  UNL     1      20.259   2.413  49.792  1.00  0.00    -0.344 OA
HETATM   23  O2  UNL     1      22.589   1.783  50.993  1.00  0.00    -0.345 OA
HETATM   24  C17 UNL     1      22.693   2.199  49.630  1.00  0.00     0.202 C 
HETATM   25  C18 UNL     1      21.416   2.730  49.074  1.00  0.00     0.202 C 
BRANCH  19  26
HETATM   26  O1  UNL     1      17.930   1.266  50.634  1.00  0.00    -0.344 OA
BRANCH  26  27
HETATM   27  C11 UNL     1      16.792   1.824  51.220  1.00  0.00     0.121 C 
HETATM   28  C12 UNL     1      17.015   3.278  51.600  1.00  0.00     0.040 C 
HETATM   29  C13 UNL     1      15.665   1.824  50.207  1.00  0.00     0.040 C 
ENDBRANCH  26  27
ENDBRANCH  19  26
ENDBRANCH  10  12
ENDBRANCH   5  10
TORSDOF 4
ENDMDL
MODEL 8
REMARK VINA RESULT:      -8.2      2.318      7.917
REMARK  4 active torsions:
REMARK  status: ('A' for Active; 'I' for Inactive)
REMARK    1  A    between atoms: C5_5  and  N1_6 
REMARK    2  A    between atoms: N1_6  and  C6_7 
REMARK    3  A    between atoms: C10_13  and  O1_14 
REMARK    4  A    between atoms: O1_14  and  C11_15 
ROOT
HETATM    1  C1  UNL     1      17.210   3.498  49.365  1.00  0.00     0.049 C 
HETATM    2  C2  UNL     1      18.414   3.095  50.119  1.00  0.00    -0.041 A 
HETATM    3  C3  UNL     1      18.400   2.926  51.509  1.00  0.00     0.010 A 
HETATM    4  C4  UNL     1      19.559   2.546  52.173  1.00  0.00     0.030 A 
HETATM    5  C5  UNL     1      20.698   2.341  51.460  1.00  0.00     0.035 A 
HETATM    6  C19 UNL     1      20.769   2.492  50.092  1.00  0.00     0.052 A 
HETATM    7  C20 UNL     1      19.601   2.870  49.458  1.00  0.00     0.052 A 
HETATM    8  C21 UNL     1      19.626   3.037  48.014  1.00  0.00     0.100 C 
HETATM    9  N4  UNL     1      19.637   3.152  46.864  1.00  0.00    -0.191 NA
ENDROOT
BRANCH   5  10
HETATM   10  N1  UNL     1      21.877   1.952  52.093  1.00  0.00    -0.340 N 
HETATM   11  H6  UNL     1      22.801   2.435  52.019  1.00  0.00     0.167 HD
BRANCH  10  12
HETATM   12  C6  UNL     1      22.340   0.937  52.964  1.00  0.00     0.144 A 
HETATM   13  N2  UNL     1      21.512   0.284  53.803  1.00  0.00    -0.223 NA
HETATM   14  C7  UNL     1      21.990  -0.688  54.628  1.00  0.00     0.236 A 
HETATM   15  N3  UNL     1      23.299  -1.033  54.636  1.00  0.00    -0.241 NA
HETATM   16  C8  UNL     1      24.186  -0.427  53.827  1.00  0.00     0.077 A 
HETATM   17  C9  UNL     1      25.530  -0.736  53.788  1.00  0.00     0.072 A 
HETATM   18  C16 UNL     1      23.684   0.557  53.000  1.00  0.00     0.075 A 
HETATM   19  C10 UNL     1      26.424  -0.107  52.948  1.00  0.00     0.107 A 
HETATM   20  C14 UNL     1      25.950   0.884  52.106  1.00  0.00     0.136 A 
HETATM   21  C15 UNL     1      24.587   1.184  52.160  1.00  0.00     0.121 A 
HETATM   22  O3  UNL     1      26.793   1.543  51.251  1.00  0.00    -0.344 OA
HETATM   23  O2  UNL     1      24.174   2.179  51.298  1.00  0.00    -0.345 OA
HETATM   24  C17 UNL     1      25.053   3.228  50.889  1.00  0.00     0.202 C 
HETATM   25  C18 UNL     1      26.458   2.776  50.681  1.00  0.00     0.202 C 
BRANCH  19  26
HETATM   26  O1  UNL     1      27.759  -0.404  52.901  1.00  0.00    -0.344 OA
BRANCH  26  27
HETATM   27  C11 UNL     1      28.682  -0.285  53.943  1.00  0.00     0.121 C 
HETATM   28  C12 UNL     1      29.957  -1.057  53.650  1.00  0.00     0.040 C 
HETATM   29  C13 UNL     1      29.092   1.167  54.075  1.00  0.00     0.040 C 
ENDBRANCH  26  27
ENDBRANCH  19  26
ENDBRANCH  10  12
ENDBRANCH   5  10
TORSDOF 4
ENDMDL
MODEL 9
REMARK VINA RESULT:      -8.0      2.576      8.390
REMARK  4 active torsions:
REMARK  status: ('A' for Active; 'I' for Inactive)
REMARK    1  A    between atoms: C5_5  and  N1_6 
REMARK    2  A    between atoms: N1_6  and  C6_7 
REMARK    3  A    between atoms: C10_13  and  O1_14 
REMARK    4  A    between atoms: O1_14  and  C11_15 
ROOT
HETATM    1  C1  UNL     1      17.052   1.921  49.721  1.00  0.00     0.049 C 
HETATM    2  C2  UNL     1      18.417   2.226  50.193  1.00  0.00    -0.041 A 
HETATM    3  C3  UNL     1      19.549   1.620  49.636  1.00  0.00     0.010 A 
HETATM    4  C4  UNL     1      20.814   1.941  50.115  1.00  0.00     0.030 A 
HETATM    5  C5  UNL     1      20.934   2.843  51.125  1.00  0.00     0.035 A 
HETATM    6  C19 UNL     1      19.854   3.469  51.710  1.00  0.00     0.052 A 
HETATM    7  C20 UNL     1      18.610   3.132  51.213  1.00  0.00     0.052 A 
HETATM    8  C21 UNL     1      17.442   3.770  51.796  1.00  0.00     0.100 C 
HETATM    9  N4  UNL     1      16.511   4.290  52.243  1.00  0.00    -0.191 NA
ENDROOT
BRANCH   5  10
HETATM   10  N1  UNL     1      22.187   3.192  51.625  1.00  0.00    -0.340 N 
HETATM   11  H6  UNL     1      22.397   3.483  52.607  1.00  0.00     0.167 HD
BRANCH  10  12
HETATM   12  C6  UNL     1      23.523   3.313  51.176  1.00  0.00     0.144 A 
HETATM   13  N2  UNL     1      23.908   4.293  50.334  1.00  0.00    -0.223 NA
HETATM   14  C7  UNL     1      25.203   4.381  49.921  1.00  0.00     0.236 A 
HETATM   15  N3  UNL     1      26.142   3.499  50.335  1.00  0.00    -0.241 NA
HETATM   16  C8  UNL     1      25.834   2.494  51.174  1.00  0.00     0.077 A 
HETATM   17  C9  UNL     1      26.747   1.566  51.633  1.00  0.00     0.072 A 
HETATM   18  C16 UNL     1      24.518   2.420  51.581  1.00  0.00     0.075 A 
HETATM   19  C10 UNL     1      26.415   0.545  52.496  1.00  0.00     0.107 A 
HETATM   20  C14 UNL     1      25.102   0.445  52.922  1.00  0.00     0.136 A 
HETATM   21  C15 UNL     1      24.192   1.391  52.448  1.00  0.00     0.121 A 
HETATM   22  O3  UNL     1      24.715  -0.550  53.781  1.00  0.00    -0.344 OA
HETATM   23  O2  UNL     1      22.899   1.241  52.907  1.00  0.00    -0.345 OA
HETATM   24  C17 UNL     1      22.376  -0.040  53.263  1.00  0.00     0.202 C 
HETATM   25  C18 UNL     1      23.375  -0.923  53.929  1.00  0.00     0.202 C 
BRANCH  19  26
HETATM   26  O1  UNL     1      27.311  -0.382  52.958  1.00  0.00    -0.344 OA
BRANCH  26  27
HETATM   27  C11 UNL     1      28.585  -0.131  53.474  1.00  0.00     0.121 C 
HETATM   28  C12 UNL     1      28.527   0.240  54.946  1.00  0.00     0.040 C 
HETATM   29  C13 UNL     1      29.408  -1.399  53.393  1.00  0.00     0.040 C 
ENDBRANCH  26  27
ENDBRANCH  19  26
ENDBRANCH  10  12
ENDBRANCH   5  10
TORSDOF 4
ENDMDL
