MODEL 1
REMARK VINA RESULT:      -7.5      0.000      0.000
REMARK  6 active torsions:
REMARK  status: ('A' for Active; 'I' for Inactive)
REMARK    1  A    between atoms: S1_2  and  C2_3 
REMARK    2  A    between atoms: C2_3  and  C3_4 
REMARK    3  A    between atoms: C5_6  and  C6_7 
REMARK    4  A    between atoms: C16_18  and  C17_19 
REMARK    5  A    between atoms: C17_19  and  S2_20 
REMARK    6  A    between atoms: C19_22  and  O1_23 
ROOT
HETATM    1  C3  UNL     1      23.965  -0.151  53.432  1.00  0.00    -0.014 A 
HETATM    2  C4  UNL     1      23.826   0.856  52.509  1.00  0.00     0.022 A 
HETATM    3  C5  UNL     1      24.904   1.695  52.391  1.00  0.00    -0.026 A 
HETATM    4  C15 UNL     1      26.059   1.543  53.148  1.00  0.00     0.022 A 
HETATM    5  C16 UNL     1      26.164   0.518  54.068  1.00  0.00    -0.014 A 
HETATM    6  C19 UNL     1      25.083  -0.348  54.206  1.00  0.00     0.079 A 
ENDROOT
BRANCH   3   7
HETATM    7  C6  UNL     1      24.972   2.816  51.482  1.00  0.00    -0.023 C 
HETATM    8  C7  UNL     1      23.815   3.371  51.205  1.00  0.00    -0.065 C 
HETATM    9  C8  UNL     1      22.594   3.599  52.073  1.00  0.00     0.061 C 
HETATM   10  C12 UNL     1      23.596   3.983  49.824  1.00  0.00     0.063 C 
HETATM   11  C9  UNL     1      22.547   5.135  52.032  1.00  0.00    -0.024 C 
HETATM   12  C10 UNL     1      23.480   5.839  51.322  1.00  0.00    -0.006 C 
HETATM   13  C11 UNL     1      24.315   5.335  50.142  1.00  0.00     0.104 C 
HETATM   14  N1  UNL     1      25.622   4.961  50.505  1.00  0.00    -0.406 N 
HETATM   15  C13 UNL     1      25.974   3.615  50.724  1.00  0.00     0.107 C 
HETATM   16  H14 UNL     1      26.356   5.606  50.246  1.00  0.00     0.154 HD
HETATM   17  C14 UNL     1      26.480   2.954  49.486  1.00  0.00     0.037 C 
ENDBRANCH   3   7
BRANCH   1  18
HETATM   18  C2  UNL     1      22.853  -1.112  53.634  1.00  0.00     0.114 C 
BRANCH  18  19
HETATM   19  S1  UNL     1      21.513  -0.179  54.440  1.00  0.00    -0.169 SA
HETATM   20  C1  UNL     1      20.033  -0.149  53.406  1.00  0.00     0.090 C 
ENDBRANCH  18  19
ENDBRANCH   1  18
BRANCH   5  21
HETATM   21  C17 UNL     1      27.351   0.257  54.934  1.00  0.00     0.114 C 
BRANCH  21  22
HETATM   22  S2  UNL     1      28.801   0.668  53.893  1.00  0.00    -0.169 SA
HETATM   23  C18 UNL     1      29.808  -0.815  53.626  1.00  0.00     0.090 C 
ENDBRANCH  21  22
ENDBRANCH   5  21
BRANCH   6  24
HETATM   24  O1  UNL     1      25.153  -1.396  55.126  1.00  0.00    -0.360 OA
HETATM   25  H25 UNL     1      25.291  -1.282  56.108  1.00  0.00     0.217 HD
ENDBRANCH   6  24
TORSDOF 6
ENDMDL
MODEL 2
REMARK VINA RESULT:      -7.4      2.875      5.172
REMARK  6 active torsions:
REMARK  status: ('A' for Active; 'I' for Inactive)
REMARK    1  A    between atoms: S1_2  and  C2_3 
REMARK    2  A    between atoms: C2_3  and  C3_4 
REMARK    3  A    between atoms: C5_6  and  C6_7 
REMARK    4  A    between atoms: C16_18  and  C17_19 
REMARK    5  A    between atoms: C17_19  and  S2_20 
REMARK    6  A    between atoms: C19_22  and  O1_23 
ROOT
HETATM    1  C3  UNL     1      24.881   2.451  50.998  1.00  0.00    -0.014 A 
HETATM    2  C4  UNL     1      23.782   1.744  51.419  1.00  0.00     0.022 A 
HETATM    3  C5  UNL     1      23.936   1.073  52.604  1.00  0.00    -0.026 A 
HETATM    4  C15 UNL     1      25.117   1.102  53.334  1.00  0.00     0.022 A 
HETATM    5  C16 UNL     1      26.203   1.825  52.881  1.00  0.00    -0.014 A 
HETATM    6  C19 UNL     1      26.073   2.515  51.680  1.00  0.00     0.079 A 
ENDROOT
BRANCH   3   7
HETATM    7  C6  UNL     1      22.909   0.271  53.229  1.00  0.00    -0.023 C 
HETATM    8  C7  UNL     1      21.743   0.862  53.343  1.00  0.00    -0.065 C 
HETATM    9  C8  UNL     1      21.027   1.826  52.419  1.00  0.00     0.061 C 
HETATM   10  C12 UNL     1      20.855   0.529  54.539  1.00  0.00     0.063 C 
HETATM   11  C9  UNL     1      19.781   0.983  52.101  1.00  0.00    -0.024 C 
HETATM   12  C10 UNL     1      19.628  -0.261  52.649  1.00  0.00    -0.006 C 
HETATM   13  C11 UNL     1      20.272  -0.790  53.933  1.00  0.00     0.104 C 
HETATM   14  N1  UNL     1      21.402  -1.596  53.696  1.00  0.00    -0.406 N 
HETATM   15  C13 UNL     1      22.711  -1.088  53.803  1.00  0.00     0.107 C 
HETATM   16  H14 UNL     1      21.268  -2.591  53.815  1.00  0.00     0.154 HD
HETATM   17  C14 UNL     1      23.276  -1.267  55.172  1.00  0.00     0.037 C 
ENDBRANCH   3   7
BRANCH   1  18
HETATM   18  C2  UNL     1      24.815   3.212  49.726  1.00  0.00     0.114 C 
BRANCH  18  19
HETATM   19  S1  UNL     1      23.489   4.443  49.938  1.00  0.00    -0.169 SA
HETATM   20  C1  UNL     1      23.812   5.502  51.363  1.00  0.00     0.090 C 
ENDBRANCH  18  19
ENDBRANCH   1  18
BRANCH   5  21
HETATM   21  C17 UNL     1      27.519   1.929  53.578  1.00  0.00     0.114 C 
BRANCH  21  22
HETATM   22  S2  UNL     1      27.731   0.328  54.441  1.00  0.00    -0.169 SA
HETATM   23  C18 UNL     1      29.297  -0.439  53.943  1.00  0.00     0.090 C 
ENDBRANCH  21  22
ENDBRANCH   5  21
BRANCH   6  24
HETATM   24  O1  UNL     1      27.150   3.256  51.190  1.00  0.00    -0.360 OA
HETATM   25  H25 UNL     1      27.727   3.854  51.743  1.00  0.00     0.217 HD
ENDBRANCH   6  24
TORSDOF 6
ENDMDL
MODEL 3
REMARK VINA RESULT:      -7.4      1.618      4.352
REMARK  6 active torsions:
REMARK  status: ('A' for Active; 'I' for Inactive)
REMARK    1  A    between atoms: S1_2  and  C2_3 
REMARK    2  A    between atoms: C2_3  and  C3_4 
REMARK    3  A    between atoms: C5_6  and  C6_7 
REMARK    4  A    between atoms: C16_18  and  C17_19 
REMARK    5  A    between atoms: C17_19  and  S2_20 
REMARK    6  A    between atoms: C19_22  and  O1_23 
ROOT
HETATM    1  C3  UNL     1      25.790   0.409  52.848  1.00  0.00    -0.014 A 
HETATM    2  C4  UNL     1      25.325   1.276  51.890  1.00  0.00     0.022 A 
HETATM    3  C5  UNL     1      23.961   1.383  51.811  1.00  0.00    -0.026 A 
HETATM    4  C15 UNL     1      23.103   0.670  52.639  1.00  0.00     0.022 A 
HETATM    5  C16 UNL     1      23.606  -0.194  53.592  1.00  0.00    -0.014 A 
HETATM    6  C19 UNL     1      24.988  -0.321  53.693  1.00  0.00     0.079 A 
ENDROOT
BRANCH   3   7
HETATM    7  C6  UNL     1      23.260   2.236  50.879  1.00  0.00    -0.023 C 
HETATM    8  C7  UNL     1      22.797   3.351  51.395  1.00  0.00    -0.065 C 
HETATM    9  C8  UNL     1      23.372   4.263  52.459  1.00  0.00     0.061 C 
HETATM   10  C12 UNL     1      21.503   3.943  50.843  1.00  0.00     0.063 C 
HETATM   11  C9  UNL     1      23.536   5.543  51.623  1.00  0.00    -0.024 C 
HETATM   12  C10 UNL     1      23.174   5.560  50.304  1.00  0.00    -0.006 C 
HETATM   13  C11 UNL     1      22.168   4.639  49.611  1.00  0.00     0.104 C 
HETATM   14  N1  UNL     1      22.776   3.587  48.900  1.00  0.00    -0.406 N 
HETATM   15  C13 UNL     1      22.882   2.291  49.441  1.00  0.00     0.107 C 
HETATM   16  H14 UNL     1      22.791   3.683  47.893  1.00  0.00     0.154 HD
HETATM   17  C14 UNL     1      21.720   1.429  49.075  1.00  0.00     0.037 C 
ENDBRANCH   3   7
BRANCH   1  18
HETATM   18  C2  UNL     1      27.253   0.222  53.013  1.00  0.00     0.114 C 
BRANCH  18  19
HETATM   19  S1  UNL     1      27.951   1.882  53.279  1.00  0.00    -0.169 SA
HETATM   20  C1  UNL     1      29.371   1.816  54.391  1.00  0.00     0.090 C 
ENDBRANCH  18  19
ENDBRANCH   1  18
BRANCH   5  21
HETATM   21  C17 UNL     1      22.784  -1.010  54.534  1.00  0.00     0.114 C 
BRANCH  21  22
HETATM   22  S2  UNL     1      21.184  -0.128  54.659  1.00  0.00    -0.169 SA
HETATM   23  C18 UNL     1      19.940  -0.957  53.635  1.00  0.00     0.090 C 
ENDBRANCH  21  22
ENDBRANCH   5  21
BRANCH   6  24
HETATM   24  O1  UNL     1      25.534  -1.185  54.645  1.00  0.00    -0.360 OA
HETATM   25  H25 UNL     1      26.437  -1.079  55.056  1.00  0.00     0.217 HD
ENDBRANCH   6  24
TORSDOF 6
ENDMDL
MODEL 4
REMARK VINA RESULT:      -7.3      2.931      6.436
REMARK  6 active torsions:
REMARK  status: ('A' for Active; 'I' for Inactive)
REMARK    1  A    between atoms: S1_2  and  C2_3 
REMARK    2  A    between atoms: C2_3  and  C3_4 
REMARK    3  A    between atoms: C5_6  and  C6_7 
REMARK    4  A    between atoms: C16_18  and  C17_19 
REMARK    5  A    between atoms: C17_19  and  S2_20 
REMARK    6  A    between atoms: C19_22  and  O1_23 
ROOT
HETATM    1  C3  UNL     1      25.162   2.688  50.532  1.00  0.00    -0.014 A 
HETATM    2  C4  UNL     1      26.386   2.314  51.029  1.00  0.00     0.022 A 
HETATM    3  C5  UNL     1      26.347   1.543  52.161  1.00  0.00    -0.026 A 
HETATM    4  C15 UNL     1      25.158   1.161  52.769  1.00  0.00     0.022 A 
HETATM    5  C16 UNL     1      23.944   1.556  52.241  1.00  0.00    -0.014 A 
HETATM    6  C19 UNL     1      23.956   2.340  51.091  1.00  0.00     0.079 A 
ENDROOT
BRANCH   3   7
HETATM    7  C6  UNL     1      27.514   1.039  52.848  1.00  0.00    -0.023 C 
HETATM    8  C7  UNL     1      27.367  -0.152  53.380  1.00  0.00    -0.065 C 
HETATM    9  C8  UNL     1      26.601  -1.365  52.895  1.00  0.00     0.061 C 
HETATM   10  C12 UNL     1      28.116  -0.488  54.668  1.00  0.00     0.063 C 
HETATM   11  C9  UNL     1      27.772  -2.350  52.740  1.00  0.00    -0.024 C 
HETATM   12  C10 UNL     1      29.049  -1.961  53.037  1.00  0.00    -0.006 C 
HETATM   13  C11 UNL     1      29.474  -0.825  53.971  1.00  0.00     0.104 C 
HETATM   14  N1  UNL     1      29.820   0.356  53.287  1.00  0.00    -0.406 N 
HETATM   15  C13 UNL     1      28.917   1.429  53.157  1.00  0.00     0.107 C 
HETATM   16  H14 UNL     1      30.809   0.558  53.226  1.00  0.00     0.154 HD
HETATM   17  C14 UNL     1      29.053   2.419  54.265  1.00  0.00     0.037 C 
ENDBRANCH   3   7
BRANCH   1  18
HETATM   18  C2  UNL     1      25.098   3.525  49.309  1.00  0.00     0.114 C 
BRANCH  18  19
HETATM   19  S1  UNL     1      25.569   5.209  49.818  1.00  0.00    -0.169 SA
HETATM   20  C1  UNL     1      26.784   5.911  48.682  1.00  0.00     0.090 C 
ENDBRANCH  18  19
ENDBRANCH   1  18
BRANCH   5  21
HETATM   21  C17 UNL     1      22.606   1.208  52.805  1.00  0.00     0.114 C 
BRANCH  21  22
HETATM   22  S2  UNL     1      22.748  -0.541  53.327  1.00  0.00    -0.169 SA
HETATM   23  C18 UNL     1      21.791  -0.813  54.842  1.00  0.00     0.090 C 
ENDBRANCH  21  22
ENDBRANCH   5  21
BRANCH   6  24
HETATM   24  O1  UNL     1      22.748   2.758  50.529  1.00  0.00    -0.360 OA
HETATM   25  H25 UNL     1      21.937   2.184  50.432  1.00  0.00     0.217 HD
ENDBRANCH   6  24
TORSDOF 6
ENDMDL
MODEL 5
REMARK VINA RESULT:      -7.3      0.401      4.005
REMARK  6 active torsions:
REMARK  status: ('A' for Active; 'I' for Inactive)
REMARK    1  A    between atoms: S1_2  and  C2_3 
REMARK    2  A    between atoms: C2_3  and  C3_4 
REMARK    3  A    between atoms: C5_6  and  C6_7 
REMARK    4  A    between atoms: C16_18  and  C17_19 
REMARK    5  A    between atoms: C17_19  and  S2_20 
REMARK    6  A    between atoms: C19_22  and  O1_23 
ROOT
HETATM    1  C3  UNL     1      26.369   0.535  54.096  1.00  0.00    -0.014 A 
HETATM    2  C4  UNL     1      26.486   1.607  53.246  1.00  0.00     0.022 A 
HETATM    3  C5  UNL     1      25.398   1.841  52.446  1.00  0.00    -0.026 A 
HETATM    4  C15 UNL     1      24.254   1.054  52.486  1.00  0.00     0.022 A 
HETATM    5  C16 UNL     1      24.171  -0.017  53.355  1.00  0.00    -0.014 A 
HETATM    6  C19 UNL     1      25.263  -0.276  54.179  1.00  0.00     0.079 A 
ENDROOT
BRANCH   3   7
HETATM    7  C6  UNL     1      25.307   2.914  51.483  1.00  0.00    -0.023 C 
HETATM    8  C7  UNL     1      24.099   3.397  51.311  1.00  0.00    -0.065 C 
HETATM    9  C8  UNL     1      22.970   3.613  52.298  1.00  0.00     0.061 C 
HETATM   10  C12 UNL     1      23.698   3.924  49.936  1.00  0.00     0.063 C 
HETATM   11  C9  UNL     1      22.837   5.141  52.189  1.00  0.00    -0.024 C 
HETATM   12  C10 UNL     1      23.648   5.849  51.346  1.00  0.00    -0.006 C 
HETATM   13  C11 UNL     1      24.374   5.324  50.105  1.00  0.00     0.104 C 
HETATM   14  N1  UNL     1      25.731   5.032  50.338  1.00  0.00    -0.406 N 
HETATM   15  C13 UNL     1      26.176   3.718  50.580  1.00  0.00     0.107 C 
HETATM   16  H14 UNL     1      26.397   5.697  49.967  1.00  0.00     0.154 HD
HETATM   17  C14 UNL     1      26.578   3.017  49.326  1.00  0.00     0.037 C 
ENDBRANCH   3   7
BRANCH   1  18
HETATM   18  C2  UNL     1      27.494   0.200  55.004  1.00  0.00     0.114 C 
BRANCH  18  19
HETATM   19  S1  UNL     1      29.019   0.622  54.103  1.00  0.00    -0.169 SA
HETATM   20  C1  UNL     1      29.894  -0.867  53.580  1.00  0.00     0.090 C 
ENDBRANCH  18  19
ENDBRANCH   1  18
BRANCH   5  21
HETATM   21  C17 UNL     1      22.997  -0.930  53.486  1.00  0.00     0.114 C 
BRANCH  21  22
HETATM   22  S2  UNL     1      21.576   0.168  53.843  1.00  0.00    -0.169 SA
HETATM   23  C18 UNL     1      20.499   0.275  52.389  1.00  0.00     0.090 C 
ENDBRANCH  21  22
ENDBRANCH   5  21
BRANCH   6  24
HETATM   24  O1  UNL     1      25.215  -1.350  55.069  1.00  0.00    -0.360 OA
HETATM   25  H25 UNL     1      25.028  -1.270  56.047  1.00  0.00     0.217 HD
ENDBRANCH   6  24
TORSDOF 6
ENDMDL
MODEL 6
REMARK VINA RESULT:      -7.3      2.770      5.456
REMARK  6 active torsions:
REMARK  status: ('A' for Active; 'I' for Inactive)
REMARK    1  A    between atoms: S1_2  and  C2_3 
REMARK    2  A    between atoms: C2_3  and  C3_4 
REMARK    3  A    between atoms: C5_6  and  C6_7 
REMARK    4  A    between atoms: C16_18  and  C17_19 
REMARK    5  A    between atoms: C17_19  and  S2_20 
REMARK    6  A    between atoms: C19_22  and  O1_23 
ROOT
HETATM    1  C3  UNL     1      25.791   2.119  53.133  1.00  0.00    -0.014 A 
HETATM    2  C4  UNL     1      24.441   1.889  53.232  1.00  0.00     0.022 A 
HETATM    3  C5  UNL     1      23.725   2.100  52.082  1.00  0.00    -0.026 A 
HETATM    4  C15 UNL     1      24.316   2.516  50.896  1.00  0.00     0.022 A 
HETATM    5  C16 UNL     1      25.679   2.737  50.832  1.00  0.00    -0.014 A 
HETATM    6  C19 UNL     1      26.428   2.531  51.986  1.00  0.00     0.079 A 
ENDROOT
BRANCH   3   7
HETATM    7  C6  UNL     1      22.297   1.917  51.963  1.00  0.00    -0.023 C 
HETATM    8  C7  UNL     1      21.898   0.667  52.003  1.00  0.00    -0.065 C 
HETATM    9  C8  UNL     1      22.413  -0.511  52.804  1.00  0.00     0.061 C 
HETATM   10  C12 UNL     1      20.669   0.254  51.197  1.00  0.00     0.063 C 
HETATM   11  C9  UNL     1      21.153  -0.817  53.630  1.00  0.00    -0.024 C 
HETATM   12  C10 UNL     1      20.021  -0.065  53.473  1.00  0.00    -0.006 C 
HETATM   13  C11 UNL     1      19.623   0.757  52.244  1.00  0.00     0.104 C 
HETATM   14  N1  UNL     1      19.899   2.131  52.383  1.00  0.00    -0.406 N 
HETATM   15  C13 UNL     1      21.050   2.716  51.821  1.00  0.00     0.107 C 
HETATM   16  H14 UNL     1      19.100   2.727  52.557  1.00  0.00     0.154 HD
HETATM   17  C14 UNL     1      20.804   3.238  50.445  1.00  0.00     0.037 C 
ENDBRANCH   3   7
BRANCH   1  18
HETATM   18  C2  UNL     1      26.653   1.919  54.323  1.00  0.00     0.114 C 
BRANCH  18  19
HETATM   19  S1  UNL     1      27.068   0.146  54.359  1.00  0.00    -0.169 SA
HETATM   20  C1  UNL     1      28.856  -0.101  54.308  1.00  0.00     0.090 C 
ENDBRANCH  18  19
ENDBRANCH   1  18
BRANCH   5  21
HETATM   21  C17 UNL     1      26.422   3.184  49.617  1.00  0.00     0.114 C 
BRANCH  21  22
HETATM   22  S2  UNL     1      25.945   4.936  49.381  1.00  0.00    -0.169 SA
HETATM   23  C18 UNL     1      27.281   5.833  48.549  1.00  0.00     0.090 C 
ENDBRANCH  21  22
ENDBRANCH   5  21
BRANCH   6  24
HETATM   24  O1  UNL     1      27.808   2.745  51.960  1.00  0.00    -0.360 OA
HETATM   25  H25 UNL     1      28.316   3.258  52.649  1.00  0.00     0.217 HD
ENDBRANCH   6  24
TORSDOF 6
ENDMDL
MODEL 7
REMARK VINA RESULT:      -7.3      2.837      5.986
REMARK  6 active torsions:
REMARK  status: ('A' for Active; 'I' for Inactive)
REMARK    1  A    between atoms: S1_2  and  C2_3 
REMARK    2  A    between atoms: C2_3  and  C3_4 
REMARK    3  A    between atoms: C5_6  and  C6_7 
REMARK    4  A    between atoms: C16_18  and  C17_19 
REMARK    5  A    between atoms: C17_19  and  S2_20 
REMARK    6  A    between atoms: C19_22  and  O1_23 
ROOT
HETATM    1  C3  UNL     1      26.327   1.778  52.874  1.00  0.00    -0.014 A 
HETATM    2  C4  UNL     1      25.378   1.014  53.509  1.00  0.00     0.022 A 
HETATM    3  C5  UNL     1      24.154   0.970  52.895  1.00  0.00    -0.026 A 
HETATM    4  C15 UNL     1      23.884   1.647  51.712  1.00  0.00     0.022 A 
HETATM    5  C16 UNL     1      24.862   2.406  51.100  1.00  0.00    -0.014 A 
HETATM    6  C19 UNL     1      26.114   2.468  51.704  1.00  0.00     0.079 A 
ENDROOT
BRANCH   3   7
HETATM    7  C6  UNL     1      23.017   0.228  53.388  1.00  0.00    -0.023 C 
HETATM    8  C7  UNL     1      21.894   0.905  53.427  1.00  0.00    -0.065 C 
HETATM    9  C8  UNL     1      21.340   1.959  52.490  1.00  0.00     0.061 C 
HETATM   10  C12 UNL     1      20.877   0.595  54.523  1.00  0.00     0.063 C 
HETATM   11  C9  UNL     1      20.069   1.231  52.024  1.00  0.00    -0.024 C 
HETATM   12  C10 UNL     1      19.772  -0.017  52.498  1.00  0.00    -0.006 C 
HETATM   13  C11 UNL     1      20.254  -0.647  53.807  1.00  0.00     0.104 C 
HETATM   14  N1  UNL     1      21.337  -1.530  53.632  1.00  0.00    -0.406 N 
HETATM   15  C13 UNL     1      22.665  -1.133  53.878  1.00  0.00     0.107 C 
HETATM   16  H14 UNL     1      21.118  -2.516  53.692  1.00  0.00     0.154 HD
HETATM   17  C14 UNL     1      23.088  -1.411  55.282  1.00  0.00     0.037 C 
ENDBRANCH   3   7
BRANCH   1  18
HETATM   18  C2  UNL     1      27.685   1.890  53.461  1.00  0.00     0.114 C 
BRANCH  18  19
HETATM   19  S1  UNL     1      27.953   0.363  54.417  1.00  0.00    -0.169 SA
HETATM   20  C1  UNL     1      29.474  -0.462  53.905  1.00  0.00     0.090 C 
ENDBRANCH  18  19
ENDBRANCH   1  18
BRANCH   5  21
HETATM   21  C17 UNL     1      24.688   3.174  49.832  1.00  0.00     0.114 C 
BRANCH  21  22
HETATM   22  S2  UNL     1      23.282   4.304  50.146  1.00  0.00    -0.169 SA
HETATM   23  C18 UNL     1      23.667   5.395  51.541  1.00  0.00     0.090 C 
ENDBRANCH  21  22
ENDBRANCH   5  21
BRANCH   6  24
HETATM   24  O1  UNL     1      27.128   3.225  51.115  1.00  0.00    -0.360 OA
HETATM   25  H25 UNL     1      27.256   3.337  50.131  1.00  0.00     0.217 HD
ENDBRANCH   6  24
TORSDOF 6
ENDMDL
MODEL 8
REMARK VINA RESULT:      -7.2      2.769      5.249
REMARK  6 active torsions:
REMARK  status: ('A' for Active; 'I' for Inactive)
REMARK    1  A    between atoms: S1_2  and  C2_3 
REMARK    2  A    between atoms: C2_3  and  C3_4 
REMARK    3  A    between atoms: C5_6  and  C6_7 
REMARK    4  A    between atoms: C16_18  and  C17_19 
REMARK    5  A    between atoms: C17_19  and  S2_20 
REMARK    6  A    between atoms: C19_22  and  O1_23 
ROOT
HETATM    1  C3  UNL     1      25.761   2.789  50.807  1.00  0.00    -0.014 A 
HETATM    2  C4  UNL     1      24.404   2.620  50.691  1.00  0.00     0.022 A 
HETATM    3  C5  UNL     1      23.767   2.200  51.829  1.00  0.00    -0.026 A 
HETATM    4  C15 UNL     1      24.439   1.960  53.021  1.00  0.00     0.022 A 
HETATM    5  C16 UNL     1      25.807   2.141  53.102  1.00  0.00    -0.014 A 
HETATM    6  C19 UNL     1      26.477   2.567  51.959  1.00  0.00     0.079 A 
ENDROOT
BRANCH   3   7
HETATM    7  C6  UNL     1      22.345   1.961  51.930  1.00  0.00    -0.023 C 
HETATM    8  C7  UNL     1      22.007   0.699  52.046  1.00  0.00    -0.065 C 
HETATM    9  C8  UNL     1      22.683  -0.445  52.774  1.00  0.00     0.061 C 
HETATM   10  C12 UNL     1      20.687   0.225  51.441  1.00  0.00     0.063 C 
HETATM   11  C9  UNL     1      21.576  -0.782  53.786  1.00  0.00    -0.024 C 
HETATM   12  C10 UNL     1      20.405  -0.077  53.793  1.00  0.00    -0.006 C 
HETATM   13  C11 UNL     1      19.793   0.708  52.629  1.00  0.00     0.104 C 
HETATM   14  N1  UNL     1      20.031   2.093  52.708  1.00  0.00    -0.406 N 
HETATM   15  C13 UNL     1      21.060   2.711  51.970  1.00  0.00     0.107 C 
HETATM   16  H14 UNL     1      19.246   2.662  52.994  1.00  0.00     0.154 HD
HETATM   17  C14 UNL     1      20.588   3.198  50.641  1.00  0.00     0.037 C 
ENDBRANCH   3   7
BRANCH   1  18
HETATM   18  C2  UNL     1      26.542   3.242  49.630  1.00  0.00     0.114 C 
BRANCH  18  19
HETATM   19  S1  UNL     1      25.983   4.937  49.269  1.00  0.00    -0.169 SA
HETATM   20  C1  UNL     1      27.310   5.913  48.531  1.00  0.00     0.090 C 
ENDBRANCH  18  19
ENDBRANCH   1  18
BRANCH   5  21
HETATM   21  C17 UNL     1      26.634   1.916  54.324  1.00  0.00     0.114 C 
BRANCH  21  22
HETATM   22  S2  UNL     1      26.952   0.113  54.361  1.00  0.00    -0.169 SA
HETATM   23  C18 UNL     1      28.736  -0.200  54.292  1.00  0.00     0.090 C 
ENDBRANCH  21  22
ENDBRANCH   5  21
BRANCH   6  24
HETATM   24  O1  UNL     1      27.859   2.761  52.003  1.00  0.00    -0.360 OA
HETATM   25  H25 UNL     1      28.323   3.609  51.751  1.00  0.00     0.217 HD
ENDBRANCH   6  24
TORSDOF 6
ENDMDL
MODEL 9
REMARK VINA RESULT:      -7.1      3.177      6.438
REMARK  6 active torsions:
REMARK  status: ('A' for Active; 'I' for Inactive)
REMARK    1  A    between atoms: S1_2  and  C2_3 
REMARK    2  A    between atoms: C2_3  and  C3_4 
REMARK    3  A    between atoms: C5_6  and  C6_7 
REMARK    4  A    between atoms: C16_18  and  C17_19 
REMARK    5  A    between atoms: C17_19  and  S2_20 
REMARK    6  A    between atoms: C19_22  and  O1_23 
ROOT
HETATM    1  C3  UNL     1      23.258   3.720  52.313  1.00  0.00    -0.014 A 
HETATM    2  C4  UNL     1      24.303   3.171  53.015  1.00  0.00     0.022 A 
HETATM    3  C5  UNL     1      24.425   1.810  52.916  1.00  0.00    -0.026 A 
HETATM    4  C15 UNL     1      23.556   1.032  52.160  1.00  0.00     0.022 A 
HETATM    5  C16 UNL     1      22.515   1.618  51.467  1.00  0.00    -0.014 A 
HETATM    6  C19 UNL     1      22.370   2.999  51.551  1.00  0.00     0.079 A 
ENDROOT
BRANCH   3   7
HETATM    7  C6  UNL     1      25.451   1.031  53.569  1.00  0.00    -0.023 C 
HETATM    8  C7  UNL     1      26.616   1.040  52.965  1.00  0.00    -0.065 C 
HETATM    9  C8  UNL     1      27.332   2.143  52.213  1.00  0.00     0.061 C 
HETATM   10  C12 UNL     1      27.502  -0.201  53.042  1.00  0.00     0.063 C 
HETATM   11  C9  UNL     1      28.580   2.277  53.101  1.00  0.00    -0.024 C 
HETATM   12  C10 UNL     1      28.734   1.482  54.204  1.00  0.00    -0.006 C 
HETATM   13  C11 UNL     1      28.088   0.118  54.456  1.00  0.00     0.104 C 
HETATM   14  N1  UNL     1      26.960   0.184  55.296  1.00  0.00    -0.406 N 
HETATM   15  C13 UNL     1      25.650   0.187  54.779  1.00  0.00     0.107 C 
HETATM   16  H14 UNL     1      27.095  -0.139  56.244  1.00  0.00     0.154 HD
HETATM   17  C14 UNL     1      25.083  -1.189  54.671  1.00  0.00     0.037 C 
ENDBRANCH   3   7
BRANCH   1  18
HETATM   18  C2  UNL     1      23.042   5.187  52.356  1.00  0.00     0.114 C 
BRANCH  18  19
HETATM   19  S1  UNL     1      24.056   5.890  51.017  1.00  0.00    -0.169 SA
HETATM   20  C1  UNL     1      23.778   7.666  50.859  1.00  0.00     0.090 C 
ENDBRANCH  18  19
ENDBRANCH   1  18
BRANCH   5  21
HETATM   21  C17 UNL     1      21.522   0.886  50.625  1.00  0.00     0.114 C 
BRANCH  21  22
HETATM   22  S2  UNL     1      20.206   0.362  51.785  1.00  0.00    -0.169 SA
HETATM   23  C18 UNL     1      18.628   1.115  51.308  1.00  0.00     0.090 C 
ENDBRANCH  21  22
ENDBRANCH   5  21
BRANCH   6  24
HETATM   24  O1  UNL     1      21.329   3.627  50.863  1.00  0.00    -0.360 OA
HETATM   25  H25 UNL     1      20.506   3.167  50.534  1.00  0.00     0.217 HD
ENDBRANCH   6  24
TORSDOF 6
ENDMDL
