MODEL 1
REMARK VINA RESULT:      -8.0      0.000      0.000
REMARK  6 active torsions:
REMARK  status: ('A' for Active; 'I' for Inactive)
REMARK    1  A    between atoms: C2_2  and  O1_3 
REMARK    2  A    between atoms: O1_3  and  C3_4 
REMARK    3  A    between atoms: C17_23  and  C18_24 
REMARK    4  A    between atoms: C18_24  and  N4_25 
REMARK    5  A    between atoms: N4_25  and  C19_26 
REMARK    6  A    between atoms: C19_26  and  C20_27 
ROOT
HETATM    1  C3  UNL     1      26.579   1.618  52.184  1.00  0.00     0.068 C 
HETATM    2  C4  UNL     1      26.753   2.508  51.247  1.00  0.00     0.122 C 
HETATM    3  N1  UNL     1      26.087   3.212  50.229  1.00  0.00    -0.348 N 
HETATM    4  C5  UNL     1      24.672   3.443  50.237  1.00  0.00     0.128 C 
HETATM    5  N2  UNL     1      24.488   4.318  51.213  1.00  0.00    -0.242 NA
HETATM    6  C6  UNL     1      23.251   4.283  52.024  1.00  0.00     0.136 C 
HETATM    7  C7  UNL     1      22.310   3.333  52.257  1.00  0.00     0.116 C 
HETATM    8  N3  UNL     1      22.445   2.169  51.453  1.00  0.00    -0.331 N 
HETATM    9  C8  UNL     1      22.730   2.001  50.026  1.00  0.00     0.100 C 
HETATM   10  C9  UNL     1      23.571   2.861  49.395  1.00  0.00     0.068 C 
HETATM   11  C10 UNL     1      22.226   1.009  52.289  1.00  0.00     0.046 A 
HETATM   12  C11 UNL     1      20.855   1.083  52.342  1.00  0.00     0.057 A 
HETATM   13  C12 UNL     1      20.343  -0.047  53.016  1.00  0.00     0.074 A 
HETATM   14 CL1  UNL     1      18.636  -0.266  53.271  1.00  0.00    -0.081 Cl
HETATM   15  C13 UNL     1      21.134  -1.045  53.523  1.00  0.00     0.138 A 
HETATM   16  F1  UNL     1      20.770  -2.152  54.171  1.00  0.00    -0.204 F 
HETATM   17  C14 UNL     1      22.506  -0.997  53.406  1.00  0.00     0.054 A 
HETATM   18  C15 UNL     1      23.157   0.069  52.763  1.00  0.00    -0.022 A 
HETATM   19  C16 UNL     1      24.417   0.756  52.409  1.00  0.00     0.089 C 
HETATM   20  C17 UNL     1      25.685   0.690  52.919  1.00  0.00     0.033 C 
HETATM   21  H7  UNL     1      26.006   3.733  49.360  1.00  0.00     0.167 HD
ENDROOT
BRANCH  20  22
HETATM   22  C18 UNL     1      26.605   0.018  53.974  1.00  0.00     0.282 C 
BRANCH  22  23
HETATM   23  N4  UNL     1      26.479  -1.378  53.762  1.00  0.00     0.090 N 
HETATM   24  H17 UNL     1      26.475  -1.990  54.579  1.00  0.00     0.316 HD
BRANCH  23  25
HETATM   25  C19 UNL     1      27.342  -1.920  52.765  1.00  0.00     0.338 C 
BRANCH  25  26
HETATM   26  C20 UNL     1      28.759  -1.700  53.204  1.00  0.00     0.261 C 
HETATM   27  O2  UNL     1      29.877  -1.231  53.347  1.00  0.00    -0.305 OA
ENDBRANCH  25  26
ENDBRANCH  23  25
ENDBRANCH  22  23
ENDBRANCH  20  22
BRANCH   1  28
HETATM   28  O1  UNL     1      27.938   1.653  52.608  1.00  0.00    -0.354 OA
BRANCH  28  29
HETATM   29  C2  UNL     1      28.430   2.642  53.472  1.00  0.00     0.171 C 
HETATM   30  C1  UNL     1      29.474   2.108  54.427  1.00  0.00     0.034 C 
ENDBRANCH  28  29
ENDBRANCH   1  28
TORSDOF 6
ENDMDL
MODEL 2
REMARK VINA RESULT:      -8.0      3.831      6.754
REMARK  6 active torsions:
REMARK  status: ('A' for Active; 'I' for Inactive)
REMARK    1  A    between atoms: C2_2  and  O1_3 
REMARK    2  A    between atoms: O1_3  and  C3_4 
REMARK    3  A    between atoms: C17_23  and  C18_24 
REMARK    4  A    between atoms: C18_24  and  N4_25 
REMARK    5  A    between atoms: N4_25  and  C19_26 
REMARK    6  A    between atoms: C19_26  and  C20_27 
ROOT
HETATM    1  C3  UNL     1      22.722   0.233  53.551  1.00  0.00     0.068 C 
HETATM    2  C4  UNL     1      23.437  -0.701  54.113  1.00  0.00     0.122 C 
HETATM    3  N1  UNL     1      24.714  -1.290  54.116  1.00  0.00    -0.348 N 
HETATM    4  C5  UNL     1      25.891  -0.599  53.678  1.00  0.00     0.128 C 
HETATM    5  N2  UNL     1      26.108   0.309  54.617  1.00  0.00    -0.242 NA
HETATM    6  C6  UNL     1      26.693   1.621  54.265  1.00  0.00     0.136 C 
HETATM    7  C7  UNL     1      26.799   2.319  53.106  1.00  0.00     0.116 C 
HETATM    8  N3  UNL     1      26.398   1.596  51.951  1.00  0.00    -0.331 N 
HETATM    9  C8  UNL     1      26.661   0.219  51.526  1.00  0.00     0.100 C 
HETATM   10  C9  UNL     1      26.740  -0.773  52.450  1.00  0.00     0.068 C 
HETATM   11  C10 UNL     1      25.612   2.474  51.112  1.00  0.00     0.046 A 
HETATM   12  C11 UNL     1      26.656   3.188  50.573  1.00  0.00     0.057 A 
HETATM   13  C12 UNL     1      26.171   4.067  49.582  1.00  0.00     0.074 A 
HETATM   14 CL1  UNL     1      27.230   5.132  48.704  1.00  0.00    -0.081 Cl
HETATM   15  C13 UNL     1      24.847   4.160  49.239  1.00  0.00     0.138 A 
HETATM   16  F1  UNL     1      24.273   4.944  48.325  1.00  0.00    -0.204 F 
HETATM   17  C14 UNL     1      23.893   3.386  49.861  1.00  0.00     0.054 A 
HETATM   18  C15 UNL     1      24.228   2.467  50.871  1.00  0.00    -0.022 A 
HETATM   19  C16 UNL     1      23.791   1.518  51.915  1.00  0.00     0.089 C 
HETATM   20  C17 UNL     1      22.605   1.345  52.576  1.00  0.00     0.033 C 
HETATM   21  H7  UNL     1      25.396  -2.027  54.270  1.00  0.00     0.167 HD
ENDROOT
BRANCH  20  22
HETATM   22  C18 UNL     1      21.141   1.839  52.724  1.00  0.00     0.282 C 
BRANCH  22  23
HETATM   23  N4  UNL     1      20.420   1.232  51.665  1.00  0.00     0.090 N 
HETATM   24  H17 UNL     1      20.642   0.264  51.425  1.00  0.00     0.316 HD
BRANCH  23  25
HETATM   25  C19 UNL     1      20.323   2.008  50.474  1.00  0.00     0.338 C 
BRANCH  25  26
HETATM   26  C20 UNL     1      20.896   1.206  49.345  1.00  0.00     0.261 C 
HETATM   27  O2  UNL     1      21.578   0.844  48.399  1.00  0.00    -0.305 OA
ENDBRANCH  25  26
ENDBRANCH  23  25
ENDBRANCH  22  23
ENDBRANCH  20  22
BRANCH   1  28
HETATM   28  O1  UNL     1      21.556  -0.063  54.313  1.00  0.00    -0.354 OA
BRANCH  28  29
HETATM   29  C2  UNL     1      21.068  -1.369  54.463  1.00  0.00     0.171 C 
HETATM   30  C1  UNL     1      19.722  -1.563  53.802  1.00  0.00     0.034 C 
ENDBRANCH  28  29
ENDBRANCH   1  28
TORSDOF 6
ENDMDL
MODEL 3
REMARK VINA RESULT:      -7.8      3.519      5.368
REMARK  6 active torsions:
REMARK  status: ('A' for Active; 'I' for Inactive)
REMARK    1  A    between atoms: C2_2  and  O1_3 
REMARK    2  A    between atoms: O1_3  and  C3_4 
REMARK    3  A    between atoms: C17_23  and  C18_24 
REMARK    4  A    between atoms: C18_24  and  N4_25 
REMARK    5  A    between atoms: N4_25  and  C19_26 
REMARK    6  A    between atoms: C19_26  and  C20_27 
ROOT
HETATM    1  C3  UNL     1      24.825   1.251  52.787  1.00  0.00     0.068 C 
HETATM    2  C4  UNL     1      23.728   0.744  53.273  1.00  0.00     0.122 C 
HETATM    3  N1  UNL     1      22.328   0.880  53.266  1.00  0.00    -0.348 N 
HETATM    4  C5  UNL     1      21.611   1.501  52.191  1.00  0.00     0.128 C 
HETATM    5  N2  UNL     1      21.714   0.642  51.188  1.00  0.00    -0.242 NA
HETATM    6  C6  UNL     1      21.787   1.130  49.794  1.00  0.00     0.136 C 
HETATM    7  C7  UNL     1      22.106   2.325  49.234  1.00  0.00     0.116 C 
HETATM    8  N3  UNL     1      22.268   3.382  50.170  1.00  0.00    -0.331 N 
HETATM    9  C8  UNL     1      21.483   3.772  51.342  1.00  0.00     0.100 C 
HETATM   10  C9  UNL     1      20.894   2.820  52.113  1.00  0.00     0.068 C 
HETATM   11  C10 UNL     1      23.433   4.152  49.791  1.00  0.00     0.046 A 
HETATM   12  C11 UNL     1      22.856   4.856  48.761  1.00  0.00     0.057 A 
HETATM   13  C12 UNL     1      23.767   5.816  48.271  1.00  0.00     0.074 A 
HETATM   14 CL1  UNL     1      23.360   6.875  46.952  1.00  0.00    -0.081 Cl
HETATM   15  C13 UNL     1      25.028   5.986  48.778  1.00  0.00     0.138 A 
HETATM   16  F1  UNL     1      25.970   6.853  48.404  1.00  0.00    -0.204 F 
HETATM   17  C14 UNL     1      25.491   5.208  49.816  1.00  0.00     0.054 A 
HETATM   18  C15 UNL     1      24.697   4.208  50.404  1.00  0.00    -0.022 A 
HETATM   19  C16 UNL     1      24.578   3.072  51.340  1.00  0.00     0.089 C 
HETATM   20  C17 UNL     1      25.504   2.254  51.930  1.00  0.00     0.033 C 
HETATM   21  H7  UNL     1      21.384   0.781  53.629  1.00  0.00     0.167 HD
ENDROOT
BRANCH  20  22
HETATM   22  C18 UNL     1      27.016   1.939  52.085  1.00  0.00     0.282 C 
BRANCH  22  23
HETATM   23  N4  UNL     1      27.409   2.531  53.312  1.00  0.00     0.090 N 
HETATM   24  H17 UNL     1      27.109   3.489  53.502  1.00  0.00     0.316 HD
BRANCH  23  25
HETATM   25  C19 UNL     1      28.790   2.391  53.637  1.00  0.00     0.338 C 
BRANCH  25  26
HETATM   26  C20 UNL     1      28.971   1.091  54.360  1.00  0.00     0.261 C 
HETATM   27  O2  UNL     1      28.756   0.041  54.945  1.00  0.00    -0.305 OA
ENDBRANCH  25  26
ENDBRANCH  23  25
ENDBRANCH  22  23
ENDBRANCH  20  22
BRANCH   1  28
HETATM   28  O1  UNL     1      25.670   0.330  53.469  1.00  0.00    -0.354 OA
BRANCH  28  29
HETATM   29  C2  UNL     1      25.578  -1.057  53.280  1.00  0.00     0.171 C 
HETATM   30  C1  UNL     1      26.762  -1.617  52.524  1.00  0.00     0.034 C 
ENDBRANCH  28  29
ENDBRANCH   1  28
TORSDOF 6
ENDMDL
MODEL 4
REMARK VINA RESULT:      -7.7      1.979      2.822
REMARK  6 active torsions:
REMARK  status: ('A' for Active; 'I' for Inactive)
REMARK    1  A    between atoms: C2_2  and  O1_3 
REMARK    2  A    between atoms: O1_3  and  C3_4 
REMARK    3  A    between atoms: C17_23  and  C18_24 
REMARK    4  A    between atoms: C18_24  and  N4_25 
REMARK    5  A    between atoms: N4_25  and  C19_26 
REMARK    6  A    between atoms: C19_26  and  C20_27 
ROOT
HETATM    1  C3  UNL     1      24.601   2.993  50.447  1.00  0.00     0.068 C 
HETATM    2  C4  UNL     1      24.178   3.567  49.356  1.00  0.00     0.122 C 
HETATM    3  N1  UNL     1      23.099   3.610  48.454  1.00  0.00    -0.348 N 
HETATM    4  C5  UNL     1      21.766   3.225  48.815  1.00  0.00     0.128 C 
HETATM    5  N2  UNL     1      21.357   4.184  49.631  1.00  0.00    -0.242 NA
HETATM    6  C6  UNL     1      20.437   3.873  50.746  1.00  0.00     0.136 C 
HETATM    7  C7  UNL     1      20.107   2.728  51.397  1.00  0.00     0.116 C 
HETATM    8  N3  UNL     1      20.637   1.549  50.808  1.00  0.00    -0.331 N 
HETATM    9  C8  UNL     1      20.726   1.115  49.412  1.00  0.00     0.100 C 
HETATM   10  C9  UNL     1      20.945   2.026  48.430  1.00  0.00     0.068 C 
HETATM   11  C10 UNL     1      21.132   0.694  51.865  1.00  0.00     0.046 A 
HETATM   12  C11 UNL     1      19.918   0.205  52.283  1.00  0.00     0.057 A 
HETATM   13  C12 UNL     1      20.118  -0.792  53.263  1.00  0.00     0.074 A 
HETATM   14 CL1  UNL     1      18.784  -1.615  54.017  1.00  0.00    -0.081 Cl
HETATM   15  C13 UNL     1      21.357  -1.182  53.700  1.00  0.00     0.138 A 
HETATM   16  F1  UNL     1      21.669  -2.105  54.610  1.00  0.00    -0.204 F 
HETATM   17  C14 UNL     1      22.503  -0.606  53.199  1.00  0.00     0.054 A 
HETATM   18  C15 UNL     1      22.460   0.403  52.221  1.00  0.00    -0.022 A 
HETATM   19  C16 UNL     1      23.170   1.416  51.415  1.00  0.00     0.089 C 
HETATM   20  C17 UNL     1      24.385   2.030  51.555  1.00  0.00     0.033 C 
HETATM   21  H7  UNL     1      22.640   3.778  47.564  1.00  0.00     0.167 HD
ENDROOT
BRANCH  20  22
HETATM   22  C18 UNL     1      25.674   2.131  52.414  1.00  0.00     0.282 C 
BRANCH  22  23
HETATM   23  N4  UNL     1      26.602   1.237  51.825  1.00  0.00     0.090 N 
HETATM   24  H17 UNL     1      26.740   1.285  50.813  1.00  0.00     0.316 HD
BRANCH  23  25
HETATM   25  C19 UNL     1      26.469  -0.125  52.223  1.00  0.00     0.338 C 
BRANCH  25  26
HETATM   26  C20 UNL     1      27.058  -0.271  53.594  1.00  0.00     0.261 C 
HETATM   27  O2  UNL     1      27.200  -0.299  54.806  1.00  0.00    -0.305 OA
ENDBRANCH  25  26
ENDBRANCH  23  25
ENDBRANCH  22  23
ENDBRANCH  20  22
BRANCH   1  28
HETATM   28  O1  UNL     1      25.833   3.707  50.463  1.00  0.00    -0.354 OA
BRANCH  28  29
HETATM   29  C2  UNL     1      26.101   4.764  49.582  1.00  0.00     0.171 C 
HETATM   30  C1  UNL     1      27.416   4.593  48.856  1.00  0.00     0.034 C 
ENDBRANCH  28  29
ENDBRANCH   1  28
TORSDOF 6
ENDMDL
MODEL 5
REMARK VINA RESULT:      -7.7      3.667      6.159
REMARK  6 active torsions:
REMARK  status: ('A' for Active; 'I' for Inactive)
REMARK    1  A    between atoms: C2_2  and  O1_3 
REMARK    2  A    between atoms: O1_3  and  C3_4 
REMARK    3  A    between atoms: C17_23  and  C18_24 
REMARK    4  A    between atoms: C18_24  and  N4_25 
REMARK    5  A    between atoms: N4_25  and  C19_26 
REMARK    6  A    between atoms: C19_26  and  C20_27 
ROOT
HETATM    1  C3  UNL     1      20.365   0.322  52.540  1.00  0.00     0.068 C 
HETATM    2  C4  UNL     1      19.259   0.919  52.197  1.00  0.00     0.122 C 
HETATM    3  N1  UNL     1      18.753   2.057  51.542  1.00  0.00    -0.348 N 
HETATM    4  C5  UNL     1      19.496   2.785  50.557  1.00  0.00     0.128 C 
HETATM    5  N2  UNL     1      19.535   1.975  49.510  1.00  0.00    -0.242 NA
HETATM    6  C6  UNL     1      20.715   1.965  48.618  1.00  0.00     0.136 C 
HETATM    7  C7  UNL     1      22.001   2.374  48.761  1.00  0.00     0.116 C 
HETATM    8  N3  UNL     1      22.254   3.096  49.958  1.00  0.00    -0.331 N 
HETATM    9  C8  UNL     1      21.500   4.155  50.632  1.00  0.00     0.100 C 
HETATM   10  C9  UNL     1      20.142   4.142  50.609  1.00  0.00     0.068 C 
HETATM   11  C10 UNL     1      23.507   2.635  50.513  1.00  0.00     0.046 A 
HETATM   12  C11 UNL     1      24.343   3.319  49.662  1.00  0.00     0.057 A 
HETATM   13  C12 UNL     1      25.683   3.147  50.071  1.00  0.00     0.074 A 
HETATM   14 CL1  UNL     1      27.005   3.873  49.203  1.00  0.00    -0.081 Cl
HETATM   15  C13 UNL     1      26.049   2.402  51.161  1.00  0.00     0.138 A 
HETATM   16  F1  UNL     1      27.271   2.171  51.643  1.00  0.00    -0.204 F 
HETATM   17  C14 UNL     1      25.108   1.759  51.935  1.00  0.00     0.054 A 
HETATM   18  C15 UNL     1      23.735   1.836  51.647  1.00  0.00    -0.022 A 
HETATM   19  C16 UNL     1      22.356   1.384  51.923  1.00  0.00     0.089 C 
HETATM   20  C17 UNL     1      21.849   0.283  52.558  1.00  0.00     0.033 C 
HETATM   21  H7  UNL     1      18.066   2.773  51.324  1.00  0.00     0.167 HD
ENDROOT
BRANCH  20  22
HETATM   22  C18 UNL     1      22.194  -1.023  53.322  1.00  0.00     0.282 C 
BRANCH  22  23
HETATM   23  N4  UNL     1      22.215  -0.674  54.695  1.00  0.00     0.090 N 
HETATM   24  H17 UNL     1      22.229   0.318  54.939  1.00  0.00     0.316 HD
BRANCH  23  25
HETATM   25  C19 UNL     1      23.175  -1.372  55.484  1.00  0.00     0.338 C 
BRANCH  25  26
HETATM   26  C20 UNL     1      24.542  -0.986  55.007  1.00  0.00     0.261 C 
HETATM   27  O2  UNL     1      25.750  -0.819  54.935  1.00  0.00    -0.305 OA
ENDBRANCH  25  26
ENDBRANCH  23  25
ENDBRANCH  22  23
ENDBRANCH  20  22
BRANCH   1  28
HETATM   28  O1  UNL     1      19.699  -0.766  53.171  1.00  0.00    -0.354 OA
BRANCH  28  29
HETATM   29  C2  UNL     1      18.339  -1.037  52.963  1.00  0.00     0.171 C 
HETATM   30  C1  UNL     1      17.899  -2.327  53.619  1.00  0.00     0.034 C 
ENDBRANCH  28  29
ENDBRANCH   1  28
TORSDOF 6
ENDMDL
MODEL 6
REMARK VINA RESULT:      -7.5      3.435      5.405
REMARK  6 active torsions:
REMARK  status: ('A' for Active; 'I' for Inactive)
REMARK    1  A    between atoms: C2_2  and  O1_3 
REMARK    2  A    between atoms: O1_3  and  C3_4 
REMARK    3  A    between atoms: C17_23  and  C18_24 
REMARK    4  A    between atoms: C18_24  and  N4_25 
REMARK    5  A    between atoms: N4_25  and  C19_26 
REMARK    6  A    between atoms: C19_26  and  C20_27 
ROOT
HETATM    1  C3  UNL     1      23.323   0.359  52.931  1.00  0.00     0.068 C 
HETATM    2  C4  UNL     1      22.126   0.178  53.415  1.00  0.00     0.122 C 
HETATM    3  N1  UNL     1      20.829   0.719  53.433  1.00  0.00    -0.348 N 
HETATM    4  C5  UNL     1      20.322   1.565  52.393  1.00  0.00     0.128 C 
HETATM    5  N2  UNL     1      20.165   0.754  51.357  1.00  0.00    -0.242 NA
HETATM    6  C6  UNL     1      20.373   1.252  49.981  1.00  0.00     0.136 C 
HETATM    7  C7  UNL     1      21.027   2.322  49.460  1.00  0.00     0.116 C 
HETATM    8  N3  UNL     1      21.496   3.247  50.431  1.00  0.00    -0.331 N 
HETATM    9  C8  UNL     1      20.864   3.804  51.628  1.00  0.00     0.100 C 
HETATM   10  C9  UNL     1      20.025   3.038  52.373  1.00  0.00     0.068 C 
HETATM   11  C10 UNL     1      22.835   3.655  50.063  1.00  0.00     0.046 A 
HETATM   12  C11 UNL     1      22.486   4.537  49.068  1.00  0.00     0.057 A 
HETATM   13  C12 UNL     1      23.637   5.206  48.600  1.00  0.00     0.074 A 
HETATM   14 CL1  UNL     1      23.555   6.388  47.326  1.00  0.00    -0.081 Cl
HETATM   15  C13 UNL     1      24.895   4.978  49.094  1.00  0.00     0.138 A 
HETATM   16  F1  UNL     1      26.048   5.545  48.737  1.00  0.00    -0.204 F 
HETATM   17  C14 UNL     1      25.112   4.059  50.096  1.00  0.00     0.054 A 
HETATM   18  C15 UNL     1      24.061   3.314  50.659  1.00  0.00    -0.022 A 
HETATM   19  C16 UNL     1      23.617   2.227  51.555  1.00  0.00     0.089 C 
HETATM   20  C17 UNL     1      24.263   1.151  52.101  1.00  0.00     0.033 C 
HETATM   21  H7  UNL     1      19.899   0.888  53.806  1.00  0.00     0.167 HD
ENDROOT
BRANCH  20  22
HETATM   22  C18 UNL     1      25.617   0.401  52.222  1.00  0.00     0.282 C 
BRANCH  22  23
HETATM   23  N4  UNL     1      26.347   1.081  53.229  1.00  0.00     0.090 N 
HETATM   24  H17 UNL     1      25.829   1.466  54.021  1.00  0.00     0.316 HD
BRANCH  23  25
HETATM   25  C19 UNL     1      27.279   2.048  52.753  1.00  0.00     0.338 C 
BRANCH  25  26
HETATM   26  C20 UNL     1      28.440   2.084  53.699  1.00  0.00     0.261 C 
HETATM   27  O2  UNL     1      29.258   2.447  54.531  1.00  0.00    -0.305 OA
ENDBRANCH  25  26
ENDBRANCH  23  25
ENDBRANCH  22  23
ENDBRANCH  20  22
BRANCH   1  28
HETATM   28  O1  UNL     1      23.862  -0.796  53.566  1.00  0.00    -0.354 OA
BRANCH  28  29
HETATM   29  C2  UNL     1      23.579  -1.121  54.900  1.00  0.00     0.171 C 
HETATM   30  C1  UNL     1      24.812  -1.099  55.776  1.00  0.00     0.034 C 
ENDBRANCH  28  29
ENDBRANCH   1  28
TORSDOF 6
ENDMDL
MODEL 7
REMARK VINA RESULT:      -7.5      2.107      2.704
REMARK  6 active torsions:
REMARK  status: ('A' for Active; 'I' for Inactive)
REMARK    1  A    between atoms: C2_2  and  O1_3 
REMARK    2  A    between atoms: O1_3  and  C3_4 
REMARK    3  A    between atoms: C17_23  and  C18_24 
REMARK    4  A    between atoms: C18_24  and  N4_25 
REMARK    5  A    between atoms: N4_25  and  C19_26 
REMARK    6  A    between atoms: C19_26  and  C20_27 
ROOT
HETATM    1  C3  UNL     1      25.702   1.499  51.944  1.00  0.00     0.068 C 
HETATM    2  C4  UNL     1      26.274   2.522  51.374  1.00  0.00     0.122 C 
HETATM    3  N1  UNL     1      26.017   3.653  50.578  1.00  0.00    -0.348 N 
HETATM    4  C5  UNL     1      24.733   4.287  50.516  1.00  0.00     0.128 C 
HETATM    5  N2  UNL     1      24.594   4.863  51.701  1.00  0.00    -0.242 NA
HETATM    6  C6  UNL     1      23.257   4.974  52.323  1.00  0.00     0.136 C 
HETATM    7  C7  UNL     1      22.078   4.327  52.134  1.00  0.00     0.116 C 
HETATM    8  N3  UNL     1      22.065   3.456  51.012  1.00  0.00    -0.331 N 
HETATM    9  C8  UNL     1      22.567   3.621  49.647  1.00  0.00     0.100 C 
HETATM   10  C9  UNL     1      23.704   4.330  49.422  1.00  0.00     0.068 C 
HETATM   11  C10 UNL     1      21.402   2.229  51.396  1.00  0.00     0.046 A 
HETATM   12  C11 UNL     1      20.110   2.694  51.329  1.00  0.00     0.057 A 
HETATM   13  C12 UNL     1      19.208   1.629  51.539  1.00  0.00     0.074 A 
HETATM   14 CL1  UNL     1      17.486   1.873  51.532  1.00  0.00    -0.081 Cl
HETATM   15  C13 UNL     1      19.607   0.338  51.771  1.00  0.00     0.138 A 
HETATM   16  F1  UNL     1      18.855  -0.743  51.980  1.00  0.00    -0.204 F 
HETATM   17  C14 UNL     1      20.941   0.001  51.818  1.00  0.00     0.054 A 
HETATM   18  C15 UNL     1      21.954   0.957  51.630  1.00  0.00    -0.022 A 
HETATM   19  C16 UNL     1      23.390   1.302  51.651  1.00  0.00     0.089 C 
HETATM   20  C17 UNL     1      24.477   0.715  52.239  1.00  0.00     0.033 C 
HETATM   21  H7  UNL     1      26.240   4.398  49.924  1.00  0.00     0.167 HD
ENDROOT
BRANCH  20  22
HETATM   22  C18 UNL     1      24.976  -0.474  53.105  1.00  0.00     0.282 C 
BRANCH  22  23
HETATM   23  N4  UNL     1      24.738  -0.098  54.450  1.00  0.00     0.090 N 
HETATM   24  H17 UNL     1      25.460   0.439  54.934  1.00  0.00     0.316 HD
BRANCH  23  25
HETATM   25  C19 UNL     1      24.274  -1.144  55.298  1.00  0.00     0.338 C 
BRANCH  25  26
HETATM   26  C20 UNL     1      22.793  -1.278  55.109  1.00  0.00     0.261 C 
HETATM   27  O2  UNL     1      21.650  -1.708  55.111  1.00  0.00    -0.305 OA
ENDBRANCH  25  26
ENDBRANCH  23  25
ENDBRANCH  22  23
ENDBRANCH  20  22
BRANCH   1  28
HETATM   28  O1  UNL     1      26.917   1.000  52.494  1.00  0.00    -0.354 OA
BRANCH  28  29
HETATM   29  C2  UNL     1      27.872   1.837  53.089  1.00  0.00     0.171 C 
HETATM   30  C1  UNL     1      28.957   1.061  53.802  1.00  0.00     0.034 C 
ENDBRANCH  28  29
ENDBRANCH   1  28
TORSDOF 6
ENDMDL
MODEL 8
REMARK VINA RESULT:      -7.4      5.163      7.403
REMARK  6 active torsions:
REMARK  status: ('A' for Active; 'I' for Inactive)
REMARK    1  A    between atoms: C2_2  and  O1_3 
REMARK    2  A    between atoms: O1_3  and  C3_4 
REMARK    3  A    between atoms: C17_23  and  C18_24 
REMARK    4  A    between atoms: C18_24  and  N4_25 
REMARK    5  A    between atoms: N4_25  and  C19_26 
REMARK    6  A    between atoms: C19_26  and  C20_27 
ROOT
HETATM    1  C3  UNL     1      24.181   3.823  50.863  1.00  0.00     0.068 C 
HETATM    2  C4  UNL     1      22.998   4.218  51.239  1.00  0.00     0.122 C 
HETATM    3  N1  UNL     1      22.110   5.308  51.194  1.00  0.00    -0.348 N 
HETATM    4  C5  UNL     1      22.165   6.317  50.178  1.00  0.00     0.128 C 
HETATM    5  N2  UNL     1      21.751   5.701  49.081  1.00  0.00    -0.242 NA
HETATM    6  C6  UNL     1      22.306   6.075  47.762  1.00  0.00     0.136 C 
HETATM    7  C7  UNL     1      23.433   6.721  47.368  1.00  0.00     0.116 C 
HETATM    8  N3  UNL     1      24.181   7.291  48.433  1.00  0.00    -0.331 N 
HETATM    9  C8  UNL     1      23.766   8.052  49.613  1.00  0.00     0.100 C 
HETATM   10  C9  UNL     1      22.596   7.756  50.236  1.00  0.00     0.068 C 
HETATM   11  C10 UNL     1      25.584   7.027  48.198  1.00  0.00     0.046 A 
HETATM   12  C11 UNL     1      25.790   7.993  47.242  1.00  0.00     0.057 A 
HETATM   13  C12 UNL     1      27.161   8.049  46.911  1.00  0.00     0.074 A 
HETATM   14 CL1  UNL     1      27.770   9.160  45.718  1.00  0.00    -0.081 Cl
HETATM   15  C13 UNL     1      28.109   7.242  47.483  1.00  0.00     0.138 A 
HETATM   16  F1  UNL     1      29.422   7.205  47.256  1.00  0.00    -0.204 F 
HETATM   17  C14 UNL     1      27.769   6.306  48.434  1.00  0.00     0.054 A 
HETATM   18  C15 UNL     1      26.441   6.133  48.862  1.00  0.00    -0.022 A 
HETATM   19  C16 UNL     1      25.452   5.363  49.644  1.00  0.00     0.089 C 
HETATM   20  C17 UNL     1      25.461   4.097  50.163  1.00  0.00     0.033 C 
HETATM   21  H7  UNL     1      21.335   5.887  51.505  1.00  0.00     0.167 HD
ENDROOT
BRANCH  20  22
HETATM   22  C18 UNL     1      26.286   2.793  50.337  1.00  0.00     0.282 C 
BRANCH  22  23
HETATM   23  N4  UNL     1      27.038   2.968  51.526  1.00  0.00     0.090 N 
HETATM   24  H17 UNL     1      27.923   3.475  51.465  1.00  0.00     0.316 HD
BRANCH  23  25
HETATM   25  C19 UNL     1      27.216   1.790  52.309  1.00  0.00     0.338 C 
BRANCH  25  26
HETATM   26  C20 UNL     1      28.240   2.080  53.364  1.00  0.00     0.261 C 
HETATM   27  O2  UNL     1      28.812   2.538  54.342  1.00  0.00    -0.305 OA
ENDBRANCH  25  26
ENDBRANCH  23  25
ENDBRANCH  22  23
ENDBRANCH  20  22
BRANCH   1  28
HETATM   28  O1  UNL     1      24.051   2.536  51.457  1.00  0.00    -0.354 OA
BRANCH  28  29
HETATM   29  C2  UNL     1      23.442   2.344  52.706  1.00  0.00     0.171 C 
HETATM   30  C1  UNL     1      23.469   0.897  53.145  1.00  0.00     0.034 C 
ENDBRANCH  28  29
ENDBRANCH   1  28
TORSDOF 6
ENDMDL
MODEL 9
REMARK VINA RESULT:      -7.3      7.265      8.975
REMARK  6 active torsions:
REMARK  status: ('A' for Active; 'I' for Inactive)
REMARK    1  A    between atoms: C2_2  and  O1_3 
REMARK    2  A    between atoms: O1_3  and  C3_4 
REMARK    3  A    between atoms: C17_23  and  C18_24 
REMARK    4  A    between atoms: C18_24  and  N4_25 
REMARK    5  A    between atoms: N4_25  and  C19_26 
REMARK    6  A    between atoms: C19_26  and  C20_27 
ROOT
HETATM    1  C3  UNL     1      31.686   7.401  47.577  1.00  0.00     0.068 C 
HETATM    2  C4  UNL     1      31.760   8.612  47.100  1.00  0.00     0.122 C 
HETATM    3  N1  UNL     1      30.980   9.714  46.706  1.00  0.00    -0.348 N 
HETATM    4  C5  UNL     1      29.656   9.949  47.202  1.00  0.00     0.128 C 
HETATM    5  N2  UNL     1      29.836  10.298  48.467  1.00  0.00    -0.242 NA
HETATM    6  C6  UNL     1      28.834   9.933  49.491  1.00  0.00     0.136 C 
HETATM    7  C7  UNL     1      27.848   9.001  49.548  1.00  0.00     0.116 C 
HETATM    8  N3  UNL     1      27.620   8.319  48.323  1.00  0.00    -0.331 N 
HETATM    9  C8  UNL     1      27.532   8.801  46.943  1.00  0.00     0.100 C 
HETATM   10  C9  UNL     1      28.315   9.833  46.533  1.00  0.00     0.068 C 
HETATM   11  C10 UNL     1      27.440   6.913  48.610  1.00  0.00     0.046 A 
HETATM   12  C11 UNL     1      26.145   6.987  49.066  1.00  0.00     0.057 A 
HETATM   13  C12 UNL     1      25.650   5.687  49.307  1.00  0.00     0.074 A 
HETATM   14 CL1  UNL     1      24.039   5.417  49.905  1.00  0.00    -0.081 Cl
HETATM   15  C13 UNL     1      26.387   4.550  49.102  1.00  0.00     0.138 A 
HETATM   16  F1  UNL     1      26.030   3.279  49.289  1.00  0.00    -0.204 F 
HETATM   17  C14 UNL     1      27.684   4.613  48.642  1.00  0.00     0.054 A 
HETATM   18  C15 UNL     1      28.312   5.838  48.362  1.00  0.00    -0.022 A 
HETATM   19  C16 UNL     1      29.537   6.580  48.001  1.00  0.00     0.089 C 
HETATM   20  C17 UNL     1      30.867   6.263  48.063  1.00  0.00     0.033 C 
HETATM   21  H7  UNL     1      30.772  10.570  46.201  1.00  0.00     0.167 HD
ENDROOT
BRANCH  20  22
HETATM   22  C18 UNL     1      31.903   5.168  48.432  1.00  0.00     0.282 C 
BRANCH  22  23
HETATM   23  N4  UNL     1      31.750   4.148  47.459  1.00  0.00     0.090 N 
HETATM   24  H17 UNL     1      31.364   3.251  47.760  1.00  0.00     0.316 HD
BRANCH  23  25
HETATM   25  C19 UNL     1      32.888   3.924  46.632  1.00  0.00     0.338 C 
BRANCH  25  26
HETATM   26  C20 UNL     1      34.080   3.724  47.519  1.00  0.00     0.261 C 
HETATM   27  O2  UNL     1      35.049   3.236  48.080  1.00  0.00    -0.305 OA
ENDBRANCH  25  26
ENDBRANCH  23  25
ENDBRANCH  22  23
ENDBRANCH  20  22
BRANCH   1  28
HETATM   28  O1  UNL     1      33.096   7.210  47.582  1.00  0.00    -0.354 OA
BRANCH  28  29
HETATM   29  C2  UNL     1      33.949   7.927  48.434  1.00  0.00     0.171 C 
HETATM   30  C1  UNL     1      35.393   7.499  48.301  1.00  0.00     0.034 C 
ENDBRANCH  28  29
ENDBRANCH   1  28
TORSDOF 6
ENDMDL
