MODEL 1
REMARK VINA RESULT:      -7.9      0.000      0.000
REMARK  5 active torsions:
REMARK  status: ('A' for Active; 'I' for Inactive)
REMARK    1  A    between atoms: C1_2  and  C2_3 
REMARK       I    between atoms: C1_2  and  N1_11 
REMARK    2  A    between atoms: C2_3  and  C3_4 
REMARK    3  A    between atoms: N1_11  and  S1_12 
REMARK    4  A    between atoms: S1_12  and  C9_15 
REMARK    5  A    between atoms: C9_15  and  C10_16 
ROOT
HETATM    1  O1  UNL     1      27.050   2.758  50.869  1.00  0.00    -0.272 OA
HETATM    2  C1  UNL     1      26.790   2.579  52.109  1.00  0.00     0.235 C 
HETATM    3  N1  UNL     1      25.471   2.866  52.627  1.00  0.00    -0.254 N 
HETATM    4  H7  UNL     1      25.269   2.703  53.660  1.00  0.00     0.181 HD
ENDROOT
BRANCH   3   5
HETATM    5  S1  UNL     1      23.969   3.440  52.005  1.00  0.00     0.236 S 
HETATM    6  O2  UNL     1      23.476   4.579  52.860  1.00  0.00    -0.205 OA
HETATM    7  O3  UNL     1      24.088   3.844  50.573  1.00  0.00    -0.205 OA
BRANCH   5   8
HETATM    8  C9  UNL     1      22.727   2.159  52.108  1.00  0.00     0.191 C 
BRANCH   8   9
HETATM    9  C10 UNL     1      23.146   1.122  53.081  1.00  0.00    -0.002 C 
HETATM   10  C11 UNL     1      22.629   0.073  53.676  1.00  0.00    -0.040 A 
HETATM   11  C12 UNL     1      22.831  -1.052  54.625  1.00  0.00     0.068 A 
HETATM   12  C14 UNL     1      21.228  -0.365  53.502  1.00  0.00     0.013 A 
HETATM   13  C13 UNL     1      21.426  -1.358  54.348  1.00  0.00    -0.003 A 
HETATM   14 BR1  UNL     1      19.535  -0.075  52.655  1.00  0.00    -0.051 Br
ENDBRANCH   8   9
ENDBRANCH   5   8
ENDBRANCH   3   5
BRANCH   2  15
HETATM   15  C2  UNL     1      27.714   2.079  53.132  1.00  0.00     0.142 C 
BRANCH  15  16
HETATM   16  C3  UNL     1      27.835   0.599  53.114  1.00  0.00    -0.049 A 
HETATM   17  C4  UNL     1      26.914  -0.339  52.713  1.00  0.00     0.011 A 
HETATM   18  C5  UNL     1      27.288  -1.683  52.749  1.00  0.00     0.043 A 
HETATM   19  C6  UNL     1      28.533  -2.085  53.170  1.00  0.00     0.116 A 
HETATM   20  F1  UNL     1      28.866  -3.390  53.185  1.00  0.00    -0.206 F 
HETATM   21  C7  UNL     1      29.486  -1.177  53.580  1.00  0.00     0.043 A 
HETATM   22  C8  UNL     1      29.102   0.159  53.540  1.00  0.00     0.011 A 
ENDBRANCH  15  16
ENDBRANCH   2  15
TORSDOF 5
ENDMDL
MODEL 2
REMARK VINA RESULT:      -7.5      3.316      4.151
REMARK  5 active torsions:
REMARK  status: ('A' for Active; 'I' for Inactive)
REMARK    1  A    between atoms: C1_2  and  C2_3 
REMARK       I    between atoms: C1_2  and  N1_11 
REMARK    2  A    between atoms: C2_3  and  C3_4 
REMARK    3  A    between atoms: N1_11  and  S1_12 
REMARK    4  A    between atoms: S1_12  and  C9_15 
REMARK    5  A    between atoms: C9_15  and  C10_16 
ROOT
HETATM    1  O1  UNL     1      25.183  -0.682  54.933  1.00  0.00    -0.272 OA
HETATM    2  C1  UNL     1      24.886  -0.463  53.707  1.00  0.00     0.235 C 
HETATM    3  N1  UNL     1      23.511  -0.534  53.266  1.00  0.00    -0.254 N 
HETATM    4  H7  UNL     1      23.280  -0.341  52.244  1.00  0.00     0.181 HD
ENDROOT
BRANCH   3   5
HETATM    5  S1  UNL     1      21.974  -0.860  53.975  1.00  0.00     0.236 S 
HETATM    6  O2  UNL     1      21.517  -2.238  53.570  1.00  0.00    -0.205 OA
HETATM    7  O3  UNL     1      22.013  -0.712  55.460  1.00  0.00    -0.205 OA
BRANCH   5   8
HETATM    8  C9  UNL     1      20.749   0.280  53.346  1.00  0.00     0.191 C 
BRANCH   8   9
HETATM    9  C10 UNL     1      20.706   0.215  51.866  1.00  0.00    -0.002 C 
HETATM   10  C11 UNL     1      21.301   0.783  50.844  1.00  0.00    -0.040 A 
HETATM   11  C12 UNL     1      21.427   0.882  49.367  1.00  0.00     0.068 A 
HETATM   12  C14 UNL     1      22.314   1.853  50.972  1.00  0.00     0.013 A 
HETATM   13  C13 UNL     1      22.412   1.926  49.657  1.00  0.00    -0.003 A 
HETATM   14 BR1  UNL     1      23.350   2.970  52.130  1.00  0.00    -0.051 Br
ENDBRANCH   8   9
ENDBRANCH   5   8
ENDBRANCH   3   5
BRANCH   2  15
HETATM   15  C2  UNL     1      25.820  -0.118  52.630  1.00  0.00     0.142 C 
BRANCH  15  16
HETATM   16  C3  UNL     1      27.239  -0.278  53.037  1.00  0.00    -0.049 A 
HETATM   17  C4  UNL     1      28.098   0.655  53.566  1.00  0.00     0.011 A 
HETATM   18  C5  UNL     1      29.386   0.241  53.912  1.00  0.00     0.043 A 
HETATM   19  C6  UNL     1      29.809  -1.055  53.737  1.00  0.00     0.116 A 
HETATM   20  F1  UNL     1      31.055  -1.426  54.088  1.00  0.00    -0.206 F 
HETATM   21  C7  UNL     1      28.979  -2.022  53.210  1.00  0.00     0.043 A 
HETATM   22  C8  UNL     1      27.699  -1.598  52.869  1.00  0.00     0.011 A 
ENDBRANCH  15  16
ENDBRANCH   2  15
TORSDOF 5
ENDMDL
MODEL 3
REMARK VINA RESULT:      -7.4      3.074      3.628
REMARK  5 active torsions:
REMARK  status: ('A' for Active; 'I' for Inactive)
REMARK    1  A    between atoms: C1_2  and  C2_3 
REMARK       I    between atoms: C1_2  and  N1_11 
REMARK    2  A    between atoms: C2_3  and  C3_4 
REMARK    3  A    between atoms: N1_11  and  S1_12 
REMARK    4  A    between atoms: S1_12  and  C9_15 
REMARK    5  A    between atoms: C9_15  and  C10_16 
ROOT
HETATM    1  O1  UNL     1      23.932   0.950  51.671  1.00  0.00    -0.272 OA
HETATM    2  C1  UNL     1      24.484   0.963  52.826  1.00  0.00     0.235 C 
HETATM    3  N1  UNL     1      23.894   0.233  53.925  1.00  0.00    -0.254 N 
HETATM    4  H7  UNL     1      24.371   0.248  54.878  1.00  0.00     0.181 HD
ENDROOT
BRANCH   3   5
HETATM    5  S1  UNL     1      22.513  -0.767  54.179  1.00  0.00     0.236 S 
HETATM    6  O2  UNL     1      22.310  -1.655  52.979  1.00  0.00    -0.205 OA
HETATM    7  O3  UNL     1      22.638  -1.565  55.435  1.00  0.00    -0.205 OA
BRANCH   5   8
HETATM    8  C9  UNL     1      21.040   0.237  54.316  1.00  0.00     0.191 C 
BRANCH   8   9
HETATM    9  C10 UNL     1      20.637   0.734  52.979  1.00  0.00    -0.002 C 
HETATM   10  C11 UNL     1      19.677   0.531  52.109  1.00  0.00    -0.040 A 
HETATM   11  C12 UNL     1      19.090   0.881  50.790  1.00  0.00     0.068 A 
HETATM   12  C14 UNL     1      18.596  -0.462  52.292  1.00  0.00     0.013 A 
HETATM   13  C13 UNL     1      18.090  -0.138  51.117  1.00  0.00    -0.003 A 
HETATM   14 BR1  UNL     1      17.803  -1.803  53.403  1.00  0.00    -0.051 Br
ENDBRANCH   8   9
ENDBRANCH   5   8
ENDBRANCH   3   5
BRANCH   2  15
HETATM   15  C2  UNL     1      25.722   1.659  53.195  1.00  0.00     0.142 C 
BRANCH  15  16
HETATM   16  C3  UNL     1      26.877   0.735  53.317  1.00  0.00    -0.049 A 
HETATM   17  C4  UNL     1      27.004  -0.557  52.866  1.00  0.00     0.011 A 
HETATM   18  C5  UNL     1      28.223  -1.207  53.067  1.00  0.00     0.043 A 
HETATM   19  C6  UNL     1      29.281  -0.598  53.697  1.00  0.00     0.116 A 
HETATM   20  F1  UNL     1      30.447  -1.249  53.869  1.00  0.00    -0.206 F 
HETATM   21  C7  UNL     1      29.196   0.696  54.165  1.00  0.00     0.043 A 
HETATM   22  C8  UNL     1      27.978   1.334  53.959  1.00  0.00     0.011 A 
ENDBRANCH  15  16
ENDBRANCH   2  15
TORSDOF 5
ENDMDL
MODEL 4
REMARK VINA RESULT:      -7.3      3.522      5.752
REMARK  5 active torsions:
REMARK  status: ('A' for Active; 'I' for Inactive)
REMARK    1  A    between atoms: C1_2  and  C2_3 
REMARK       I    between atoms: C1_2  and  N1_11 
REMARK    2  A    between atoms: C2_3  and  C3_4 
REMARK    3  A    between atoms: N1_11  and  S1_12 
REMARK    4  A    between atoms: S1_12  and  C9_15 
REMARK    5  A    between atoms: C9_15  and  C10_16 
ROOT
HETATM    1  O1  UNL     1      19.504   3.412  52.352  1.00  0.00    -0.272 OA
HETATM    2  C1  UNL     1      20.322   2.619  51.768  1.00  0.00     0.235 C 
HETATM    3  N1  UNL     1      21.502   3.139  51.115  1.00  0.00    -0.254 N 
HETATM    4  H7  UNL     1      22.177   2.464  50.641  1.00  0.00     0.181 HD
ENDROOT
BRANCH   3   5
HETATM    5  S1  UNL     1      22.225   4.682  50.857  1.00  0.00     0.236 S 
HETATM    6  O2  UNL     1      22.937   4.687  49.529  1.00  0.00    -0.205 OA
HETATM    7  O3  UNL     1      21.216   5.780  50.939  1.00  0.00    -0.205 OA
BRANCH   5   8
HETATM    8  C9  UNL     1      23.472   4.997  52.098  1.00  0.00     0.191 C 
BRANCH   8   9
HETATM    9  C10 UNL     1      23.823   3.736  52.796  1.00  0.00    -0.002 C 
HETATM   10  C11 UNL     1      24.663   2.740  52.652  1.00  0.00    -0.040 A 
HETATM   11  C12 UNL     1      25.175   1.450  53.181  1.00  0.00     0.068 A 
HETATM   12  C14 UNL     1      25.601   2.612  51.516  1.00  0.00     0.013 A 
HETATM   13  C13 UNL     1      26.042   1.466  52.001  1.00  0.00    -0.003 A 
HETATM   14 BR1  UNL     1      26.287   3.357  49.892  1.00  0.00    -0.051 Br
ENDBRANCH   8   9
ENDBRANCH   5   8
ENDBRANCH   3   5
BRANCH   2  15
HETATM   15  C2  UNL     1      20.212   1.159  51.683  1.00  0.00     0.142 C 
BRANCH  15  16
HETATM   16  C3  UNL     1      20.887   0.472  52.813  1.00  0.00    -0.049 A 
HETATM   17  C4  UNL     1      20.558   0.472  54.147  1.00  0.00     0.011 A 
HETATM   18  C5  UNL     1      21.333  -0.298  55.015  1.00  0.00     0.043 A 
HETATM   19  C6  UNL     1      22.401  -1.043  54.576  1.00  0.00     0.116 A 
HETATM   20  F1  UNL     1      23.125  -1.783  55.438  1.00  0.00    -0.206 F 
HETATM   21  C7  UNL     1      22.765  -1.071  53.246  1.00  0.00     0.043 A 
HETATM   22  C8  UNL     1      21.986  -0.300  52.391  1.00  0.00     0.011 A 
ENDBRANCH  15  16
ENDBRANCH   2  15
TORSDOF 5
ENDMDL
MODEL 5
REMARK VINA RESULT:      -7.3      1.805      2.307
REMARK  5 active torsions:
REMARK  status: ('A' for Active; 'I' for Inactive)
REMARK    1  A    between atoms: C1_2  and  C2_3 
REMARK       I    between atoms: C1_2  and  N1_11 
REMARK    2  A    between atoms: C2_3  and  C3_4 
REMARK    3  A    between atoms: N1_11  and  S1_12 
REMARK    4  A    between atoms: S1_12  and  C9_15 
REMARK    5  A    between atoms: C9_15  and  C10_16 
ROOT
HETATM    1  O1  UNL     1      24.396   3.662  52.249  1.00  0.00    -0.272 OA
HETATM    2  C1  UNL     1      24.765   2.834  51.345  1.00  0.00     0.235 C 
HETATM    3  N1  UNL     1      23.780   2.118  50.566  1.00  0.00    -0.254 N 
HETATM    4  H7  UNL     1      24.104   1.439  49.812  1.00  0.00     0.181 HD
ENDROOT
BRANCH   3   5
HETATM    5  S1  UNL     1      22.061   2.036  50.474  1.00  0.00     0.236 S 
HETATM    6  O2  UNL     1      21.533   3.283  49.812  1.00  0.00    -0.205 OA
HETATM    7  O3  UNL     1      21.609   0.805  49.759  1.00  0.00    -0.205 OA
BRANCH   5   8
HETATM    8  C9  UNL     1      21.355   2.001  52.115  1.00  0.00     0.191 C 
BRANCH   8   9
HETATM    9  C10 UNL     1      22.135   1.088  52.985  1.00  0.00    -0.002 C 
HETATM   10  C11 UNL     1      21.953  -0.037  53.634  1.00  0.00    -0.040 A 
HETATM   11  C12 UNL     1      22.538  -1.083  54.513  1.00  0.00     0.068 A 
HETATM   12  C14 UNL     1      20.664  -0.761  53.682  1.00  0.00     0.013 A 
HETATM   13  C13 UNL     1      21.201  -1.680  54.463  1.00  0.00    -0.003 A 
HETATM   14 BR1  UNL     1      18.833  -0.843  53.130  1.00  0.00    -0.051 Br
ENDBRANCH   8   9
ENDBRANCH   5   8
ENDBRANCH   3   5
BRANCH   2  15
HETATM   15  C2  UNL     1      26.144   2.507  50.971  1.00  0.00     0.142 C 
BRANCH  15  16
HETATM   16  C3  UNL     1      26.785   1.568  51.927  1.00  0.00    -0.049 A 
HETATM   17  C4  UNL     1      26.649   0.205  52.024  1.00  0.00     0.011 A 
HETATM   18  C5  UNL     1      27.401  -0.464  52.990  1.00  0.00     0.043 A 
HETATM   19  C6  UNL     1      28.259   0.197  53.836  1.00  0.00     0.116 A 
HETATM   20  F1  UNL     1      28.978  -0.478  54.753  1.00  0.00    -0.206 F 
HETATM   21  C7  UNL     1      28.425   1.565  53.773  1.00  0.00     0.043 A 
HETATM   22  C8  UNL     1      27.670   2.220  52.806  1.00  0.00     0.011 A 
ENDBRANCH  15  16
ENDBRANCH   2  15
TORSDOF 5
ENDMDL
MODEL 6
REMARK VINA RESULT:      -7.3      2.901      5.514
REMARK  5 active torsions:
REMARK  status: ('A' for Active; 'I' for Inactive)
REMARK    1  A    between atoms: C1_2  and  C2_3 
REMARK       I    between atoms: C1_2  and  N1_11 
REMARK    2  A    between atoms: C2_3  and  C3_4 
REMARK    3  A    between atoms: N1_11  and  S1_12 
REMARK    4  A    between atoms: S1_12  and  C9_15 
REMARK    5  A    between atoms: C9_15  and  C10_16 
ROOT
HETATM    1  O1  UNL     1      22.556   4.003  52.631  1.00  0.00    -0.272 OA
HETATM    2  C1  UNL     1      22.548   2.975  51.869  1.00  0.00     0.235 C 
HETATM    3  N1  UNL     1      23.594   2.783  50.890  1.00  0.00    -0.254 N 
HETATM    4  H7  UNL     1      23.576   1.917  50.269  1.00  0.00     0.181 HD
ENDROOT
BRANCH   3   5
HETATM    5  S1  UNL     1      25.014   3.618  50.382  1.00  0.00     0.236 S 
HETATM    6  O2  UNL     1      25.215   3.411  48.902  1.00  0.00    -0.205 OA
HETATM    7  O3  UNL     1      24.950   5.069  50.727  1.00  0.00    -0.205 OA
BRANCH   5   8
HETATM    8  C9  UNL     1      26.455   2.931  51.185  1.00  0.00     0.191 C 
BRANCH   8   9
HETATM    9  C10 UNL     1      26.296   1.466  51.349  1.00  0.00    -0.002 C 
HETATM   10  C11 UNL     1      26.788   0.506  52.096  1.00  0.00    -0.040 A 
HETATM   11  C12 UNL     1      26.790  -0.941  52.432  1.00  0.00     0.068 A 
HETATM   12  C14 UNL     1      27.846   0.712  53.109  1.00  0.00     0.013 A 
HETATM   13  C13 UNL     1      27.834  -0.578  53.392  1.00  0.00    -0.003 A 
HETATM   14 BR1  UNL     1      29.018   1.935  54.000  1.00  0.00    -0.051 Br
ENDBRANCH   8   9
ENDBRANCH   5   8
ENDBRANCH   3   5
BRANCH   2  15
HETATM   15  C2  UNL     1      21.556   1.894  51.871  1.00  0.00     0.142 C 
BRANCH  15  16
HETATM   16  C3  UNL     1      21.780   0.921  52.970  1.00  0.00    -0.049 A 
HETATM   17  C4  UNL     1      20.914   0.518  53.958  1.00  0.00     0.011 A 
HETATM   18  C5  UNL     1      21.352  -0.455  54.859  1.00  0.00     0.043 A 
HETATM   19  C6  UNL     1      22.608  -1.008  54.784  1.00  0.00     0.116 A 
HETATM   20  F1  UNL     1      22.998  -1.951  55.663  1.00  0.00    -0.206 F 
HETATM   21  C7  UNL     1      23.506  -0.632  53.808  1.00  0.00     0.043 A 
HETATM   22  C8  UNL     1      23.060   0.337  52.918  1.00  0.00     0.011 A 
ENDBRANCH  15  16
ENDBRANCH   2  15
TORSDOF 5
ENDMDL
MODEL 7
REMARK VINA RESULT:      -7.2      4.126      6.082
REMARK  5 active torsions:
REMARK  status: ('A' for Active; 'I' for Inactive)
REMARK    1  A    between atoms: C1_2  and  C2_3 
REMARK       I    between atoms: C1_2  and  N1_11 
REMARK    2  A    between atoms: C2_3  and  C3_4 
REMARK    3  A    between atoms: N1_11  and  S1_12 
REMARK    4  A    between atoms: S1_12  and  C9_15 
REMARK    5  A    between atoms: C9_15  and  C10_16 
ROOT
HETATM    1  O1  UNL     1      23.151   2.852  51.120  1.00  0.00    -0.272 OA
HETATM    2  C1  UNL     1      23.888   3.413  52.004  1.00  0.00     0.235 C 
HETATM    3  N1  UNL     1      24.214   4.818  51.897  1.00  0.00    -0.254 N 
HETATM    4  H7  UNL     1      24.822   5.271  52.646  1.00  0.00     0.181 HD
ENDROOT
BRANCH   3   5
HETATM    5  S1  UNL     1      23.869   6.114  50.816  1.00  0.00     0.236 S 
HETATM    6  O2  UNL     1      22.398   6.440  50.877  1.00  0.00    -0.205 OA
HETATM    7  O3  UNL     1      24.706   7.314  51.113  1.00  0.00    -0.205 OA
BRANCH   5   8
HETATM    8  C9  UNL     1      24.204   5.621  49.131  1.00  0.00     0.191 C 
BRANCH   8   9
HETATM    9  C10 UNL     1      25.565   5.039  49.033  1.00  0.00    -0.002 C 
HETATM   10  C11 UNL     1      26.773   5.427  48.703  1.00  0.00    -0.040 A 
HETATM   11  C12 UNL     1      28.203   5.060  48.537  1.00  0.00     0.068 A 
HETATM   12  C14 UNL     1      27.098   6.788  48.224  1.00  0.00     0.013 A 
HETATM   13  C13 UNL     1      28.364   6.443  48.082  1.00  0.00    -0.003 A 
HETATM   14 BR1  UNL     1      26.474   8.549  47.807  1.00  0.00    -0.051 Br
ENDBRANCH   8   9
ENDBRANCH   5   8
ENDBRANCH   3   5
BRANCH   2  15
HETATM   15  C2  UNL     1      24.471   2.775  53.189  1.00  0.00     0.142 C 
BRANCH  15  16
HETATM   16  C3  UNL     1      25.225   1.541  52.855  1.00  0.00    -0.049 A 
HETATM   17  C4  UNL     1      26.270   1.375  51.977  1.00  0.00     0.011 A 
HETATM   18  C5  UNL     1      26.846   0.108  51.873  1.00  0.00     0.043 A 
HETATM   19  C6  UNL     1      26.401  -0.961  52.612  1.00  0.00     0.116 A 
HETATM   20  F1  UNL     1      26.984  -2.169  52.495  1.00  0.00    -0.206 F 
HETATM   21  C7  UNL     1      25.356  -0.838  53.504  1.00  0.00     0.043 A 
HETATM   22  C8  UNL     1      24.790   0.428  53.599  1.00  0.00     0.011 A 
ENDBRANCH  15  16
ENDBRANCH   2  15
TORSDOF 5
ENDMDL
MODEL 8
REMARK VINA RESULT:      -7.2      3.519      5.288
REMARK  5 active torsions:
REMARK  status: ('A' for Active; 'I' for Inactive)
REMARK    1  A    between atoms: C1_2  and  C2_3 
REMARK       I    between atoms: C1_2  and  N1_11 
REMARK    2  A    between atoms: C2_3  and  C3_4 
REMARK    3  A    between atoms: N1_11  and  S1_12 
REMARK    4  A    between atoms: S1_12  and  C9_15 
REMARK    5  A    between atoms: C9_15  and  C10_16 
ROOT
HETATM    1  O1  UNL     1      24.755   1.363  51.770  1.00  0.00    -0.272 OA
HETATM    2  C1  UNL     1      25.163   2.262  52.586  1.00  0.00     0.235 C 
HETATM    3  N1  UNL     1      24.821   3.650  52.372  1.00  0.00    -0.254 N 
HETATM    4  H7  UNL     1      25.163   4.384  53.065  1.00  0.00     0.181 HD
ENDROOT
BRANCH   3   5
HETATM    5  S1  UNL     1      23.926   4.566  51.219  1.00  0.00     0.236 S 
HETATM    6  O2  UNL     1      22.453   4.324  51.421  1.00  0.00    -0.205 OA
HETATM    7  O3  UNL     1      24.256   6.020  51.299  1.00  0.00    -0.205 OA
BRANCH   5   8
HETATM    8  C9  UNL     1      24.304   4.013  49.562  1.00  0.00     0.191 C 
BRANCH   8   9
HETATM    9  C10 UNL     1      25.772   4.008  49.351  1.00  0.00    -0.002 C 
HETATM   10  C11 UNL     1      26.703   4.833  48.937  1.00  0.00    -0.040 A 
HETATM   11  C12 UNL     1      28.146   5.052  48.656  1.00  0.00     0.068 A 
HETATM   12  C14 UNL     1      26.433   6.207  48.460  1.00  0.00     0.013 A 
HETATM   13  C13 UNL     1      27.719   6.382  48.216  1.00  0.00    -0.003 A 
HETATM   14 BR1  UNL     1      25.141   7.578  48.124  1.00  0.00    -0.051 Br
ENDBRANCH   8   9
ENDBRANCH   5   8
ENDBRANCH   3   5
BRANCH   2  15
HETATM   15  C2  UNL     1      25.973   2.046  53.789  1.00  0.00     0.142 C 
BRANCH  15  16
HETATM   16  C3  UNL     1      26.939   0.929  53.630  1.00  0.00    -0.049 A 
HETATM   17  C4  UNL     1      26.703  -0.372  53.254  1.00  0.00     0.011 A 
HETATM   18  C5  UNL     1      27.797  -1.230  53.133  1.00  0.00     0.043 A 
HETATM   19  C6  UNL     1      29.084  -0.813  53.378  1.00  0.00     0.116 A 
HETATM   20  F1  UNL     1      30.119  -1.663  53.244  1.00  0.00    -0.206 F 
HETATM   21  C7  UNL     1      29.364   0.483  53.757  1.00  0.00     0.043 A 
HETATM   22  C8  UNL     1      28.266   1.328  53.875  1.00  0.00     0.011 A 
ENDBRANCH  15  16
ENDBRANCH   2  15
TORSDOF 5
ENDMDL
MODEL 9
REMARK VINA RESULT:      -7.1      2.351      3.015
REMARK  5 active torsions:
REMARK  status: ('A' for Active; 'I' for Inactive)
REMARK    1  A    between atoms: C1_2  and  C2_3 
REMARK       I    between atoms: C1_2  and  N1_11 
REMARK    2  A    between atoms: C2_3  and  C3_4 
REMARK    3  A    between atoms: N1_11  and  S1_12 
REMARK    4  A    between atoms: S1_12  and  C9_15 
REMARK    5  A    between atoms: C9_15  and  C10_16 
ROOT
HETATM    1  O1  UNL     1      24.667   2.238  53.277  1.00  0.00    -0.272 OA
HETATM    2  C1  UNL     1      24.222   1.048  53.118  1.00  0.00     0.235 C 
HETATM    3  N1  UNL     1      23.216   0.773  52.116  1.00  0.00    -0.254 N 
HETATM    4  H7  UNL     1      22.863  -0.224  51.992  1.00  0.00     0.181 HD
ENDROOT
BRANCH   3   5
HETATM    5  S1  UNL     1      22.335   1.666  50.935  1.00  0.00     0.236 S 
HETATM    6  O2  UNL     1      23.184   2.805  50.431  1.00  0.00    -0.205 OA
HETATM    7  O3  UNL     1      21.876   0.790  49.816  1.00  0.00    -0.205 OA
BRANCH   5   8
HETATM    8  C9  UNL     1      20.886   2.409  51.674  1.00  0.00     0.191 C 
BRANCH   8   9
HETATM    9  C10 UNL     1      19.698   1.555  51.431  1.00  0.00    -0.002 C 
HETATM   10  C11 UNL     1      19.106   0.524  51.985  1.00  0.00    -0.040 A 
HETATM   11  C12 UNL     1      17.981  -0.445  51.938  1.00  0.00     0.068 A 
HETATM   12  C14 UNL     1      19.617  -0.173  53.184  1.00  0.00     0.013 A 
HETATM   13  C13 UNL     1      18.611  -1.026  53.125  1.00  0.00    -0.003 A 
HETATM   14 BR1  UNL     1      20.958  -0.279  54.546  1.00  0.00    -0.051 Br
ENDBRANCH   8   9
ENDBRANCH   5   8
ENDBRANCH   3   5
BRANCH   2  15
HETATM   15  C2  UNL     1      24.637  -0.146  53.861  1.00  0.00     0.142 C 
BRANCH  15  16
HETATM   16  C3  UNL     1      26.094  -0.408  53.746  1.00  0.00    -0.049 A 
HETATM   17  C4  UNL     1      26.771  -1.128  52.791  1.00  0.00     0.011 A 
HETATM   18  C5  UNL     1      28.163  -1.190  52.879  1.00  0.00     0.043 A 
HETATM   19  C6  UNL     1      28.861  -0.561  53.882  1.00  0.00     0.116 A 
HETATM   20  F1  UNL     1      30.205  -0.633  53.935  1.00  0.00    -0.206 F 
HETATM   21  C7  UNL     1      28.221   0.172  54.859  1.00  0.00     0.043 A 
HETATM   22  C8  UNL     1      26.835   0.226  54.761  1.00  0.00     0.011 A 
ENDBRANCH  15  16
ENDBRANCH   2  15
TORSDOF 5
ENDMDL
