MODEL 1
REMARK VINA RESULT:      -7.4      0.000      0.000
REMARK  6 active torsions:
REMARK  status: ('A' for Active; 'I' for Inactive)
REMARK    1  A    between atoms: O1_2  and  C2_3 
REMARK    2  A    between atoms: C3_5  and  C4_6 
REMARK    3  A    between atoms: C5_7  and  C7_10 
REMARK    4  A    between atoms: C7_10  and  C8_12 
REMARK    5  A    between atoms: C12_18  and  O2_19 
REMARK    6  A    between atoms: C13_20  and  O3_21 
ROOT
HETATM    1  C4  UNL     1      22.758   0.405  52.639  1.00  0.00     0.056 C 
HETATM    2  C5  UNL     1      21.875  -0.175  53.441  1.00  0.00     0.073 C 
HETATM    3  C6  UNL     1      22.397  -0.842  54.627  1.00  0.00     0.101 C 
HETATM    4  N2  UNL     1      22.825  -1.353  55.569  1.00  0.00    -0.191 NA
ENDROOT
BRANCH   2   5
HETATM    5  C7  UNL     1      20.410  -0.176  53.194  1.00  0.00     0.078 C 
HETATM    6  N3  UNL     1      19.688  -0.832  54.036  1.00  0.00    -0.301 NA
HETATM    7  H5  UNL     1      20.222  -1.293  54.804  1.00  0.00     0.186 HD
BRANCH   5   8
HETATM    8  C8  UNL     1      19.950   0.575  52.004  1.00  0.00     0.251 C 
HETATM    9  C9  UNL     1      18.669   0.006  51.554  1.00  0.00     0.085 C 
HETATM   10  N4  UNL     1      17.667  -0.427  51.187  1.00  0.00    -0.195 NA
HETATM   11  C10 UNL     1      19.822   1.999  52.293  1.00  0.00     0.085 C 
HETATM   12  N5  UNL     1      19.740   3.126  52.518  1.00  0.00    -0.195 NA
ENDBRANCH   5   8
ENDBRANCH   2   5
BRANCH   1  13
HETATM   13  C3  UNL     1      24.163   0.321  53.011  1.00  0.00     0.064 A 
HETATM   14  N1  UNL     1      24.935  -0.807  53.089  1.00  0.00    -0.223 NA
HETATM   15  C2  UNL     1      26.221  -0.684  53.475  1.00  0.00     0.201 A 
HETATM   16  C13 UNL     1      26.849   0.491  53.809  1.00  0.00     0.152 A 
HETATM   17  C12 UNL     1      26.077   1.659  53.737  1.00  0.00     0.105 A 
HETATM   18  C11 UNL     1      24.748   1.532  53.338  1.00  0.00     0.071 A 
BRANCH  15  19
HETATM   19  O1  UNL     1      27.022  -1.801  53.562  1.00  0.00    -0.337 OA
HETATM   20  C1  UNL     1      27.508  -2.559  52.477  1.00  0.00     0.211 C 
ENDBRANCH  15  19
BRANCH  16  21
HETATM   21  O3  UNL     1      28.178   0.562  54.201  1.00  0.00    -0.354 OA
HETATM   22  H9  UNL     1      28.865   1.074  53.653  1.00  0.00     0.218 HD
ENDBRANCH  16  21
BRANCH  17  23
HETATM   23  O2  UNL     1      26.702   2.860  54.072  1.00  0.00    -0.358 OA
HETATM   24  H8  UNL     1      26.545   3.663  53.467  1.00  0.00     0.217 HD
ENDBRANCH  17  23
ENDBRANCH   1  13
TORSDOF 6
ENDMDL
MODEL 2
REMARK VINA RESULT:      -7.4      1.784      3.100
REMARK  6 active torsions:
REMARK  status: ('A' for Active; 'I' for Inactive)
REMARK    1  A    between atoms: O1_2  and  C2_3 
REMARK    2  A    between atoms: C3_5  and  C4_6 
REMARK    3  A    between atoms: C5_7  and  C7_10 
REMARK    4  A    between atoms: C7_10  and  C8_12 
REMARK    5  A    between atoms: C12_18  and  O2_19 
REMARK    6  A    between atoms: C13_20  and  O3_21 
ROOT
HETATM    1  C4  UNL     1      24.658  -0.310  52.836  1.00  0.00     0.056 C 
HETATM    2  C5  UNL     1      23.859  -0.538  53.870  1.00  0.00     0.073 C 
HETATM    3  C6  UNL     1      24.494  -0.925  55.123  1.00  0.00     0.101 C 
HETATM    4  N2  UNL     1      25.013  -1.217  56.112  1.00  0.00    -0.191 NA
ENDROOT
BRANCH   2   5
HETATM    5  C7  UNL     1      22.379  -0.419  53.813  1.00  0.00     0.078 C 
HETATM    6  N3  UNL     1      21.731  -0.841  54.843  1.00  0.00    -0.301 NA
HETATM    7  H5  UNL     1      22.327  -1.223  55.609  1.00  0.00     0.186 HD
BRANCH   5   8
HETATM    8  C8  UNL     1      21.821   0.169  52.574  1.00  0.00     0.251 C 
HETATM    9  C9  UNL     1      20.367  -0.062  52.557  1.00  0.00     0.085 C 
HETATM   10  N4  UNL     1      19.229  -0.235  52.526  1.00  0.00    -0.195 NA
HETATM   11  C10 UNL     1      22.130   1.591  52.476  1.00  0.00     0.085 C 
HETATM   12  N5  UNL     1      22.392   2.710  52.391  1.00  0.00    -0.195 NA
ENDBRANCH   5   8
ENDBRANCH   2   5
BRANCH   1  13
HETATM   13  C3  UNL     1      26.091  -0.469  53.043  1.00  0.00     0.064 A 
HETATM   14  N1  UNL     1      26.993   0.504  53.381  1.00  0.00    -0.223 NA
HETATM   15  C2  UNL     1      28.291   0.163  53.509  1.00  0.00     0.201 A 
HETATM   16  C13 UNL     1      28.811  -1.096  53.328  1.00  0.00     0.152 A 
HETATM   17  C12 UNL     1      27.904  -2.107  52.982  1.00  0.00     0.105 A 
HETATM   18  C11 UNL     1      26.563  -1.755  52.849  1.00  0.00     0.071 A 
BRANCH  15  19
HETATM   19  O1  UNL     1      29.223   1.119  53.848  1.00  0.00    -0.337 OA
HETATM   20  C1  UNL     1      29.046   2.515  53.762  1.00  0.00     0.211 C 
ENDBRANCH  15  19
BRANCH  16  21
HETATM   21  O3  UNL     1      30.159  -1.393  53.473  1.00  0.00    -0.354 OA
HETATM   22  H9  UNL     1      30.512  -1.860  54.305  1.00  0.00     0.218 HD
ENDBRANCH  16  21
BRANCH  17  23
HETATM   23  O2  UNL     1      28.418  -3.390  52.796  1.00  0.00    -0.358 OA
HETATM   24  H8  UNL     1      27.757  -4.156  52.685  1.00  0.00     0.217 HD
ENDBRANCH  17  23
ENDBRANCH   1  13
TORSDOF 6
ENDMDL
MODEL 3
REMARK VINA RESULT:      -7.2      4.057      7.241
REMARK  6 active torsions:
REMARK  status: ('A' for Active; 'I' for Inactive)
REMARK    1  A    between atoms: O1_2  and  C2_3 
REMARK    2  A    between atoms: C3_5  and  C4_6 
REMARK    3  A    between atoms: C5_7  and  C7_10 
REMARK    4  A    between atoms: C7_10  and  C8_12 
REMARK    5  A    between atoms: C12_18  and  O2_19 
REMARK    6  A    between atoms: C13_20  and  O3_21 
ROOT
HETATM    1  C4  UNL     1      24.622   1.128  53.071  1.00  0.00     0.056 C 
HETATM    2  C5  UNL     1      25.939   1.104  52.914  1.00  0.00     0.073 C 
HETATM    3  C6  UNL     1      26.496   1.964  51.876  1.00  0.00     0.101 C 
HETATM    4  N2  UNL     1      26.923   2.660  51.061  1.00  0.00    -0.191 NA
ENDROOT
BRANCH   2   5
HETATM    5  C7  UNL     1      26.855   0.266  53.730  1.00  0.00     0.078 C 
HETATM    6  N3  UNL     1      26.311  -0.430  54.667  1.00  0.00    -0.301 NA
HETATM    7  H5  UNL     1      25.276  -0.324  54.747  1.00  0.00     0.186 HD
BRANCH   5   8
HETATM    8  C8  UNL     1      28.290   0.331  53.371  1.00  0.00     0.251 C 
HETATM    9  C9  UNL     1      28.943   1.336  54.225  1.00  0.00     0.085 C 
HETATM   10  N4  UNL     1      29.471   2.120  54.884  1.00  0.00    -0.195 NA
HETATM   11  C10 UNL     1      28.929  -0.973  53.507  1.00  0.00     0.085 C 
HETATM   12  N5  UNL     1      29.428  -2.007  53.596  1.00  0.00    -0.195 NA
ENDBRANCH   5   8
ENDBRANCH   2   5
BRANCH   1  13
HETATM   13  C3  UNL     1      23.854   2.000  52.195  1.00  0.00     0.064 A 
HETATM   14  N1  UNL     1      23.381   1.711  50.943  1.00  0.00    -0.223 NA
HETATM   15  C2  UNL     1      22.702   2.665  50.273  1.00  0.00     0.201 A 
HETATM   16  C13 UNL     1      22.434   3.931  50.734  1.00  0.00     0.152 A 
HETATM   17  C12 UNL     1      22.910   4.248  52.014  1.00  0.00     0.105 A 
HETATM   18  C11 UNL     1      23.611   3.263  52.706  1.00  0.00     0.071 A 
BRANCH  15  19
HETATM   19  O1  UNL     1      22.214   2.403  49.012  1.00  0.00    -0.337 OA
HETATM   20  C1  UNL     1      21.516   1.244  48.619  1.00  0.00     0.211 C 
ENDBRANCH  15  19
BRANCH  16  21
HETATM   21  O3  UNL     1      21.729   4.876  50.003  1.00  0.00    -0.354 OA
HETATM   22  H9  UNL     1      21.749   5.862  50.252  1.00  0.00     0.218 HD
ENDBRANCH  16  21
BRANCH  17  23
HETATM   23  O2  UNL     1      22.643   5.530  52.495  1.00  0.00    -0.358 OA
HETATM   24  H8  UNL     1      22.548   6.283  51.816  1.00  0.00     0.217 HD
ENDBRANCH  17  23
ENDBRANCH   1  13
TORSDOF 6
ENDMDL
MODEL 4
REMARK VINA RESULT:      -7.2      2.760      4.422
REMARK  6 active torsions:
REMARK  status: ('A' for Active; 'I' for Inactive)
REMARK    1  A    between atoms: O1_2  and  C2_3 
REMARK    2  A    between atoms: C3_5  and  C4_6 
REMARK    3  A    between atoms: C5_7  and  C7_10 
REMARK    4  A    between atoms: C7_10  and  C8_12 
REMARK    5  A    between atoms: C12_18  and  O2_19 
REMARK    6  A    between atoms: C13_20  and  O3_21 
ROOT
HETATM    1  C4  UNL     1      24.409   0.987  52.732  1.00  0.00     0.056 C 
HETATM    2  C5  UNL     1      24.409   1.935  51.804  1.00  0.00     0.073 C 
HETATM    3  C6  UNL     1      25.703   2.328  51.261  1.00  0.00     0.101 C 
HETATM    4  N2  UNL     1      26.734   2.618  50.830  1.00  0.00    -0.191 NA
ENDROOT
BRANCH   2   5
HETATM    5  C7  UNL     1      23.179   2.600  51.301  1.00  0.00     0.078 C 
HETATM    6  N3  UNL     1      22.756   2.222  50.144  1.00  0.00    -0.301 NA
HETATM    7  H5  UNL     1      23.333   1.483  49.688  1.00  0.00     0.186 HD
BRANCH   5   8
HETATM    8  C8  UNL     1      22.584   3.625  52.189  1.00  0.00     0.251 C 
HETATM    9  C9  UNL     1      22.953   4.958  51.683  1.00  0.00     0.085 C 
HETATM   10  N4  UNL     1      23.232   6.008  51.302  1.00  0.00    -0.195 NA
HETATM   11  C10 UNL     1      21.136   3.475  52.275  1.00  0.00     0.085 C 
HETATM   12  N5  UNL     1      19.994   3.343  52.356  1.00  0.00    -0.195 NA
ENDBRANCH   5   8
ENDBRANCH   2   5
BRANCH   1  13
HETATM   13  C3  UNL     1      25.695   0.429  53.125  1.00  0.00     0.064 A 
HETATM   14  N1  UNL     1      26.649   1.019  53.911  1.00  0.00    -0.223 NA
HETATM   15  C2  UNL     1      27.794   0.347  54.149  1.00  0.00     0.201 A 
HETATM   16  C13 UNL     1      28.106  -0.901  53.667  1.00  0.00     0.152 A 
HETATM   17  C12 UNL     1      27.143  -1.523  52.860  1.00  0.00     0.105 A 
HETATM   18  C11 UNL     1      25.960  -0.829  52.614  1.00  0.00     0.071 A 
BRANCH  15  19
HETATM   19  O1  UNL     1      28.773   0.913  54.935  1.00  0.00    -0.337 OA
HETATM   20  C1  UNL     1      29.571   2.023  54.593  1.00  0.00     0.211 C 
ENDBRANCH  15  19
BRANCH  16  21
HETATM   21  O3  UNL     1      29.301  -1.549  53.943  1.00  0.00    -0.354 OA
HETATM   22  H9  UNL     1      29.476  -1.976  54.850  1.00  0.00     0.218 HD
ENDBRANCH  16  21
BRANCH  17  23
HETATM   23  O2  UNL     1      27.446  -2.791  52.365  1.00  0.00    -0.358 OA
HETATM   24  H8  UNL     1      27.792  -3.488  53.021  1.00  0.00     0.217 HD
ENDBRANCH  17  23
ENDBRANCH   1  13
TORSDOF 6
ENDMDL
MODEL 5
REMARK VINA RESULT:      -7.1      2.142      3.455
REMARK  6 active torsions:
REMARK  status: ('A' for Active; 'I' for Inactive)
REMARK    1  A    between atoms: O1_2  and  C2_3 
REMARK    2  A    between atoms: C3_5  and  C4_6 
REMARK    3  A    between atoms: C5_7  and  C7_10 
REMARK    4  A    between atoms: C7_10  and  C8_12 
REMARK    5  A    between atoms: C12_18  and  O2_19 
REMARK    6  A    between atoms: C13_20  and  O3_21 
ROOT
HETATM    1  C4  UNL     1      24.343  -0.446  53.477  1.00  0.00     0.056 C 
HETATM    2  C5  UNL     1      23.870   0.476  52.648  1.00  0.00     0.073 C 
HETATM    3  C6  UNL     1      24.849   1.306  51.956  1.00  0.00     0.101 C 
HETATM    4  N2  UNL     1      25.636   1.945  51.405  1.00  0.00    -0.191 NA
ENDROOT
BRANCH   2   5
HETATM    5  C7  UNL     1      22.423   0.697  52.395  1.00  0.00     0.078 C 
HETATM    6  N3  UNL     1      21.610  -0.127  52.961  1.00  0.00    -0.301 NA
HETATM    7  H5  UNL     1      22.068  -0.864  53.541  1.00  0.00     0.186 HD
BRANCH   5   8
HETATM    8  C8  UNL     1      22.083   1.838  51.515  1.00  0.00     0.251 C 
HETATM    9  C9  UNL     1      21.709   1.316  50.190  1.00  0.00     0.085 C 
HETATM   10  N4  UNL     1      21.414   0.925  49.147  1.00  0.00    -0.195 NA
HETATM   11  C10 UNL     1      21.011   2.646  52.085  1.00  0.00     0.085 C 
HETATM   12  N5  UNL     1      20.178   3.294  52.546  1.00  0.00    -0.195 NA
ENDBRANCH   5   8
ENDBRANCH   2   5
BRANCH   1  13
HETATM   13  C3  UNL     1      25.788  -0.543  53.623  1.00  0.00     0.064 A 
HETATM   14  N1  UNL     1      26.622   0.356  54.233  1.00  0.00    -0.223 NA
HETATM   15  C2  UNL     1      27.946   0.098  54.250  1.00  0.00     0.201 A 
HETATM   16  C13 UNL     1      28.555  -1.004  53.702  1.00  0.00     0.152 A 
HETATM   17  C12 UNL     1      27.719  -1.937  53.072  1.00  0.00     0.105 A 
HETATM   18  C11 UNL     1      26.352  -1.671  53.054  1.00  0.00     0.071 A 
BRANCH  15  19
HETATM   19  O1  UNL     1      28.810   0.983  54.856  1.00  0.00    -0.337 OA
HETATM   20  C1  UNL     1      29.330   2.159  54.279  1.00  0.00     0.211 C 
ENDBRANCH  15  19
BRANCH  16  21
HETATM   21  O3  UNL     1      29.925  -1.221  53.748  1.00  0.00    -0.354 OA
HETATM   22  H9  UNL     1      30.584  -0.446  53.776  1.00  0.00     0.218 HD
ENDBRANCH  16  21
BRANCH  17  23
HETATM   23  O2  UNL     1      28.325  -3.062  52.512  1.00  0.00    -0.358 OA
HETATM   24  H8  UNL     1      29.335  -3.151  52.599  1.00  0.00     0.217 HD
ENDBRANCH  17  23
ENDBRANCH   1  13
TORSDOF 6
ENDMDL
MODEL 6
REMARK VINA RESULT:      -7.0      4.148      7.529
REMARK  6 active torsions:
REMARK  status: ('A' for Active; 'I' for Inactive)
REMARK    1  A    between atoms: O1_2  and  C2_3 
REMARK    2  A    between atoms: C3_5  and  C4_6 
REMARK    3  A    between atoms: C5_7  and  C7_10 
REMARK    4  A    between atoms: C7_10  and  C8_12 
REMARK    5  A    between atoms: C12_18  and  O2_19 
REMARK    6  A    between atoms: C13_20  and  O3_21 
ROOT
HETATM    1  C4  UNL     1      24.619   1.207  53.101  1.00  0.00     0.056 C 
HETATM    2  C5  UNL     1      25.933   1.150  52.929  1.00  0.00     0.073 C 
HETATM    3  C6  UNL     1      26.495   1.975  51.866  1.00  0.00     0.101 C 
HETATM    4  N2  UNL     1      26.927   2.644  51.030  1.00  0.00    -0.191 NA
ENDROOT
BRANCH   2   5
HETATM    5  C7  UNL     1      26.840   0.308  53.750  1.00  0.00     0.078 C 
HETATM    6  N3  UNL     1      26.289  -0.373  54.695  1.00  0.00    -0.301 NA
HETATM    7  H5  UNL     1      25.256  -0.253  54.776  1.00  0.00     0.186 HD
BRANCH   5   8
HETATM    8  C8  UNL     1      28.275   0.353  53.388  1.00  0.00     0.251 C 
HETATM    9  C9  UNL     1      28.948   1.336  54.252  1.00  0.00     0.085 C 
HETATM   10  N4  UNL     1      29.491   2.103  54.919  1.00  0.00    -0.195 NA
HETATM   11  C10 UNL     1      28.892  -0.964  53.506  1.00  0.00     0.085 C 
HETATM   12  N5  UNL     1      29.373  -2.007  53.582  1.00  0.00    -0.195 NA
ENDBRANCH   5   8
ENDBRANCH   2   5
BRANCH   1  13
HETATM   13  C3  UNL     1      23.859   2.078  52.216  1.00  0.00     0.064 A 
HETATM   14  N1  UNL     1      23.716   3.437  52.313  1.00  0.00    -0.223 NA
HETATM   15  C2  UNL     1      22.949   4.071  51.403  1.00  0.00     0.201 A 
HETATM   16  C13 UNL     1      22.279   3.473  50.363  1.00  0.00     0.152 A 
HETATM   17  C12 UNL     1      22.412   2.082  50.246  1.00  0.00     0.105 A 
HETATM   18  C11 UNL     1      23.205   1.427  51.186  1.00  0.00     0.071 A 
BRANCH  15  19
HETATM   19  O1  UNL     1      22.786   5.437  51.474  1.00  0.00    -0.337 OA
HETATM   20  C1  UNL     1      23.794   6.402  51.281  1.00  0.00     0.211 C 
ENDBRANCH  15  19
BRANCH  16  21
HETATM   21  O3  UNL     1      21.502   4.174  49.453  1.00  0.00    -0.354 OA
HETATM   22  H9  UNL     1      21.471   3.913  48.470  1.00  0.00     0.218 HD
ENDBRANCH  16  21
BRANCH  17  23
HETATM   23  O2  UNL     1      21.738   1.462  49.193  1.00  0.00    -0.358 OA
HETATM   24  H8  UNL     1      21.152   2.042  48.597  1.00  0.00     0.217 HD
ENDBRANCH  17  23
ENDBRANCH   1  13
TORSDOF 6
ENDMDL
MODEL 7
REMARK VINA RESULT:      -6.8      3.978      5.671
REMARK  6 active torsions:
REMARK  status: ('A' for Active; 'I' for Inactive)
REMARK    1  A    between atoms: O1_2  and  C2_3 
REMARK    2  A    between atoms: C3_5  and  C4_6 
REMARK    3  A    between atoms: C5_7  and  C7_10 
REMARK    4  A    between atoms: C7_10  and  C8_12 
REMARK    5  A    between atoms: C12_18  and  O2_19 
REMARK    6  A    between atoms: C13_20  and  O3_21 
ROOT
HETATM    1  C4  UNL     1      26.283   2.349  50.577  1.00  0.00     0.056 C 
HETATM    2  C5  UNL     1      25.228   3.153  50.625  1.00  0.00     0.073 C 
HETATM    3  C6  UNL     1      24.592   3.329  51.925  1.00  0.00     0.101 C 
HETATM    4  N2  UNL     1      24.108   3.470  52.963  1.00  0.00    -0.191 NA
ENDROOT
BRANCH   2   5
HETATM    5  C7  UNL     1      24.678   3.867  49.445  1.00  0.00     0.078 C 
HETATM    6  N3  UNL     1      23.675   3.312  48.856  1.00  0.00    -0.301 NA
HETATM    7  H5  UNL     1      23.361   2.413  49.281  1.00  0.00     0.186 HD
BRANCH   5   8
HETATM    8  C8  UNL     1      25.350   5.135  49.080  1.00  0.00     0.251 C 
HETATM    9  C9  UNL     1      25.081   6.130  50.131  1.00  0.00     0.085 C 
HETATM   10  N4  UNL     1      24.880   6.922  50.942  1.00  0.00    -0.195 NA
HETATM   11  C10 UNL     1      26.783   4.939  48.893  1.00  0.00     0.085 C 
HETATM   12  N5  UNL     1      27.912   4.778  48.727  1.00  0.00    -0.195 NA
ENDBRANCH   5   8
ENDBRANCH   2   5
BRANCH   1  13
HETATM   13  C3  UNL     1      26.706   1.716  51.818  1.00  0.00     0.064 A 
HETATM   14  N1  UNL     1      26.162   0.608  52.411  1.00  0.00    -0.223 NA
HETATM   15  C2  UNL     1      26.683   0.181  53.579  1.00  0.00     0.201 A 
HETATM   16  C13 UNL     1      27.730   0.763  54.251  1.00  0.00     0.152 A 
HETATM   17  C12 UNL     1      28.302   1.900  53.660  1.00  0.00     0.105 A 
HETATM   18  C11 UNL     1      27.764   2.341  52.454  1.00  0.00     0.071 A 
BRANCH  15  19
HETATM   19  O1  UNL     1      26.158  -0.930  54.200  1.00  0.00    -0.337 OA
HETATM   20  C1  UNL     1      24.927  -0.993  54.885  1.00  0.00     0.211 C 
ENDBRANCH  15  19
BRANCH  16  21
HETATM   21  O3  UNL     1      28.229   0.282  55.452  1.00  0.00    -0.354 OA
HETATM   22  H9  UNL     1      28.365  -0.714  55.609  1.00  0.00     0.218 HD
ENDBRANCH  16  21
BRANCH  17  23
HETATM   23  O2  UNL     1      29.367   2.500  54.331  1.00  0.00    -0.358 OA
HETATM   24  H8  UNL     1      29.156   3.251  54.984  1.00  0.00     0.217 HD
ENDBRANCH  17  23
ENDBRANCH   1  13
TORSDOF 6
ENDMDL
MODEL 8
REMARK VINA RESULT:      -6.7      3.879      5.696
REMARK  6 active torsions:
REMARK  status: ('A' for Active; 'I' for Inactive)
REMARK    1  A    between atoms: O1_2  and  C2_3 
REMARK    2  A    between atoms: C3_5  and  C4_6 
REMARK    3  A    between atoms: C5_7  and  C7_10 
REMARK    4  A    between atoms: C7_10  and  C8_12 
REMARK    5  A    between atoms: C12_18  and  O2_19 
REMARK    6  A    between atoms: C13_20  and  O3_21 
ROOT
HETATM    1  C4  UNL     1      26.112   1.781  51.226  1.00  0.00     0.056 C 
HETATM    2  C5  UNL     1      25.598   3.003  51.188  1.00  0.00     0.073 C 
HETATM    3  C6  UNL     1      24.686   3.369  52.265  1.00  0.00     0.101 C 
HETATM    4  N2  UNL     1      23.977   3.648  53.131  1.00  0.00    -0.191 NA
ENDROOT
BRANCH   2   5
HETATM    5  C7  UNL     1      25.904   3.996  50.127  1.00  0.00     0.078 C 
HETATM    6  N3  UNL     1      27.116   4.015  49.692  1.00  0.00    -0.301 NA
HETATM    7  H5  UNL     1      27.753   3.321  50.141  1.00  0.00     0.186 HD
BRANCH   5   8
HETATM    8  C8  UNL     1      24.777   4.854  49.696  1.00  0.00     0.251 C 
HETATM    9  C9  UNL     1      25.308   5.947  48.864  1.00  0.00     0.085 C 
HETATM   10  N4  UNL     1      25.707   6.809  48.212  1.00  0.00    -0.195 NA
HETATM   11  C10 UNL     1      23.771   4.084  48.974  1.00  0.00     0.085 C 
HETATM   12  N5  UNL     1      22.968   3.470  48.420  1.00  0.00    -0.195 NA
ENDBRANCH   5   8
ENDBRANCH   2   5
BRANCH   1  13
HETATM   13  C3  UNL     1      25.718   0.917  52.329  1.00  0.00     0.064 A 
HETATM   14  N1  UNL     1      24.491   0.347  52.539  1.00  0.00    -0.223 NA
HETATM   15  C2  UNL     1      24.311  -0.412  53.639  1.00  0.00     0.201 A 
HETATM   16  C13 UNL     1      25.262  -0.675  54.595  1.00  0.00     0.152 A 
HETATM   17  C12 UNL     1      26.527  -0.101  54.400  1.00  0.00     0.105 A 
HETATM   18  C11 UNL     1      26.712   0.683  53.264  1.00  0.00     0.071 A 
BRANCH  15  19
HETATM   19  O1  UNL     1      23.089  -0.999  53.877  1.00  0.00    -0.337 OA
HETATM   20  C1  UNL     1      21.839  -0.517  53.438  1.00  0.00     0.211 C 
ENDBRANCH  15  19
BRANCH  16  21
HETATM   21  O3  UNL     1      25.025  -1.466  55.710  1.00  0.00    -0.354 OA
HETATM   22  H9  UNL     1      25.377  -2.418  55.770  1.00  0.00     0.218 HD
ENDBRANCH  16  21
BRANCH  17  23
HETATM   23  O2  UNL     1      27.502  -0.361  55.363  1.00  0.00    -0.358 OA
HETATM   24  H8  UNL     1      27.192  -0.564  56.311  1.00  0.00     0.217 HD
ENDBRANCH  17  23
ENDBRANCH   1  13
TORSDOF 6
ENDMDL
MODEL 9
REMARK VINA RESULT:      -6.6      3.156      4.265
REMARK  6 active torsions:
REMARK  status: ('A' for Active; 'I' for Inactive)
REMARK    1  A    between atoms: O1_2  and  C2_3 
REMARK    2  A    between atoms: C3_5  and  C4_6 
REMARK    3  A    between atoms: C5_7  and  C7_10 
REMARK    4  A    between atoms: C7_10  and  C8_12 
REMARK    5  A    between atoms: C12_18  and  O2_19 
REMARK    6  A    between atoms: C13_20  and  O3_21 
ROOT
HETATM    1  C4  UNL     1      25.137   2.540  53.188  1.00  0.00     0.056 C 
HETATM    2  C5  UNL     1      24.938   3.189  52.048  1.00  0.00     0.073 C 
HETATM    3  C6  UNL     1      25.948   3.024  51.010  1.00  0.00     0.101 C 
HETATM    4  N2  UNL     1      26.748   2.873  50.193  1.00  0.00    -0.191 NA
ENDROOT
BRANCH   2   5
HETATM    5  C7  UNL     1      23.760   4.055  51.784  1.00  0.00     0.078 C 
HETATM    6  N3  UNL     1      24.001   5.305  51.589  1.00  0.00    -0.301 NA
HETATM    7  H5  UNL     1      25.009   5.570  51.639  1.00  0.00     0.186 HD
BRANCH   5   8
HETATM    8  C8  UNL     1      22.443   3.379  51.781  1.00  0.00     0.251 C 
HETATM    9  C9  UNL     1      21.413   4.356  51.389  1.00  0.00     0.085 C 
HETATM   10  N4  UNL     1      20.594   5.107  51.086  1.00  0.00    -0.195 NA
HETATM   11  C10 UNL     1      22.442   2.225  50.888  1.00  0.00     0.085 C 
HETATM   12  N5  UNL     1      22.449   1.304  50.197  1.00  0.00    -0.195 NA
ENDBRANCH   5   8
ENDBRANCH   2   5
BRANCH   1  13
HETATM   13  C3  UNL     1      26.340   1.729  53.301  1.00  0.00     0.064 A 
HETATM   14  N1  UNL     1      26.491   0.415  52.949  1.00  0.00    -0.223 NA
HETATM   15  C2  UNL     1      27.687  -0.174  53.150  1.00  0.00     0.201 A 
HETATM   16  C13 UNL     1      28.797   0.430  53.689  1.00  0.00     0.152 A 
HETATM   17  C12 UNL     1      28.665   1.777  54.057  1.00  0.00     0.105 A 
HETATM   18  C11 UNL     1      27.429   2.385  53.849  1.00  0.00     0.071 A 
BRANCH  15  19
HETATM   19  O1  UNL     1      27.870  -1.495  52.806  1.00  0.00    -0.337 OA
HETATM   20  C1  UNL     1      26.867  -2.383  52.367  1.00  0.00     0.211 C 
ENDBRANCH  15  19
BRANCH  16  21
HETATM   21  O3  UNL     1      30.007  -0.223  53.874  1.00  0.00    -0.354 OA
HETATM   22  H9  UNL     1      30.721  -0.232  53.150  1.00  0.00     0.218 HD
ENDBRANCH  16  21
BRANCH  17  23
HETATM   23  O2  UNL     1      29.785   2.402  54.604  1.00  0.00    -0.358 OA
HETATM   24  H8  UNL     1      29.815   3.420  54.592  1.00  0.00     0.217 HD
ENDBRANCH  17  23
ENDBRANCH   1  13
TORSDOF 6
ENDMDL
