MODEL 1
REMARK VINA RESULT:      -9.7      0.000      0.000
REMARK  7 active torsions:
REMARK  status: ('A' for Active; 'I' for Inactive)
REMARK    1  A    between atoms: O1_1  and  C1_2 
REMARK    2  A    between atoms: N1_7  and  C5_8 
REMARK    3  A    between atoms: C5_8  and  C6_9 
REMARK    4  A    between atoms: C6_9  and  C7_10 
REMARK    5  A    between atoms: C7_10  and  C8_11 
REMARK    6  A    between atoms: C12_17  and  N4_18 
REMARK    7  A    between atoms: N4_18  and  C13_19 
ROOT
HETATM    1  C8  UNL     1      23.088   0.659  52.348  1.00  0.00    -0.047 A 
HETATM    2  C9  UNL     1      22.236   1.217  51.419  1.00  0.00     0.040 A 
HETATM    3  C10 UNL     1      20.907   0.880  51.544  1.00  0.00     0.073 A 
HETATM    4  N2  UNL     1      20.014   1.388  50.662  1.00  0.00    -0.241 NA
HETATM    5  C11 UNL     1      18.709   1.100  50.720  1.00  0.00     0.236 A 
HETATM    6  N3  UNL     1      18.229   0.284  51.667  1.00  0.00    -0.223 NA
HETATM    7  C12 UNL     1      19.088  -0.236  52.555  1.00  0.00     0.142 A 
HETATM    8  C19 UNL     1      20.434   0.038  52.527  1.00  0.00     0.048 A 
HETATM    9  C20 UNL     1      21.246  -0.524  53.453  1.00  0.00    -0.009 A 
HETATM   10  C21 UNL     1      22.585  -0.173  53.312  1.00  0.00    -0.019 A 
HETATM   11  C22 UNL     1      23.333  -0.866  54.388  1.00  0.00     0.207 C 
HETATM   12  O3  UNL     1      22.403  -1.386  55.242  1.00  0.00    -0.382 OA
HETATM   13  C23 UNL     1      21.157  -1.409  54.610  1.00  0.00     0.208 C 
ENDROOT
BRANCH   1  14
HETATM   14  C7  UNL     1      24.534   1.006  52.210  1.00  0.00     0.041 C 
BRANCH  14  15
HETATM   15  C6  UNL     1      24.954   2.080  53.158  1.00  0.00     0.035 C 
BRANCH  15  16
HETATM   16  C5  UNL     1      26.170   1.719  53.967  1.00  0.00     0.276 C 
BRANCH  16  17
HETATM   17  N1  UNL     1      27.056   0.813  53.301  1.00  0.00     0.121 N 
HETATM   18  C1  UNL     1      27.579  -0.096  54.334  1.00  0.00     0.380 C 
HETATM   19  C2  UNL     1      28.830   0.426  54.955  1.00  0.00     0.231 C 
HETATM   20  O2  UNL     1      28.957   1.811  54.938  1.00  0.00    -0.385 OA
HETATM   21  C3  UNL     1      28.784   2.398  53.714  1.00  0.00     0.198 C 
HETATM   22  C4  UNL     1      28.218   1.440  52.724  1.00  0.00     0.301 C 
BRANCH  18  23
HETATM   23  O1  UNL     1      26.634  -0.353  55.316  1.00  0.00    -0.366 OA
HETATM   24  H1  UNL     1      26.262  -1.271  55.297  1.00  0.00     0.212 HD
ENDBRANCH  18  23
ENDBRANCH  16  17
ENDBRANCH  15  16
ENDBRANCH  14  15
ENDBRANCH   1  14
BRANCH   7  25
HETATM   25  N4  UNL     1      18.512  -1.102  53.524  1.00  0.00    -0.340 N 
HETATM   26  H17 UNL     1      18.508  -1.500  54.475  1.00  0.00     0.167 HD
BRANCH  25  27
HETATM   27  C13 UNL     1      17.360  -1.883  53.128  1.00  0.00     0.035 A 
HETATM   28  C14 UNL     1      16.240  -1.567  52.367  1.00  0.00     0.032 A 
HETATM   29  C15 UNL     1      15.223  -2.460  52.115  1.00  0.00     0.046 A 
HETATM   30  C16 UNL     1      15.285  -3.740  52.628  1.00  0.00     0.138 A 
HETATM   31  F1  UNL     1      14.242  -4.534  52.324  1.00  0.00    -0.204 F 
HETATM   32  C17 UNL     1      16.393  -4.090  53.396  1.00  0.00     0.074 A 
HETATM   33 CL1  UNL     1      16.300  -5.747  53.960  1.00  0.00    -0.081 Cl
HETATM   34  C18 UNL     1      17.411  -3.174  53.638  1.00  0.00     0.056 A 
ENDBRANCH  25  27
ENDBRANCH   7  25
TORSDOF 7
ENDMDL
MODEL 2
REMARK VINA RESULT:      -9.5      4.940     10.104
REMARK  7 active torsions:
REMARK  status: ('A' for Active; 'I' for Inactive)
REMARK    1  A    between atoms: O1_1  and  C1_2 
REMARK    2  A    between atoms: N1_7  and  C5_8 
REMARK    3  A    between atoms: C5_8  and  C6_9 
REMARK    4  A    between atoms: C6_9  and  C7_10 
REMARK    5  A    between atoms: C7_10  and  C8_11 
REMARK    6  A    between atoms: C12_17  and  N4_18 
REMARK    7  A    between atoms: N4_18  and  C13_19 
ROOT
HETATM    1  C8  UNL     1      19.815  -0.253  52.631  1.00  0.00    -0.047 A 
HETATM    2  C9  UNL     1      20.232  -0.895  53.778  1.00  0.00     0.040 A 
HETATM    3  C10 UNL     1      21.582  -0.834  54.043  1.00  0.00     0.073 A 
HETATM    4  N2  UNL     1      22.062  -1.445  55.150  1.00  0.00    -0.241 NA
HETATM    5  C11 UNL     1      23.362  -1.431  55.467  1.00  0.00     0.236 A 
HETATM    6  N3  UNL     1      24.251  -0.801  54.688  1.00  0.00    -0.223 NA
HETATM    7  C12 UNL     1      23.805  -0.185  53.583  1.00  0.00     0.142 A 
HETATM    8  C19 UNL     1      22.479  -0.179  53.227  1.00  0.00     0.048 A 
HETATM    9  C20 UNL     1      22.098   0.460  52.096  1.00  0.00    -0.009 A 
HETATM   10  C21 UNL     1      20.731   0.388  51.843  1.00  0.00    -0.019 A 
HETATM   11  C22 UNL     1      20.482   1.125  50.582  1.00  0.00     0.207 C 
HETATM   12  O3  UNL     1      21.635   1.790  50.278  1.00  0.00    -0.382 OA
HETATM   13  C23 UNL     1      22.690   1.245  51.017  1.00  0.00     0.208 C 
ENDROOT
BRANCH   1  14
HETATM   14  C7  UNL     1      18.353  -0.329  52.327  1.00  0.00     0.041 C 
BRANCH  14  15
HETATM   15  C6  UNL     1      17.700  -1.508  52.966  1.00  0.00     0.035 C 
BRANCH  15  16
HETATM   16  C5  UNL     1      16.278  -1.714  52.523  1.00  0.00     0.276 C 
BRANCH  16  17
HETATM   17  N1  UNL     1      15.810  -0.719  51.606  1.00  0.00     0.121 N 
HETATM   18  C1  UNL     1      14.629  -0.098  52.228  1.00  0.00     0.380 C 
HETATM   19  C2  UNL     1      13.369  -0.805  51.861  1.00  0.00     0.231 C 
HETATM   20  O2  UNL     1      13.522  -2.153  51.554  1.00  0.00    -0.385 OA
HETATM   21  C3  UNL     1      14.482  -2.433  50.620  1.00  0.00     0.198 C 
HETATM   22  C4  UNL     1      15.343  -1.247  50.349  1.00  0.00     0.301 C 
BRANCH  18  23
HETATM   23  O1  UNL     1      14.752  -0.034  53.608  1.00  0.00    -0.366 OA
HETATM   24  H1  UNL     1      14.125  -0.619  54.103  1.00  0.00     0.212 HD
ENDBRANCH  18  23
ENDBRANCH  16  17
ENDBRANCH  15  16
ENDBRANCH  14  15
ENDBRANCH   1  14
BRANCH   7  25
HETATM   25  N4  UNL     1      24.804   0.452  52.797  1.00  0.00    -0.340 N 
HETATM   26  H17 UNL     1      25.067   1.140  52.077  1.00  0.00     0.167 HD
BRANCH  25  27
HETATM   27  C13 UNL     1      26.175   0.030  52.982  1.00  0.00     0.035 A 
HETATM   28  C14 UNL     1      26.814  -1.182  52.747  1.00  0.00     0.032 A 
HETATM   29  C15 UNL     1      28.148  -1.396  53.013  1.00  0.00     0.046 A 
HETATM   30  C16 UNL     1      28.919  -0.379  53.539  1.00  0.00     0.138 A 
HETATM   31  F1  UNL     1      30.209  -0.690  53.761  1.00  0.00    -0.204 F 
HETATM   32  C17 UNL     1      28.311   0.849  53.787  1.00  0.00     0.074 A 
HETATM   33 CL1  UNL     1      29.439   2.014  54.451  1.00  0.00    -0.081 Cl
HETATM   34  C18 UNL     1      26.961   1.045  53.511  1.00  0.00     0.056 A 
ENDBRANCH  25  27
ENDBRANCH   7  25
TORSDOF 7
ENDMDL
MODEL 3
REMARK VINA RESULT:      -9.5      4.943      9.453
REMARK  7 active torsions:
REMARK  status: ('A' for Active; 'I' for Inactive)
REMARK    1  A    between atoms: O1_1  and  C1_2 
REMARK    2  A    between atoms: N1_7  and  C5_8 
REMARK    3  A    between atoms: C5_8  and  C6_9 
REMARK    4  A    between atoms: C6_9  and  C7_10 
REMARK    5  A    between atoms: C7_10  and  C8_11 
REMARK    6  A    between atoms: C12_17  and  N4_18 
REMARK    7  A    between atoms: N4_18  and  C13_19 
ROOT
HETATM    1  C8  UNL     1      20.321  -0.090  52.162  1.00  0.00    -0.047 A 
HETATM    2  C9  UNL     1      20.970   0.746  51.277  1.00  0.00     0.040 A 
HETATM    3  C10 UNL     1      22.289   1.015  51.564  1.00  0.00     0.073 A 
HETATM    4  N2  UNL     1      22.987   1.832  50.741  1.00  0.00    -0.241 NA
HETATM    5  C11 UNL     1      24.271   2.142  50.961  1.00  0.00     0.236 A 
HETATM    6  N3  UNL     1      24.922   1.648  52.022  1.00  0.00    -0.223 NA
HETATM    7  C12 UNL     1      24.258   0.836  52.856  1.00  0.00     0.142 A 
HETATM    8  C19 UNL     1      22.941   0.495  52.662  1.00  0.00     0.048 A 
HETATM    9  C20 UNL     1      22.330  -0.327  53.546  1.00  0.00    -0.009 A 
HETATM   10  C21 UNL     1      20.997  -0.589  53.241  1.00  0.00    -0.019 A 
HETATM   11  C22 UNL     1      20.478  -1.491  54.296  1.00  0.00     0.207 C 
HETATM   12  O3  UNL     1      21.556  -1.910  55.023  1.00  0.00    -0.382 OA
HETATM   13  C23 UNL     1      22.641  -1.069  54.764  1.00  0.00     0.208 C 
ENDROOT
BRANCH   1  14
HETATM   14  C7  UNL     1      18.884  -0.375  51.867  1.00  0.00     0.041 C 
BRANCH  14  15
HETATM   15  C6  UNL     1      18.319   0.553  50.843  1.00  0.00     0.035 C 
BRANCH  15  16
HETATM   16  C5  UNL     1      17.299   1.506  51.401  1.00  0.00     0.276 C 
BRANCH  16  17
HETATM   17  N1  UNL     1      16.993   2.599  50.527  1.00  0.00     0.121 N 
HETATM   18  C1  UNL     1      17.331   3.829  51.261  1.00  0.00     0.380 C 
HETATM   19  C2  UNL     1      16.176   4.342  52.052  1.00  0.00     0.231 C 
HETATM   20  O2  UNL     1      15.264   3.372  52.451  1.00  0.00    -0.385 OA
HETATM   21  C3  UNL     1      14.799   2.561  51.452  1.00  0.00     0.198 C 
HETATM   22  C4  UNL     1      15.595   2.723  50.202  1.00  0.00     0.301 C 
BRANCH  18  23
HETATM   23  O1  UNL     1      18.429   3.646  52.090  1.00  0.00    -0.366 OA
HETATM   24  H1  UNL     1      19.029   4.432  52.155  1.00  0.00     0.212 HD
ENDBRANCH  18  23
ENDBRANCH  16  17
ENDBRANCH  15  16
ENDBRANCH  14  15
ENDBRANCH   1  14
BRANCH   7  25
HETATM   25  N4  UNL     1      25.007   0.358  53.966  1.00  0.00    -0.340 N 
HETATM   26  H17 UNL     1      25.057   0.091  54.960  1.00  0.00     0.167 HD
BRANCH  25  27
HETATM   27  C13 UNL     1      26.408   0.064  53.755  1.00  0.00     0.035 A 
HETATM   28  C14 UNL     1      27.053  -1.029  53.188  1.00  0.00     0.032 A 
HETATM   29  C15 UNL     1      28.423  -1.133  53.097  1.00  0.00     0.046 A 
HETATM   30  C16 UNL     1      29.226  -0.120  53.581  1.00  0.00     0.138 A 
HETATM   31  F1  UNL     1      30.550  -0.319  53.444  1.00  0.00    -0.204 F 
HETATM   32  C17 UNL     1      28.613   0.990  54.156  1.00  0.00     0.074 A 
HETATM   33 CL1  UNL     1      29.784   2.168  54.714  1.00  0.00    -0.081 Cl
HETATM   34  C18 UNL     1      27.226   1.076  54.239  1.00  0.00     0.056 A 
ENDBRANCH  25  27
ENDBRANCH   7  25
TORSDOF 7
ENDMDL
MODEL 4
REMARK VINA RESULT:      -9.3      7.149      9.639
REMARK  7 active torsions:
REMARK  status: ('A' for Active; 'I' for Inactive)
REMARK    1  A    between atoms: O1_1  and  C1_2 
REMARK    2  A    between atoms: N1_7  and  C5_8 
REMARK    3  A    between atoms: C5_8  and  C6_9 
REMARK    4  A    between atoms: C6_9  and  C7_10 
REMARK    5  A    between atoms: C7_10  and  C8_11 
REMARK    6  A    between atoms: C12_17  and  N4_18 
REMARK    7  A    between atoms: N4_18  and  C13_19 
ROOT
HETATM    1  C8  UNL     1      25.711   7.149  49.716  1.00  0.00    -0.047 A 
HETATM    2  C9  UNL     1      24.608   7.167  50.544  1.00  0.00     0.040 A 
HETATM    3  C10 UNL     1      24.174   5.940  50.993  1.00  0.00     0.073 A 
HETATM    4  N2  UNL     1      23.094   5.883  51.806  1.00  0.00    -0.241 NA
HETATM    5  C11 UNL     1      22.613   4.726  52.276  1.00  0.00     0.236 A 
HETATM    6  N3  UNL     1      23.193   3.562  51.954  1.00  0.00    -0.223 NA
HETATM    7  C12 UNL     1      24.265   3.586  51.149  1.00  0.00     0.142 A 
HETATM    8  C19 UNL     1      24.786   4.754  50.649  1.00  0.00     0.048 A 
HETATM    9  C20 UNL     1      25.870   4.705  49.839  1.00  0.00    -0.009 A 
HETATM   10  C21 UNL     1      26.295   5.954  49.394  1.00  0.00    -0.019 A 
HETATM   11  C22 UNL     1      27.474   5.728  48.526  1.00  0.00     0.207 C 
HETATM   12  O3  UNL     1      27.837   4.421  48.683  1.00  0.00    -0.382 OA
HETATM   13  C23 UNL     1      26.781   3.718  49.270  1.00  0.00     0.208 C 
ENDROOT
BRANCH   1  14
HETATM   14  C7  UNL     1      26.179   8.475  49.211  1.00  0.00     0.041 C 
BRANCH  14  15
HETATM   15  C6  UNL     1      27.191   9.101  50.111  1.00  0.00     0.035 C 
BRANCH  15  16
HETATM   16  C5  UNL     1      28.336   9.735  49.371  1.00  0.00     0.276 C 
BRANCH  16  17
HETATM   17  N1  UNL     1      29.290   8.793  48.870  1.00  0.00     0.121 N 
HETATM   18  C1  UNL     1      30.619   9.297  49.254  1.00  0.00     0.380 C 
HETATM   19  C2  UNL     1      31.196  10.198  48.216  1.00  0.00     0.231 C 
HETATM   20  O2  UNL     1      30.259  10.864  47.434  1.00  0.00    -0.385 OA
HETATM   21  C3  UNL     1      29.306  10.069  46.859  1.00  0.00     0.198 C 
HETATM   22  C4  UNL     1      29.324   8.693  47.432  1.00  0.00     0.301 C 
BRANCH  18  23
HETATM   23  O1  UNL     1      30.585   9.947  50.480  1.00  0.00    -0.366 OA
HETATM   24  H1  UNL     1      31.431  10.399  50.727  1.00  0.00     0.212 HD
ENDBRANCH  18  23
ENDBRANCH  16  17
ENDBRANCH  15  16
ENDBRANCH  14  15
ENDBRANCH   1  14
BRANCH   7  25
HETATM   25  N4  UNL     1      24.822   2.315  50.839  1.00  0.00    -0.340 N 
HETATM   26  H17 UNL     1      25.027   1.575  50.152  1.00  0.00     0.167 HD
BRANCH  25  27
HETATM   27  C13 UNL     1      25.429   1.566  51.918  1.00  0.00     0.035 A 
HETATM   28  C14 UNL     1      25.011   0.443  52.622  1.00  0.00     0.032 A 
HETATM   29  C15 UNL     1      25.735  -0.118  53.649  1.00  0.00     0.046 A 
HETATM   30  C16 UNL     1      26.941   0.437  54.026  1.00  0.00     0.138 A 
HETATM   31  F1  UNL     1      27.570  -0.186  55.040  1.00  0.00    -0.204 F 
HETATM   32  C17 UNL     1      27.392   1.564  53.343  1.00  0.00     0.074 A 
HETATM   33 CL1  UNL     1      28.934   2.127  53.956  1.00  0.00    -0.081 Cl
HETATM   34  C18 UNL     1      26.645   2.116  52.307  1.00  0.00     0.056 A 
ENDBRANCH  25  27
ENDBRANCH   7  25
TORSDOF 7
ENDMDL
MODEL 5
REMARK VINA RESULT:      -8.9      4.753      9.760
REMARK  7 active torsions:
REMARK  status: ('A' for Active; 'I' for Inactive)
REMARK    1  A    between atoms: O1_1  and  C1_2 
REMARK    2  A    between atoms: N1_7  and  C5_8 
REMARK    3  A    between atoms: C5_8  and  C6_9 
REMARK    4  A    between atoms: C6_9  and  C7_10 
REMARK    5  A    between atoms: C7_10  and  C8_11 
REMARK    6  A    between atoms: C12_17  and  N4_18 
REMARK    7  A    between atoms: N4_18  and  C13_19 
ROOT
HETATM    1  C8  UNL     1      20.315   0.094  52.033  1.00  0.00    -0.047 A 
HETATM    2  C9  UNL     1      20.975   0.923  51.150  1.00  0.00     0.040 A 
HETATM    3  C10 UNL     1      22.296   1.181  51.441  1.00  0.00     0.073 A 
HETATM    4  N2  UNL     1      23.004   1.990  50.620  1.00  0.00    -0.241 NA
HETATM    5  C11 UNL     1      24.289   2.288  50.844  1.00  0.00     0.236 A 
HETATM    6  N3  UNL     1      24.933   1.789  51.907  1.00  0.00    -0.223 NA
HETATM    7  C12 UNL     1      24.258   0.984  52.740  1.00  0.00     0.142 A 
HETATM    8  C19 UNL     1      22.939   0.656  52.541  1.00  0.00     0.048 A 
HETATM    9  C20 UNL     1      22.317  -0.160  53.424  1.00  0.00    -0.009 A 
HETATM   10  C21 UNL     1      20.984  -0.410  53.115  1.00  0.00    -0.019 A 
HETATM   11  C22 UNL     1      20.453  -1.307  54.169  1.00  0.00     0.207 C 
HETATM   12  O3  UNL     1      21.524  -1.735  54.900  1.00  0.00    -0.382 OA
HETATM   13  C23 UNL     1      22.618  -0.904  54.643  1.00  0.00     0.208 C 
ENDROOT
BRANCH   1  14
HETATM   14  C7  UNL     1      18.877  -0.178  51.733  1.00  0.00     0.041 C 
BRANCH  14  15
HETATM   15  C6  UNL     1      18.111   1.070  51.444  1.00  0.00     0.035 C 
BRANCH  15  16
HETATM   16  C5  UNL     1      16.776   0.814  50.800  1.00  0.00     0.276 C 
BRANCH  16  17
HETATM   17  N1  UNL     1      16.246  -0.489  51.072  1.00  0.00     0.121 N 
HETATM   18  C1  UNL     1      15.733  -1.006  49.793  1.00  0.00     0.380 C 
HETATM   19  C2  UNL     1      14.304  -0.641  49.576  1.00  0.00     0.231 C 
HETATM   20  O2  UNL     1      13.896   0.526  50.213  1.00  0.00    -0.385 OA
HETATM   21  C3  UNL     1      14.178   0.591  51.550  1.00  0.00     0.198 C 
HETATM   22  C4  UNL     1      15.114  -0.493  51.964  1.00  0.00     0.301 C 
BRANCH  18  23
HETATM   23  O1  UNL     1      16.500  -0.575  48.721  1.00  0.00    -0.366 OA
HETATM   24  H1  UNL     1      17.045  -1.284  48.295  1.00  0.00     0.212 HD
ENDBRANCH  18  23
ENDBRANCH  16  17
ENDBRANCH  15  16
ENDBRANCH  14  15
ENDBRANCH   1  14
BRANCH   7  25
HETATM   25  N4  UNL     1      24.999   0.501  53.853  1.00  0.00    -0.340 N 
HETATM   26  H17 UNL     1      25.024   0.103  54.803  1.00  0.00     0.167 HD
BRANCH  25  27
HETATM   27  C13 UNL     1      26.443   0.518  53.757  1.00  0.00     0.035 A 
HETATM   28  C14 UNL     1      27.367   1.555  53.824  1.00  0.00     0.032 A 
HETATM   29  C15 UNL     1      28.723   1.367  53.686  1.00  0.00     0.046 A 
HETATM   30  C16 UNL     1      29.227   0.100  53.468  1.00  0.00     0.138 A 
HETATM   31  F1  UNL     1      30.564   0.024  53.347  1.00  0.00    -0.204 F 
HETATM   32  C17 UNL     1      28.329  -0.962  53.395  1.00  0.00     0.074 A 
HETATM   33 CL1  UNL     1      29.144  -2.488  53.115  1.00  0.00    -0.081 Cl
HETATM   34  C18 UNL     1      26.961  -0.752  53.537  1.00  0.00     0.056 A 
ENDBRANCH  25  27
ENDBRANCH   7  25
TORSDOF 7
ENDMDL
MODEL 6
REMARK VINA RESULT:      -8.8      2.865      3.944
REMARK  7 active torsions:
REMARK  status: ('A' for Active; 'I' for Inactive)
REMARK    1  A    between atoms: O1_1  and  C1_2 
REMARK    2  A    between atoms: N1_7  and  C5_8 
REMARK    3  A    between atoms: C5_8  and  C6_9 
REMARK    4  A    between atoms: C6_9  and  C7_10 
REMARK    5  A    between atoms: C7_10  and  C8_11 
REMARK    6  A    between atoms: C12_17  and  N4_18 
REMARK    7  A    between atoms: N4_18  and  C13_19 
ROOT
HETATM    1  C8  UNL     1      23.143   1.009  51.885  1.00  0.00    -0.047 A 
HETATM    2  C9  UNL     1      22.686   0.195  52.900  1.00  0.00     0.040 A 
HETATM    3  C10 UNL     1      21.345  -0.114  52.864  1.00  0.00     0.073 A 
HETATM    4  N2  UNL     1      20.826  -0.905  53.832  1.00  0.00    -0.241 NA
HETATM    5  C11 UNL     1      19.531  -1.243  53.863  1.00  0.00     0.236 A 
HETATM    6  N3  UNL     1      18.686  -0.802  52.922  1.00  0.00    -0.223 NA
HETATM    7  C12 UNL     1      19.170  -0.016  51.949  1.00  0.00     0.142 A 
HETATM    8  C19 UNL     1      20.492   0.350  51.885  1.00  0.00     0.048 A 
HETATM    9  C20 UNL     1      20.913   1.149  50.877  1.00  0.00    -0.009 A 
HETATM   10  C21 UNL     1      22.270   1.452  50.929  1.00  0.00    -0.019 A 
HETATM   11  C22 UNL     1      22.566   2.328  49.771  1.00  0.00     0.207 C 
HETATM   12  O3  UNL     1      21.461   2.309  48.969  1.00  0.00    -0.382 OA
HETATM   13  C23 UNL     1      20.374   1.813  49.694  1.00  0.00     0.208 C 
ENDROOT
BRANCH   1  14
HETATM   14  C7  UNL     1      24.594   1.363  51.926  1.00  0.00     0.041 C 
BRANCH  14  15
HETATM   15  C6  UNL     1      24.932   2.241  53.084  1.00  0.00     0.035 C 
BRANCH  15  16
HETATM   16  C5  UNL     1      26.044   1.698  53.939  1.00  0.00     0.276 C 
BRANCH  16  17
HETATM   17  N1  UNL     1      26.923   0.807  53.243  1.00  0.00     0.121 N 
HETATM   18  C1  UNL     1      27.427  -0.148  54.243  1.00  0.00     0.380 C 
HETATM   19  C2  UNL     1      28.681   0.332  54.891  1.00  0.00     0.231 C 
HETATM   20  O2  UNL     1      28.826   1.715  54.929  1.00  0.00    -0.385 OA
HETATM   21  C3  UNL     1      28.669   2.352  53.729  1.00  0.00     0.198 C 
HETATM   22  C4  UNL     1      28.097   1.441  52.698  1.00  0.00     0.301 C 
BRANCH  18  23
HETATM   23  O1  UNL     1      26.472  -0.431  55.209  1.00  0.00    -0.366 OA
HETATM   24  H1  UNL     1      26.508  -1.356  55.562  1.00  0.00     0.212 HD
ENDBRANCH  18  23
ENDBRANCH  16  17
ENDBRANCH  15  16
ENDBRANCH  14  15
ENDBRANCH   1  14
BRANCH   7  25
HETATM   25  N4  UNL     1      18.216   0.424  50.991  1.00  0.00    -0.340 N 
HETATM   26  H17 UNL     1      17.820   0.380  50.041  1.00  0.00     0.167 HD
BRANCH  25  27
HETATM   27  C13 UNL     1      17.268   1.437  51.403  1.00  0.00     0.035 A 
HETATM   28  C14 UNL     1      17.361   2.822  51.475  1.00  0.00     0.032 A 
HETATM   29  C15 UNL     1      16.336   3.625  51.923  1.00  0.00     0.046 A 
HETATM   30  C16 UNL     1      15.144   3.060  52.329  1.00  0.00     0.138 A 
HETATM   31  F1  UNL     1      14.207   3.931  52.749  1.00  0.00    -0.204 F 
HETATM   32  C17 UNL     1      15.016   1.675  52.271  1.00  0.00     0.074 A 
HETATM   33 CL1  UNL     1      13.442   1.140  52.823  1.00  0.00    -0.081 Cl
HETATM   34  C18 UNL     1      16.064   0.881  51.815  1.00  0.00     0.056 A 
ENDBRANCH  25  27
ENDBRANCH   7  25
TORSDOF 7
ENDMDL
MODEL 7
REMARK VINA RESULT:      -8.8      8.902     12.754
REMARK  7 active torsions:
REMARK  status: ('A' for Active; 'I' for Inactive)
REMARK    1  A    between atoms: O1_1  and  C1_2 
REMARK    2  A    between atoms: N1_7  and  C5_8 
REMARK    3  A    between atoms: C5_8  and  C6_9 
REMARK    4  A    between atoms: C6_9  and  C7_10 
REMARK    5  A    between atoms: C7_10  and  C8_11 
REMARK    6  A    between atoms: C12_17  and  N4_18 
REMARK    7  A    between atoms: N4_18  and  C13_19 
ROOT
HETATM    1  C8  UNL     1      25.834   4.506  49.269  1.00  0.00    -0.047 A 
HETATM    2  C9  UNL     1      27.145   4.155  49.019  1.00  0.00     0.040 A 
HETATM    3  C10 UNL     1      27.952   5.158  48.530  1.00  0.00     0.073 A 
HETATM    4  N2  UNL     1      29.248   4.884  48.258  1.00  0.00    -0.241 NA
HETATM    5  C11 UNL     1      30.089   5.807  47.777  1.00  0.00     0.236 A 
HETATM    6  N3  UNL     1      29.671   7.058  47.542  1.00  0.00    -0.223 NA
HETATM    7  C12 UNL     1      28.391   7.361  47.801  1.00  0.00     0.142 A 
HETATM    8  C19 UNL     1      27.501   6.440  48.296  1.00  0.00     0.048 A 
HETATM    9  C20 UNL     1      26.221   6.812  48.533  1.00  0.00    -0.009 A 
HETATM   10  C21 UNL     1      25.419   5.787  49.026  1.00  0.00    -0.019 A 
HETATM   11  C22 UNL     1      24.064   6.352  49.226  1.00  0.00     0.207 C 
HETATM   12  O3  UNL     1      24.175   7.705  49.081  1.00  0.00    -0.382 OA
HETATM   13  C23 UNL     1      25.382   8.003  48.443  1.00  0.00     0.208 C 
ENDROOT
BRANCH   1  14
HETATM   14  C7  UNL     1      24.947   3.420  49.784  1.00  0.00     0.041 C 
BRANCH  14  15
HETATM   15  C6  UNL     1      25.037   3.267  51.265  1.00  0.00     0.035 C 
BRANCH  15  16
HETATM   16  C5  UNL     1      25.875   2.094  51.694  1.00  0.00     0.276 C 
BRANCH  16  17
HETATM   17  N1  UNL     1      26.058   2.004  53.112  1.00  0.00     0.121 N 
HETATM   18  C1  UNL     1      27.510   2.025  53.349  1.00  0.00     0.380 C 
HETATM   19  C2  UNL     1      28.096   0.654  53.342  1.00  0.00     0.231 C 
HETATM   20  O2  UNL     1      27.402  -0.275  52.575  1.00  0.00    -0.385 OA
HETATM   21  C3  UNL     1      26.061  -0.361  52.834  1.00  0.00     0.198 C 
HETATM   22  C4  UNL     1      25.597   0.767  53.690  1.00  0.00     0.301 C 
BRANCH  18  23
HETATM   23  O1  UNL     1      28.168   2.825  52.426  1.00  0.00    -0.366 OA
HETATM   24  H1  UNL     1      28.768   2.333  51.810  1.00  0.00     0.212 HD
ENDBRANCH  18  23
ENDBRANCH  16  17
ENDBRANCH  15  16
ENDBRANCH  14  15
ENDBRANCH   1  14
BRANCH   7  25
HETATM   25  N4  UNL     1      28.014   8.702  47.518  1.00  0.00    -0.340 N 
HETATM   26  H17 UNL     1      27.377   9.372  47.063  1.00  0.00     0.167 HD
BRANCH  25  27
HETATM   27  C13 UNL     1      28.836   9.761  48.061  1.00  0.00     0.035 A 
HETATM   28  C14 UNL     1      29.992   9.737  48.833  1.00  0.00     0.032 A 
HETATM   29  C15 UNL     1      30.626  10.875  49.278  1.00  0.00     0.046 A 
HETATM   30  C16 UNL     1      30.118  12.118  48.960  1.00  0.00     0.138 A 
HETATM   31  F1  UNL     1      30.811  13.165  49.442  1.00  0.00    -0.204 F 
HETATM   32  C17 UNL     1      28.960  12.179  48.188  1.00  0.00     0.074 A 
HETATM   33 CL1  UNL     1      28.463  13.832  47.886  1.00  0.00    -0.081 Cl
HETATM   34  C18 UNL     1      28.334  11.017  47.748  1.00  0.00     0.056 A 
ENDBRANCH  25  27
ENDBRANCH   7  25
TORSDOF 7
ENDMDL
MODEL 8
REMARK VINA RESULT:      -8.5      3.021      3.890
REMARK  7 active torsions:
REMARK  status: ('A' for Active; 'I' for Inactive)
REMARK    1  A    between atoms: O1_1  and  C1_2 
REMARK    2  A    between atoms: N1_7  and  C5_8 
REMARK    3  A    between atoms: C5_8  and  C6_9 
REMARK    4  A    between atoms: C6_9  and  C7_10 
REMARK    5  A    between atoms: C7_10  and  C8_11 
REMARK    6  A    between atoms: C12_17  and  N4_18 
REMARK    7  A    between atoms: N4_18  and  C13_19 
ROOT
HETATM    1  C8  UNL     1      22.477   0.864  51.830  1.00  0.00    -0.047 A 
HETATM    2  C9  UNL     1      22.442   1.661  50.705  1.00  0.00     0.040 A 
HETATM    3  C10 UNL     1      21.197   1.868  50.155  1.00  0.00     0.073 A 
HETATM    4  N2  UNL     1      21.089   2.637  49.046  1.00  0.00    -0.241 NA
HETATM    5  C11 UNL     1      19.913   2.878  48.454  1.00  0.00     0.236 A 
HETATM    6  N3  UNL     1      18.781   2.357  48.945  1.00  0.00    -0.223 NA
HETATM    7  C12 UNL     1      18.855   1.591  50.043  1.00  0.00     0.142 A 
HETATM    8  C19 UNL     1      20.044   1.323  50.677  1.00  0.00     0.048 A 
HETATM    9  C20 UNL     1      20.047   0.539  51.779  1.00  0.00    -0.009 A 
HETATM   10  C21 UNL     1      21.313   0.339  52.323  1.00  0.00    -0.019 A 
HETATM   11  C22 UNL     1      21.145  -0.535  53.508  1.00  0.00     0.207 C 
HETATM   12  O3  UNL     1      19.804  -0.614  53.754  1.00  0.00    -0.382 OA
HETATM   13  C23 UNL     1      19.103  -0.186  52.623  1.00  0.00     0.208 C 
ENDROOT
BRANCH   1  14
HETATM   14  C7  UNL     1      23.826   0.620  52.425  1.00  0.00     0.041 C 
BRANCH  14  15
HETATM   15  C6  UNL     1      24.735   1.792  52.270  1.00  0.00     0.035 C 
BRANCH  15  16
HETATM   16  C5  UNL     1      26.190   1.443  52.432  1.00  0.00     0.276 C 
BRANCH  16  17
HETATM   17  N1  UNL     1      26.697   1.687  53.749  1.00  0.00     0.121 N 
HETATM   18  C1  UNL     1      28.087   2.143  53.585  1.00  0.00     0.380 C 
HETATM   19  C2  UNL     1      29.051   1.006  53.592  1.00  0.00     0.231 C 
HETATM   20  O2  UNL     1      28.529  -0.207  53.159  1.00  0.00    -0.385 OA
HETATM   21  C3  UNL     1      27.371  -0.598  53.774  1.00  0.00     0.198 C 
HETATM   22  C4  UNL     1      26.780   0.510  54.577  1.00  0.00     0.301 C 
BRANCH  18  23
HETATM   23  O1  UNL     1      28.246   2.893  52.429  1.00  0.00    -0.366 OA
HETATM   24  H1  UNL     1      28.868   3.659  52.519  1.00  0.00     0.212 HD
ENDBRANCH  18  23
ENDBRANCH  16  17
ENDBRANCH  15  16
ENDBRANCH  14  15
ENDBRANCH   1  14
BRANCH   7  25
HETATM   25  N4  UNL     1      17.617   1.063  50.501  1.00  0.00    -0.340 N 
HETATM   26  H17 UNL     1      16.953   0.278  50.570  1.00  0.00     0.167 HD
BRANCH  25  27
HETATM   27  C13 UNL     1      16.747   1.943  51.250  1.00  0.00     0.035 A 
HETATM   28  C14 UNL     1      16.778   3.315  51.470  1.00  0.00     0.032 A 
HETATM   29  C15 UNL     1      15.853   3.977  52.245  1.00  0.00     0.046 A 
HETATM   30  C16 UNL     1      14.831   3.275  52.850  1.00  0.00     0.138 A 
HETATM   31  F1  UNL     1      13.981   4.014  53.586  1.00  0.00    -0.204 F 
HETATM   32  C17 UNL     1      14.769   1.898  52.652  1.00  0.00     0.074 A 
HETATM   33 CL1  UNL     1      13.411   1.177  53.494  1.00  0.00    -0.081 Cl
HETATM   34  C18 UNL     1      15.714   1.247  51.864  1.00  0.00     0.056 A 
ENDBRANCH  25  27
ENDBRANCH   7  25
TORSDOF 7
ENDMDL
MODEL 9
REMARK VINA RESULT:      -8.5      5.556      7.500
REMARK  7 active torsions:
REMARK  status: ('A' for Active; 'I' for Inactive)
REMARK    1  A    between atoms: O1_1  and  C1_2 
REMARK    2  A    between atoms: N1_7  and  C5_8 
REMARK    3  A    between atoms: C5_8  and  C6_9 
REMARK    4  A    between atoms: C6_9  and  C7_10 
REMARK    5  A    between atoms: C7_10  and  C8_11 
REMARK    6  A    between atoms: C12_17  and  N4_18 
REMARK    7  A    between atoms: N4_18  and  C13_19 
ROOT
HETATM    1  C8  UNL     1      26.276   5.040  49.173  1.00  0.00    -0.047 A 
HETATM    2  C9  UNL     1      26.930   3.964  49.738  1.00  0.00     0.040 A 
HETATM    3  C10 UNL     1      26.146   3.106  50.476  1.00  0.00     0.073 A 
HETATM    4  N2  UNL     1      26.721   2.032  51.063  1.00  0.00    -0.241 NA
HETATM    5  C11 UNL     1      26.023   1.159  51.799  1.00  0.00     0.236 A 
HETATM    6  N3  UNL     1      24.706   1.319  51.984  1.00  0.00    -0.223 NA
HETATM    7  C12 UNL     1      24.106   2.375  51.415  1.00  0.00     0.142 A 
HETATM    8  C19 UNL     1      24.791   3.290  50.654  1.00  0.00     0.048 A 
HETATM    9  C20 UNL     1      24.124   4.335  50.111  1.00  0.00    -0.009 A 
HETATM   10  C21 UNL     1      24.931   5.192  49.369  1.00  0.00    -0.019 A 
HETATM   11  C22 UNL     1      24.058   6.273  48.852  1.00  0.00     0.207 C 
HETATM   12  O3  UNL     1      22.770   5.891  49.095  1.00  0.00    -0.382 OA
HETATM   13  C23 UNL     1      22.765   4.864  50.043  1.00  0.00     0.208 C 
ENDROOT
BRANCH   1  14
HETATM   14  C7  UNL     1      27.123   5.985  48.384  1.00  0.00     0.041 C 
BRANCH  14  15
HETATM   15  C6  UNL     1      28.538   5.525  48.274  1.00  0.00     0.035 C 
BRANCH  15  16
HETATM   16  C5  UNL     1      29.529   6.655  48.212  1.00  0.00     0.276 C 
BRANCH  16  17
HETATM   17  N1  UNL     1      30.795   6.344  48.805  1.00  0.00     0.121 N 
HETATM   18  C1  UNL     1      31.372   7.620  49.256  1.00  0.00     0.380 C 
HETATM   19  C2  UNL     1      32.200   8.264  48.197  1.00  0.00     0.231 C 
HETATM   20  O2  UNL     1      31.837   7.941  46.894  1.00  0.00    -0.385 OA
HETATM   21  C3  UNL     1      31.733   6.603  46.631  1.00  0.00     0.198 C 
HETATM   22  C4  UNL     1      31.759   5.796  47.884  1.00  0.00     0.301 C 
BRANCH  18  23
HETATM   23  O1  UNL     1      30.390   8.500  49.690  1.00  0.00    -0.366 OA
HETATM   24  H1  UNL     1      30.278   8.536  50.673  1.00  0.00     0.212 HD
ENDBRANCH  18  23
ENDBRANCH  16  17
ENDBRANCH  15  16
ENDBRANCH  14  15
ENDBRANCH   1  14
BRANCH   7  25
HETATM   25  N4  UNL     1      22.711   2.489  51.664  1.00  0.00    -0.340 N 
HETATM   26  H17 UNL     1      21.833   3.021  51.586  1.00  0.00     0.167 HD
BRANCH  25  27
HETATM   27  C13 UNL     1      22.064   1.407  52.372  1.00  0.00     0.035 A 
HETATM   28  C14 UNL     1      22.466   0.632  53.455  1.00  0.00     0.032 A 
HETATM   29  C15 UNL     1      21.702  -0.385  53.980  1.00  0.00     0.046 A 
HETATM   30  C16 UNL     1      20.470  -0.678  53.430  1.00  0.00     0.138 A 
HETATM   31  F1  UNL     1      19.803  -1.688  54.017  1.00  0.00    -0.204 F 
HETATM   32  C17 UNL     1      20.036   0.078  52.344  1.00  0.00     0.074 A 
HETATM   33 CL1  UNL     1      18.457  -0.435  51.781  1.00  0.00    -0.081 Cl
HETATM   34  C18 UNL     1      20.823   1.102  51.827  1.00  0.00     0.056 A 
ENDBRANCH  25  27
ENDBRANCH   7  25
TORSDOF 7
ENDMDL
