MODEL 1
REMARK VINA RESULT:      -8.3      0.000      0.000
REMARK  3 active torsions:
REMARK  status: ('A' for Active; 'I' for Inactive)
REMARK    1  A    between atoms: N1_1  and  C1_2 
REMARK    2  A    between atoms: N3_14  and  C11_15 
REMARK    3  A    between atoms: C11_15  and  C12_16 
ROOT
HETATM    1  C1  UNL     1      21.543   1.981  49.728  1.00  0.00     0.721 C 
HETATM    2  N2  UNL     1      20.936   0.965  50.275  1.00  0.00    -0.063 NA
HETATM    3  C2  UNL     1      20.919   0.372  51.563  1.00  0.00     0.084 C 
HETATM    4  C3  UNL     1      19.625  -0.128  51.977  1.00  0.00    -0.006 A 
HETATM    5  C4  UNL     1      19.255  -0.748  53.140  1.00  0.00     0.014 A 
HETATM    6  C5  UNL     1      17.988  -1.193  53.434  1.00  0.00     0.002 A 
HETATM    7  C6  UNL     1      16.970  -1.025  52.520  1.00  0.00     0.019 A 
HETATM    8  C7  UNL     1      17.299  -0.406  51.337  1.00  0.00     0.011 A 
HETATM    9 BR1  UNL     1      15.927  -0.149  50.040  1.00  0.00    -0.051 Br
HETATM   10  C8  UNL     1      18.582   0.021  51.087  1.00  0.00     0.032 A 
HETATM   11  C9  UNL     1      21.956   0.251  52.364  1.00  0.00     0.026 C 
HETATM   12  C10 UNL     1      23.404   0.572  52.409  1.00  0.00     0.153 C 
HETATM   13  N3  UNL     1      23.692   1.970  52.148  1.00  0.00    -0.367 N 
HETATM   14  C18 UNL     1      23.348   2.947  51.171  1.00  0.00     0.225 C 
HETATM   15  N4  UNL     1      22.484   2.977  50.185  1.00  0.00    -0.059 NA
ENDROOT
BRANCH  13  16
HETATM   16  C11 UNL     1      24.568   2.528  53.139  1.00  0.00     0.164 C 
BRANCH  16  17
HETATM   17  C12 UNL     1      25.807   1.762  53.383  1.00  0.00    -0.018 A 
HETATM   18  C13 UNL     1      25.984   0.948  54.481  1.00  0.00     0.012 A 
HETATM   19  C14 UNL     1      27.108   0.204  54.778  1.00  0.00     0.024 A 
HETATM   20  C15 UNL     1      28.156   0.305  53.857  1.00  0.00     0.035 A 
HETATM   21 CL1  UNL     1      29.644  -0.560  54.073  1.00  0.00    -0.084 Cl
HETATM   22  C16 UNL     1      28.007   1.118  52.740  1.00  0.00     0.048 A 
HETATM   23  C17 UNL     1      26.863   1.855  52.467  1.00  0.00     0.043 A 
HETATM   24 CL2  UNL     1      26.775   2.846  51.038  1.00  0.00    -0.084 Cl
ENDBRANCH  16  17
ENDBRANCH  13  16
BRANCH   1  25
HETATM   25  N1  UNL     1      21.184   2.141  48.338  1.00  0.00    -0.231 N 
HETATM   26  H1  UNL     1      20.993   2.237  47.319  1.00  0.00     0.174 HD
HETATM   27  H2  UNL     1      21.994   1.937  47.691  1.00  0.00     0.174 HD
ENDBRANCH   1  25
TORSDOF 3
ENDMDL
MODEL 2
REMARK VINA RESULT:      -8.3      4.444      6.151
REMARK  3 active torsions:
REMARK  status: ('A' for Active; 'I' for Inactive)
REMARK    1  A    between atoms: N1_1  and  C1_2 
REMARK    2  A    between atoms: N3_14  and  C11_15 
REMARK    3  A    between atoms: C11_15  and  C12_16 
ROOT
HETATM    1  C1  UNL     1      26.175   2.130  52.206  1.00  0.00     0.721 C 
HETATM    2  N2  UNL     1      24.963   2.251  52.670  1.00  0.00    -0.063 NA
HETATM    3  C2  UNL     1      23.765   2.863  52.220  1.00  0.00     0.084 C 
HETATM    4  C3  UNL     1      22.560   2.127  52.539  1.00  0.00    -0.006 A 
HETATM    5  C4  UNL     1      21.252   2.422  52.261  1.00  0.00     0.014 A 
HETATM    6  C5  UNL     1      20.171   1.650  52.616  1.00  0.00     0.002 A 
HETATM    7  C6  UNL     1      20.363   0.475  53.309  1.00  0.00     0.019 A 
HETATM    8  C7  UNL     1      21.662   0.141  53.610  1.00  0.00     0.011 A 
HETATM    9 BR1  UNL     1      21.980  -1.476  54.567  1.00  0.00    -0.051 Br
HETATM   10  C8  UNL     1      22.712   0.945  53.234  1.00  0.00     0.032 A 
HETATM   11  C9  UNL     1      23.685   4.001  51.567  1.00  0.00     0.026 C 
HETATM   12  C10 UNL     1      24.562   5.073  51.035  1.00  0.00     0.153 C 
HETATM   13  N3  UNL     1      25.613   4.579  50.165  1.00  0.00    -0.367 N 
HETATM   14  C18 UNL     1      26.611   3.565  50.200  1.00  0.00     0.225 C 
HETATM   15  N4  UNL     1      26.861   2.565  51.010  1.00  0.00    -0.059 NA
ENDROOT
BRANCH  13  16
HETATM   16  C11 UNL     1      25.672   5.309  48.932  1.00  0.00     0.164 C 
BRANCH  16  17
HETATM   17  C12 UNL     1      26.866   6.163  48.765  1.00  0.00    -0.018 A 
HETATM   18  C13 UNL     1      28.069   5.690  48.290  1.00  0.00     0.012 A 
HETATM   19  C14 UNL     1      29.224   6.422  48.108  1.00  0.00     0.024 A 
HETATM   20  C15 UNL     1      29.138   7.777  48.447  1.00  0.00     0.035 A 
HETATM   21 CL1  UNL     1      30.495   8.845  48.282  1.00  0.00    -0.084 Cl
HETATM   22  C16 UNL     1      27.937   8.283  48.929  1.00  0.00     0.048 A 
HETATM   23  C17 UNL     1      26.790   7.521  49.102  1.00  0.00     0.043 A 
HETATM   24 CL2  UNL     1      25.333   8.252  49.714  1.00  0.00    -0.084 Cl
ENDBRANCH  16  17
ENDBRANCH  13  16
BRANCH   1  25
HETATM   25  N1  UNL     1      27.026   1.383  53.102  1.00  0.00    -0.231 N 
HETATM   26  H1  UNL     1      27.696   0.866  53.709  1.00  0.00     0.174 HD
HETATM   27  H2  UNL     1      28.044   1.439  52.825  1.00  0.00     0.174 HD
ENDBRANCH   1  25
TORSDOF 3
ENDMDL
MODEL 3
REMARK VINA RESULT:      -8.2      4.751      8.419
REMARK  3 active torsions:
REMARK  status: ('A' for Active; 'I' for Inactive)
REMARK    1  A    between atoms: N1_1  and  C1_2 
REMARK    2  A    between atoms: N3_14  and  C11_15 
REMARK    3  A    between atoms: C11_15  and  C12_16 
ROOT
HETATM    1  C1  UNL     1      22.431   5.534  50.826  1.00  0.00     0.721 C 
HETATM    2  N2  UNL     1      23.732   5.480  50.752  1.00  0.00    -0.063 NA
HETATM    3  C2  UNL     1      24.680   4.516  50.324  1.00  0.00     0.084 C 
HETATM    4  C3  UNL     1      25.833   5.070  49.645  1.00  0.00    -0.006 A 
HETATM    5  C4  UNL     1      26.923   4.437  49.110  1.00  0.00     0.014 A 
HETATM    6  C5  UNL     1      27.976   5.063  48.485  1.00  0.00     0.002 A 
HETATM    7  C6  UNL     1      27.984   6.435  48.359  1.00  0.00     0.019 A 
HETATM    8  C7  UNL     1      26.908   7.110  48.884  1.00  0.00     0.011 A 
HETATM    9 BR1  UNL     1      26.872   9.009  48.735  1.00  0.00    -0.051 Br
HETATM   10  C8  UNL     1      25.877   6.441  49.501  1.00  0.00     0.032 A 
HETATM   11  C9  UNL     1      24.584   3.217  50.500  1.00  0.00     0.026 C 
HETATM   12  C10 UNL     1      23.669   2.213  51.097  1.00  0.00     0.153 C 
HETATM   13  N3  UNL     1      22.308   2.307  50.602  1.00  0.00    -0.367 N 
HETATM   14  C18 UNL     1      21.327   3.322  50.421  1.00  0.00     0.225 C 
HETATM   15  N4  UNL     1      21.350   4.631  50.503  1.00  0.00    -0.059 NA
ENDROOT
BRANCH  13  16
HETATM   16  C11 UNL     1      21.804   1.031  50.182  1.00  0.00     0.164 C 
BRANCH  16  17
HETATM   17  C12 UNL     1      20.546   0.610  50.831  1.00  0.00    -0.018 A 
HETATM   18  C13 UNL     1      19.313   0.718  50.224  1.00  0.00     0.012 A 
HETATM   19  C14 UNL     1      18.098   0.348  50.763  1.00  0.00     0.024 A 
HETATM   20  C15 UNL     1      18.151  -0.187  52.054  1.00  0.00     0.035 A 
HETATM   21 CL1  UNL     1      16.719  -0.704  52.886  1.00  0.00    -0.084 Cl
HETATM   22  C16 UNL     1      19.380  -0.309  52.692  1.00  0.00     0.048 A 
HETATM   23  C17 UNL     1      20.587   0.072  52.124  1.00  0.00     0.043 A 
HETATM   24 CL2  UNL     1      22.075  -0.122  53.007  1.00  0.00    -0.084 Cl
ENDBRANCH  16  17
ENDBRANCH  13  16
BRANCH   1  25
HETATM   25  N1  UNL     1      21.971   6.797  51.354  1.00  0.00    -0.231 N 
HETATM   26  H1  UNL     1      21.709   7.728  51.739  1.00  0.00     0.174 HD
HETATM   27  H2  UNL     1      22.770   7.449  51.580  1.00  0.00     0.174 HD
ENDBRANCH   1  25
TORSDOF 3
ENDMDL
MODEL 4
REMARK VINA RESULT:      -8.2      4.737      8.353
REMARK  3 active torsions:
REMARK  status: ('A' for Active; 'I' for Inactive)
REMARK    1  A    between atoms: N1_1  and  C1_2 
REMARK    2  A    between atoms: N3_14  and  C11_15 
REMARK    3  A    between atoms: C11_15  and  C12_16 
ROOT
HETATM    1  C1  UNL     1      23.170   4.543  52.046  1.00  0.00     0.721 C 
HETATM    2  N2  UNL     1      23.600   3.517  52.727  1.00  0.00    -0.063 NA
HETATM    3  C2  UNL     1      23.284   2.136  52.780  1.00  0.00     0.084 C 
HETATM    4  C3  UNL     1      24.424   1.267  52.983  1.00  0.00    -0.006 A 
HETATM    5  C4  UNL     1      24.481  -0.097  53.082  1.00  0.00     0.014 A 
HETATM    6  C5  UNL     1      25.626  -0.832  53.282  1.00  0.00     0.002 A 
HETATM    7  C6  UNL     1      26.842  -0.193  53.398  1.00  0.00     0.019 A 
HETATM    8  C7  UNL     1      26.830   1.179  53.305  1.00  0.00     0.011 A 
HETATM    9 BR1  UNL     1      28.486   2.109  53.458  1.00  0.00    -0.051 Br
HETATM   10  C8  UNL     1      25.658   1.871  53.105  1.00  0.00     0.032 A 
HETATM   11  C9  UNL     1      22.080   1.621  52.666  1.00  0.00     0.026 C 
HETATM   12  C10 UNL     1      20.673   2.048  52.464  1.00  0.00     0.153 C 
HETATM   13  N3  UNL     1      20.488   2.892  51.298  1.00  0.00    -0.367 N 
HETATM   14  C18 UNL     1      21.085   4.060  50.745  1.00  0.00     0.225 C 
HETATM   15  N4  UNL     1      22.167   4.746  51.026  1.00  0.00    -0.059 NA
ENDROOT
BRANCH  13  16
HETATM   16  C11 UNL     1      19.407   2.434  50.474  1.00  0.00     0.164 C 
BRANCH  16  17
HETATM   17  C12 UNL     1      18.060   2.598  51.057  1.00  0.00    -0.018 A 
HETATM   18  C13 UNL     1      17.537   3.823  51.409  1.00  0.00     0.012 A 
HETATM   19  C14 UNL     1      16.292   4.056  51.957  1.00  0.00     0.024 A 
HETATM   20  C15 UNL     1      15.505   2.919  52.166  1.00  0.00     0.035 A 
HETATM   21 CL1  UNL     1      13.913   3.027  52.849  1.00  0.00    -0.084 Cl
HETATM   22  C16 UNL     1      16.005   1.670  51.821  1.00  0.00     0.048 A 
HETATM   23  C17 UNL     1      17.263   1.466  51.270  1.00  0.00     0.043 A 
HETATM   24 CL2  UNL     1      17.798  -0.142  50.873  1.00  0.00    -0.084 Cl
ENDBRANCH  16  17
ENDBRANCH  13  16
BRANCH   1  25
HETATM   25  N1  UNL     1      23.866   5.758  52.401  1.00  0.00    -0.231 N 
HETATM   26  H1  UNL     1      24.310   6.671  52.632  1.00  0.00     0.174 HD
HETATM   27  H2  UNL     1      23.309   6.622  52.157  1.00  0.00     0.174 HD
ENDBRANCH   1  25
TORSDOF 3
ENDMDL
MODEL 5
REMARK VINA RESULT:      -8.1      4.483      8.558
REMARK  3 active torsions:
REMARK  status: ('A' for Active; 'I' for Inactive)
REMARK    1  A    between atoms: N1_1  and  C1_2 
REMARK    2  A    between atoms: N3_14  and  C11_15 
REMARK    3  A    between atoms: C11_15  and  C12_16 
ROOT
HETATM    1  C1  UNL     1      22.683  -0.861  54.690  1.00  0.00     0.721 C 
HETATM    2  N2  UNL     1      23.624  -0.569  53.836  1.00  0.00    -0.063 NA
HETATM    3  C2  UNL     1      23.755   0.331  52.747  1.00  0.00     0.084 C 
HETATM    4  C3  UNL     1      25.068   0.926  52.617  1.00  0.00    -0.006 A 
HETATM    5  C4  UNL     1      25.537   1.823  51.694  1.00  0.00     0.014 A 
HETATM    6  C5  UNL     1      26.816   2.327  51.656  1.00  0.00     0.002 A 
HETATM    7  C6  UNL     1      27.739   1.932  52.599  1.00  0.00     0.019 A 
HETATM    8  C7  UNL     1      27.310   1.031  53.545  1.00  0.00     0.011 A 
HETATM    9 BR1  UNL     1      28.549   0.454  54.871  1.00  0.00    -0.051 Br
HETATM   10  C8  UNL     1      26.020   0.554  53.542  1.00  0.00     0.032 A 
HETATM   11  C9  UNL     1      22.807   0.639  51.889  1.00  0.00     0.026 C 
HETATM   12  C10 UNL     1      21.386   0.323  51.600  1.00  0.00     0.153 C 
HETATM   13  N3  UNL     1      20.508   0.527  52.737  1.00  0.00    -0.367 N 
HETATM   14  C18 UNL     1      20.470   0.160  54.112  1.00  0.00     0.225 C 
HETATM   15  N4  UNL     1      21.334  -0.400  54.924  1.00  0.00    -0.059 NA
ENDROOT
BRANCH  13  16
HETATM   16  C11 UNL     1      19.356   1.307  52.387  1.00  0.00     0.164 C 
BRANCH  16  17
HETATM   17  C12 UNL     1      18.274   0.562  51.711  1.00  0.00    -0.018 A 
HETATM   18  C13 UNL     1      17.486  -0.369  52.354  1.00  0.00     0.012 A 
HETATM   19  C14 UNL     1      16.462  -1.103  51.792  1.00  0.00     0.024 A 
HETATM   20  C15 UNL     1      16.220  -0.860  50.436  1.00  0.00     0.035 A 
HETATM   21 CL1  UNL     1      14.971  -1.695  49.570  1.00  0.00    -0.084 Cl
HETATM   22  C16 UNL     1      16.998   0.073  49.762  1.00  0.00     0.048 A 
HETATM   23  C17 UNL     1      18.024   0.797  50.353  1.00  0.00     0.043 A 
HETATM   24 CL2  UNL     1      18.942   1.944  49.419  1.00  0.00    -0.084 Cl
ENDBRANCH  16  17
ENDBRANCH  13  16
BRANCH   1  25
HETATM   25  N1  UNL     1      23.096  -1.887  55.619  1.00  0.00    -0.231 N 
HETATM   26  H1  UNL     1      23.422  -2.664  56.231  1.00  0.00     0.174 HD
HETATM   27  H2  UNL     1      23.577  -2.694  55.134  1.00  0.00     0.174 HD
ENDBRANCH   1  25
TORSDOF 3
ENDMDL
MODEL 6
REMARK VINA RESULT:      -7.9      5.147      7.659
REMARK  3 active torsions:
REMARK  status: ('A' for Active; 'I' for Inactive)
REMARK    1  A    between atoms: N1_1  and  C1_2 
REMARK    2  A    between atoms: N3_14  and  C11_15 
REMARK    3  A    between atoms: C11_15  and  C12_16 
ROOT
HETATM    1  C1  UNL     1      22.927   4.697  51.271  1.00  0.00     0.721 C 
HETATM    2  N2  UNL     1      23.535   3.555  51.112  1.00  0.00    -0.063 NA
HETATM    3  C2  UNL     1      24.868   3.148  50.847  1.00  0.00     0.084 C 
HETATM    4  C3  UNL     1      25.272   1.938  51.531  1.00  0.00    -0.006 A 
HETATM    5  C4  UNL     1      26.469   1.273  51.503  1.00  0.00     0.014 A 
HETATM    6  C5  UNL     1      26.751   0.117  52.193  1.00  0.00     0.002 A 
HETATM    7  C6  UNL     1      25.787  -0.460  52.991  1.00  0.00     0.019 A 
HETATM    8  C7  UNL     1      24.570   0.176  53.047  1.00  0.00     0.011 A 
HETATM    9 BR1  UNL     1      23.204  -0.583  54.137  1.00  0.00    -0.051 Br
HETATM   10  C8  UNL     1      24.334   1.330  52.338  1.00  0.00     0.032 A 
HETATM   11  C9  UNL     1      25.715   3.769  50.056  1.00  0.00     0.026 C 
HETATM   12  C10 UNL     1      25.788   4.963  49.179  1.00  0.00     0.153 C 
HETATM   13  N3  UNL     1      25.421   6.196  49.851  1.00  0.00    -0.367 N 
HETATM   14  C18 UNL     1      24.352   6.667  50.665  1.00  0.00     0.225 C 
HETATM   15  N4  UNL     1      23.334   6.084  51.251  1.00  0.00    -0.059 NA
ENDROOT
BRANCH  13  16
HETATM   16  C11 UNL     1      26.393   7.229  49.640  1.00  0.00     0.164 C 
BRANCH  16  17
HETATM   17  C12 UNL     1      26.537   7.679  48.240  1.00  0.00    -0.018 A 
HETATM   18  C13 UNL     1      25.475   8.113  47.477  1.00  0.00     0.012 A 
HETATM   19  C14 UNL     1      25.530   8.546  46.168  1.00  0.00     0.024 A 
HETATM   20  C15 UNL     1      26.800   8.533  45.582  1.00  0.00     0.035 A 
HETATM   21 CL1  UNL     1      27.053   9.042  43.943  1.00  0.00    -0.084 Cl
HETATM   22  C16 UNL     1      27.890   8.100  46.327  1.00  0.00     0.048 A 
HETATM   23  C17 UNL     1      27.804   7.669  47.644  1.00  0.00     0.043 A 
HETATM   24 CL2  UNL     1      29.232   7.145  48.492  1.00  0.00    -0.084 Cl
ENDBRANCH  16  17
ENDBRANCH  13  16
BRANCH   1  25
HETATM   25  N1  UNL     1      21.516   4.528  51.528  1.00  0.00    -0.231 N 
HETATM   26  H1  UNL     1      20.515   4.342  51.745  1.00  0.00     0.174 HD
HETATM   27  H2  UNL     1      21.306   3.611  52.010  1.00  0.00     0.174 HD
ENDBRANCH   1  25
TORSDOF 3
ENDMDL
MODEL 7
REMARK VINA RESULT:      -7.9      4.512      7.854
REMARK  3 active torsions:
REMARK  status: ('A' for Active; 'I' for Inactive)
REMARK    1  A    between atoms: N1_1  and  C1_2 
REMARK    2  A    between atoms: N3_14  and  C11_15 
REMARK    3  A    between atoms: C11_15  and  C12_16 
ROOT
HETATM    1  C1  UNL     1      22.734  -0.868  54.733  1.00  0.00     0.721 C 
HETATM    2  N2  UNL     1      23.673  -0.588  53.874  1.00  0.00    -0.063 NA
HETATM    3  C2  UNL     1      23.801   0.289  52.767  1.00  0.00     0.084 C 
HETATM    4  C3  UNL     1      25.111   0.888  52.625  1.00  0.00    -0.006 A 
HETATM    5  C4  UNL     1      25.576   1.768  51.685  1.00  0.00     0.014 A 
HETATM    6  C5  UNL     1      26.853   2.278  51.637  1.00  0.00     0.002 A 
HETATM    7  C6  UNL     1      27.777   1.908  52.590  1.00  0.00     0.019 A 
HETATM    8  C7  UNL     1      27.351   1.025  53.553  1.00  0.00     0.011 A 
HETATM    9 BR1  UNL     1      28.592   0.483  54.893  1.00  0.00    -0.051 Br
HETATM   10  C8  UNL     1      26.064   0.541  53.559  1.00  0.00     0.032 A 
HETATM   11  C9  UNL     1      22.853   0.573  51.902  1.00  0.00     0.026 C 
HETATM   12  C10 UNL     1      21.434   0.244  51.617  1.00  0.00     0.153 C 
HETATM   13  N3  UNL     1      20.553   0.467  52.748  1.00  0.00    -0.367 N 
HETATM   14  C18 UNL     1      20.516   0.129  54.131  1.00  0.00     0.225 C 
HETATM   15  N4  UNL     1      21.382  -0.409  54.956  1.00  0.00    -0.059 NA
ENDROOT
BRANCH  13  16
HETATM   16  C11 UNL     1      19.397   1.234  52.381  1.00  0.00     0.164 C 
BRANCH  16  17
HETATM   17  C12 UNL     1      19.683   2.508  51.692  1.00  0.00    -0.018 A 
HETATM   18  C13 UNL     1      20.582   3.437  52.170  1.00  0.00     0.012 A 
HETATM   19  C14 UNL     1      20.901   4.646  51.585  1.00  0.00     0.024 A 
HETATM   20  C15 UNL     1      20.232   4.931  50.391  1.00  0.00     0.035 A 
HETATM   21 CL1  UNL     1      20.510   6.407  49.521  1.00  0.00    -0.084 Cl
HETATM   22  C16 UNL     1      19.320   4.014  49.884  1.00  0.00     0.048 A 
HETATM   23  C17 UNL     1      19.019   2.805  50.494  1.00  0.00     0.043 A 
HETATM   24 CL2  UNL     1      17.859   1.722  49.778  1.00  0.00    -0.084 Cl
ENDBRANCH  16  17
ENDBRANCH  13  16
BRANCH   1  25
HETATM   25  N1  UNL     1      23.151  -1.872  55.684  1.00  0.00    -0.231 N 
HETATM   26  H1  UNL     1      23.506  -2.613  56.323  1.00  0.00     0.174 HD
HETATM   27  H2  UNL     1      23.996  -2.411  55.349  1.00  0.00     0.174 HD
ENDBRANCH   1  25
TORSDOF 3
ENDMDL
MODEL 8
REMARK VINA RESULT:      -7.9      3.228      5.291
REMARK  3 active torsions:
REMARK  status: ('A' for Active; 'I' for Inactive)
REMARK    1  A    between atoms: N1_1  and  C1_2 
REMARK    2  A    between atoms: N3_14  and  C11_15 
REMARK    3  A    between atoms: C11_15  and  C12_16 
ROOT
HETATM    1  C1  UNL     1      22.859  -0.044  53.582  1.00  0.00     0.721 C 
HETATM    2  N2  UNL     1      21.594   0.266  53.519  1.00  0.00    -0.063 NA
HETATM    3  C2  UNL     1      20.795   1.084  52.680  1.00  0.00     0.084 C 
HETATM    4  C3  UNL     1      19.477   0.552  52.403  1.00  0.00    -0.006 A 
HETATM    5  C4  UNL     1      18.463   1.072  51.644  1.00  0.00     0.014 A 
HETATM    6  C5  UNL     1      17.236   0.483  51.447  1.00  0.00     0.002 A 
HETATM    7  C6  UNL     1      16.953  -0.729  52.039  1.00  0.00     0.019 A 
HETATM    8  C7  UNL     1      17.944  -1.287  52.811  1.00  0.00     0.011 A 
HETATM    9 BR1  UNL     1      17.601  -2.963  53.649  1.00  0.00    -0.051 Br
HETATM   10  C8  UNL     1      19.156  -0.659  52.979  1.00  0.00     0.032 A 
HETATM   11  C9  UNL     1      21.157   2.240  52.168  1.00  0.00     0.026 C 
HETATM   12  C10 UNL     1      22.317   3.164  52.150  1.00  0.00     0.153 C 
HETATM   13  N3  UNL     1      23.556   2.527  51.743  1.00  0.00    -0.367 N 
HETATM   14  C18 UNL     1      24.295   1.359  52.083  1.00  0.00     0.225 C 
HETATM   15  N4  UNL     1      24.037   0.306  52.822  1.00  0.00    -0.059 NA
ENDROOT
BRANCH  13  16
HETATM   16  C11 UNL     1      24.229   3.275  50.721  1.00  0.00     0.164 C 
BRANCH  16  17
HETATM   17  C12 UNL     1      23.495   3.396  49.445  1.00  0.00    -0.018 A 
HETATM   18  C13 UNL     1      22.973   2.313  48.771  1.00  0.00     0.012 A 
HETATM   19  C14 UNL     1      22.278   2.346  47.579  1.00  0.00     0.024 A 
HETATM   20  C15 UNL     1      22.100   3.616  47.022  1.00  0.00     0.035 A 
HETATM   21 CL1  UNL     1      21.251   3.843  45.526  1.00  0.00    -0.084 Cl
HETATM   22  C16 UNL     1      22.614   4.727  47.678  1.00  0.00     0.048 A 
HETATM   23  C17 UNL     1      23.310   4.664  48.878  1.00  0.00     0.043 A 
HETATM   24 CL2  UNL     1      23.915   6.117  49.621  1.00  0.00    -0.084 Cl
ENDBRANCH  16  17
ENDBRANCH  13  16
BRANCH   1  25
HETATM   25  N1  UNL     1      23.140  -0.951  54.670  1.00  0.00    -0.231 N 
HETATM   26  H1  UNL     1      23.285  -1.577  55.489  1.00  0.00     0.174 HD
HETATM   27  H2  UNL     1      22.450  -0.848  55.463  1.00  0.00     0.174 HD
ENDBRANCH   1  25
TORSDOF 3
ENDMDL
MODEL 9
REMARK VINA RESULT:      -7.8      3.886      6.573
REMARK  3 active torsions:
REMARK  status: ('A' for Active; 'I' for Inactive)
REMARK    1  A    between atoms: N1_1  and  C1_2 
REMARK    2  A    between atoms: N3_14  and  C11_15 
REMARK    3  A    between atoms: C11_15  and  C12_16 
ROOT
HETATM    1  C1  UNL     1      23.925   5.206  51.833  1.00  0.00     0.721 C 
HETATM    2  N2  UNL     1      23.891   4.932  50.559  1.00  0.00    -0.063 NA
HETATM    3  C2  UNL     1      23.635   3.773  49.782  1.00  0.00     0.084 C 
HETATM    4  C3  UNL     1      22.909   4.022  48.555  1.00  0.00    -0.006 A 
HETATM    5  C4  UNL     1      22.500   3.147  47.584  1.00  0.00     0.014 A 
HETATM    6  C5  UNL     1      21.813   3.490  46.443  1.00  0.00     0.002 A 
HETATM    7  C6  UNL     1      21.482   4.807  46.211  1.00  0.00     0.019 A 
HETATM    8  C7  UNL     1      21.874   5.720  47.161  1.00  0.00     0.011 A 
HETATM    9 BR1  UNL     1      21.440   7.554  46.885  1.00  0.00    -0.051 Br
HETATM   10  C8  UNL     1      22.561   5.329  48.286  1.00  0.00     0.032 A 
HETATM   11  C9  UNL     1      24.003   2.548  50.089  1.00  0.00     0.026 C 
HETATM   12  C10 UNL     1      24.723   1.809  51.156  1.00  0.00     0.153 C 
HETATM   13  N3  UNL     1      24.187   2.047  52.483  1.00  0.00    -0.367 N 
HETATM   14  C18 UNL     1      23.832   3.168  53.285  1.00  0.00     0.225 C 
HETATM   15  N4  UNL     1      23.717   4.453  53.048  1.00  0.00    -0.059 NA
ENDROOT
BRANCH  13  16
HETATM   16  C11 UNL     1      23.952   0.821  53.191  1.00  0.00     0.164 C 
BRANCH  16  17
HETATM   17  C12 UNL     1      22.549   0.358  53.196  1.00  0.00    -0.018 A 
HETATM   18  C13 UNL     1      21.605   0.810  52.299  1.00  0.00     0.012 A 
HETATM   19  C14 UNL     1      20.280   0.427  52.242  1.00  0.00     0.024 A 
HETATM   20  C15 UNL     1      19.883  -0.513  53.198  1.00  0.00     0.035 A 
HETATM   21 CL1  UNL     1      18.254  -1.104  53.272  1.00  0.00    -0.084 Cl
HETATM   22  C16 UNL     1      20.813  -0.987  54.115  1.00  0.00     0.048 A 
HETATM   23  C17 UNL     1      22.141  -0.583  54.149  1.00  0.00     0.043 A 
HETATM   24 CL2  UNL     1      23.228  -1.238  55.341  1.00  0.00    -0.084 Cl
ENDBRANCH  16  17
ENDBRANCH  13  16
BRANCH   1  25
HETATM   25  N1  UNL     1      24.246   6.593  52.078  1.00  0.00    -0.231 N 
HETATM   26  H1  UNL     1      24.464   7.605  52.185  1.00  0.00     0.174 HD
HETATM   27  H2  UNL     1      24.181   7.179  51.202  1.00  0.00     0.174 HD
ENDBRANCH   1  25
TORSDOF 3
ENDMDL
