MODEL 1
REMARK VINA RESULT:      -9.0      0.000      0.000
REMARK  3 active torsions:
REMARK  status: ('A' for Active; 'I' for Inactive)
REMARK    1  A    between atoms: C2_2  and  S1_3 
REMARK    2  A    between atoms: S1_3  and  C3_6 
REMARK    3  A    between atoms: C6_9  and  C7_10 
ROOT
HETATM    1  C3  UNL     1      27.137   1.258  53.079  1.00  0.00     0.155 A 
HETATM    2  C4  UNL     1      25.807   0.978  53.016  1.00  0.00     0.060 A 
HETATM    3  C5  UNL     1      24.995   1.551  52.075  1.00  0.00     0.027 A 
HETATM    4  C6  UNL     1      23.681   1.168  52.130  1.00  0.00     0.081 A 
HETATM    5  N1  UNL     1      22.891   1.742  51.176  1.00  0.00    -0.240 NA
HETATM    6  C13 UNL     1      23.343   2.606  50.263  1.00  0.00     0.234 A 
HETATM    7  N2  UNL     1      24.646   2.969  50.230  1.00  0.00    -0.240 NA
HETATM    8  C14 UNL     1      25.469   2.432  51.148  1.00  0.00     0.088 A 
HETATM    9  C15 UNL     1      26.823   2.709  51.222  1.00  0.00     0.150 A 
HETATM   10  N3  UNL     1      27.627   2.140  52.158  1.00  0.00    -0.246 NA
ENDROOT
BRANCH   4  11
HETATM   11  C7  UNL     1      23.005   0.250  53.032  1.00  0.00    -0.005 A 
HETATM   12  C8  UNL     1      23.474  -0.543  54.056  1.00  0.00     0.014 A 
HETATM   13  C9  UNL     1      22.618  -1.361  54.760  1.00  0.00     0.002 A 
HETATM   14  C10 UNL     1      21.266  -1.447  54.505  1.00  0.00     0.019 A 
HETATM   15  C11 UNL     1      20.780  -0.669  53.493  1.00  0.00     0.011 A 
HETATM   16 BR1  UNL     1      18.914  -0.775  53.127  1.00  0.00    -0.051 Br
HETATM   17  C12 UNL     1      21.630   0.152  52.784  1.00  0.00     0.032 A 
ENDBRANCH   4  11
BRANCH   1  18
HETATM   18  S1  UNL     1      28.276   0.609  54.211  1.00  0.00     0.213 S 
HETATM   19  O1  UNL     1      27.605  -0.285  55.222  1.00  0.00    -0.217 OA
HETATM   20  O2  UNL     1      28.935   1.710  55.003  1.00  0.00    -0.217 OA
BRANCH  18  21
HETATM   21  C2  UNL     1      29.516  -0.342  53.408  1.00  0.00     0.105 C 
HETATM   22  C1  UNL     1      29.260  -1.643  53.328  1.00  0.00     0.024 C 
ENDBRANCH  18  21
ENDBRANCH   1  18
TORSDOF 3
ENDMDL
MODEL 2
REMARK VINA RESULT:      -8.7      2.852      4.971
REMARK  3 active torsions:
REMARK  status: ('A' for Active; 'I' for Inactive)
REMARK    1  A    between atoms: C2_2  and  S1_3 
REMARK    2  A    between atoms: S1_3  and  C3_6 
REMARK    3  A    between atoms: C6_9  and  C7_10 
ROOT
HETATM    1  C3  UNL     1      26.904   0.962  53.576  1.00  0.00     0.155 A 
HETATM    2  C4  UNL     1      26.377   1.682  52.549  1.00  0.00     0.060 A 
HETATM    3  C5  UNL     1      25.085   1.502  52.133  1.00  0.00     0.027 A 
HETATM    4  C6  UNL     1      24.692   2.302  51.093  1.00  0.00     0.081 A 
HETATM    5  N1  UNL     1      23.398   2.114  50.701  1.00  0.00    -0.240 NA
HETATM    6  C13 UNL     1      22.574   1.231  51.270  1.00  0.00     0.234 A 
HETATM    7  N2  UNL     1      22.986   0.451  52.296  1.00  0.00    -0.240 NA
HETATM    8  C14 UNL     1      24.253   0.595  52.722  1.00  0.00     0.088 A 
HETATM    9  C15 UNL     1      24.801  -0.130  53.766  1.00  0.00     0.150 A 
HETATM   10  N3  UNL     1      26.083   0.050  54.177  1.00  0.00    -0.246 NA
ENDROOT
BRANCH   4  11
HETATM   11  C7  UNL     1      25.429   3.313  50.353  1.00  0.00    -0.005 A 
HETATM   12  C8  UNL     1      26.548   3.232  49.553  1.00  0.00     0.014 A 
HETATM   13  C9  UNL     1      27.079   4.362  48.972  1.00  0.00     0.002 A 
HETATM   14  C10 UNL     1      26.549   5.625  49.138  1.00  0.00     0.019 A 
HETATM   15  C11 UNL     1      25.440   5.727  49.928  1.00  0.00     0.011 A 
HETATM   16 BR1  UNL     1      24.695   7.464  50.169  1.00  0.00    -0.051 Br
HETATM   17  C12 UNL     1      24.902   4.601  50.513  1.00  0.00     0.032 A 
ENDBRANCH   4  11
BRANCH   1  18
HETATM   18  S1  UNL     1      28.513   1.086  54.204  1.00  0.00     0.213 S 
HETATM   19  O1  UNL     1      28.590   0.612  55.632  1.00  0.00    -0.217 OA
HETATM   20  O2  UNL     1      28.977   2.521  54.216  1.00  0.00    -0.217 OA
BRANCH  18  21
HETATM   21  C2  UNL     1      29.649   0.124  53.268  1.00  0.00     0.105 C 
HETATM   22  C1  UNL     1      29.687  -1.164  53.588  1.00  0.00     0.024 C 
ENDBRANCH  18  21
ENDBRANCH   1  18
TORSDOF 3
ENDMDL
MODEL 3
REMARK VINA RESULT:      -8.6      2.844      4.351
REMARK  3 active torsions:
REMARK  status: ('A' for Active; 'I' for Inactive)
REMARK    1  A    between atoms: C2_2  and  S1_3 
REMARK    2  A    between atoms: S1_3  and  C3_6 
REMARK    3  A    between atoms: C6_9  and  C7_10 
ROOT
HETATM    1  C3  UNL     1      25.676   0.169  54.118  1.00  0.00     0.155 A 
HETATM    2  C4  UNL     1      24.522   0.376  53.428  1.00  0.00     0.060 A 
HETATM    3  C5  UNL     1      23.356  -0.252  53.773  1.00  0.00     0.027 A 
HETATM    4  C6  UNL     1      22.274   0.058  52.992  1.00  0.00     0.081 A 
HETATM    5  N1  UNL     1      21.119  -0.570  53.360  1.00  0.00    -0.240 NA
HETATM    6  C13 UNL     1      21.034  -1.418  54.388  1.00  0.00     0.234 A 
HETATM    7  N2  UNL     1      22.118  -1.710  55.144  1.00  0.00    -0.240 NA
HETATM    8  C14 UNL     1      23.282  -1.118  54.826  1.00  0.00     0.088 A 
HETATM    9  C15 UNL     1      24.462  -1.319  55.520  1.00  0.00     0.150 A 
HETATM   10  N3  UNL     1      25.619  -0.694  55.175  1.00  0.00    -0.246 NA
ENDROOT
BRANCH   4  11
HETATM   11  C7  UNL     1      22.164   0.948  51.848  1.00  0.00    -0.005 A 
HETATM   12  C8  UNL     1      21.905   0.704  50.517  1.00  0.00     0.014 A 
HETATM   13  C9  UNL     1      21.878   1.736  49.606  1.00  0.00     0.002 A 
HETATM   14  C10 UNL     1      22.098   3.055  49.943  1.00  0.00     0.019 A 
HETATM   15  C11 UNL     1      22.357   3.319  51.258  1.00  0.00     0.011 A 
HETATM   16 BR1  UNL     1      22.664   5.136  51.741  1.00  0.00    -0.051 Br
HETATM   17  C12 UNL     1      22.386   2.291  52.175  1.00  0.00     0.032 A 
ENDBRANCH   4  11
BRANCH   1  18
HETATM   18  S1  UNL     1      27.215   0.894  53.793  1.00  0.00     0.213 S 
HETATM   19  O1  UNL     1      27.257   2.332  54.240  1.00  0.00    -0.217 OA
HETATM   20  O2  UNL     1      27.501   0.910  52.313  1.00  0.00    -0.217 OA
BRANCH  18  21
HETATM   21  C2  UNL     1      28.516   0.048  54.619  1.00  0.00     0.105 C 
HETATM   22  C1  UNL     1      29.336  -0.631  53.825  1.00  0.00     0.024 C 
ENDBRANCH  18  21
ENDBRANCH   1  18
TORSDOF 3
ENDMDL
MODEL 4
REMARK VINA RESULT:      -8.5      2.658      4.404
REMARK  3 active torsions:
REMARK  status: ('A' for Active; 'I' for Inactive)
REMARK    1  A    between atoms: C2_2  and  S1_3 
REMARK    2  A    between atoms: S1_3  and  C3_6 
REMARK    3  A    between atoms: C6_9  and  C7_10 
ROOT
HETATM    1  C3  UNL     1      25.648  -0.333  54.179  1.00  0.00     0.155 A 
HETATM    2  C4  UNL     1      24.668   0.364  53.542  1.00  0.00     0.060 A 
HETATM    3  C5  UNL     1      23.343   0.145  53.807  1.00  0.00     0.027 A 
HETATM    4  C6  UNL     1      22.471   0.925  53.095  1.00  0.00     0.081 A 
HETATM    5  N1  UNL     1      21.155   0.699  53.381  1.00  0.00    -0.240 NA
HETATM    6  C13 UNL     1      20.737  -0.201  54.274  1.00  0.00     0.234 A 
HETATM    7  N2  UNL     1      21.619  -0.961  54.964  1.00  0.00    -0.240 NA
HETATM    8  C14 UNL     1      22.929  -0.779  54.721  1.00  0.00     0.088 A 
HETATM    9  C15 UNL     1      23.935  -1.480  55.362  1.00  0.00     0.150 A 
HETATM   10  N3  UNL     1      25.250  -1.262  55.098  1.00  0.00    -0.246 NA
ENDROOT
BRANCH   4  11
HETATM   11  C7  UNL     1      22.726   1.950  52.096  1.00  0.00    -0.005 A 
HETATM   12  C8  UNL     1      23.205   3.238  52.203  1.00  0.00     0.014 A 
HETATM   13  C9  UNL     1      23.335   4.034  51.087  1.00  0.00     0.002 A 
HETATM   14  C10 UNL     1      23.008   3.618  49.813  1.00  0.00     0.019 A 
HETATM   15  C11 UNL     1      22.531   2.346  49.685  1.00  0.00     0.011 A 
HETATM   16 BR1  UNL     1      22.074   1.755  47.932  1.00  0.00    -0.051 Br
HETATM   17  C12 UNL     1      22.398   1.543  50.797  1.00  0.00     0.032 A 
ENDBRANCH   4  11
BRANCH   1  18
HETATM   18  S1  UNL     1      27.356  -0.160  53.944  1.00  0.00     0.213 S 
HETATM   19  O1  UNL     1      27.939  -1.347  53.224  1.00  0.00    -0.217 OA
HETATM   20  O2  UNL     1      28.075  -0.081  55.267  1.00  0.00    -0.217 OA
BRANCH  18  21
HETATM   21  C2  UNL     1      27.736   1.271  52.997  1.00  0.00     0.105 C 
HETATM   22  C1  UNL     1      28.550   2.136  53.592  1.00  0.00     0.024 C 
ENDBRANCH  18  21
ENDBRANCH   1  18
TORSDOF 3
ENDMDL
MODEL 5
REMARK VINA RESULT:      -8.0      4.212      6.742
REMARK  3 active torsions:
REMARK  status: ('A' for Active; 'I' for Inactive)
REMARK    1  A    between atoms: C2_2  and  S1_3 
REMARK    2  A    between atoms: S1_3  and  C3_6 
REMARK    3  A    between atoms: C6_9  and  C7_10 
ROOT
HETATM    1  C3  UNL     1      22.447   0.976  51.796  1.00  0.00     0.155 A 
HETATM    2  C4  UNL     1      23.586   0.796  52.518  1.00  0.00     0.060 A 
HETATM    3  C5  UNL     1      23.622  -0.028  53.610  1.00  0.00     0.027 A 
HETATM    4  C6  UNL     1      24.839  -0.116  54.233  1.00  0.00     0.081 A 
HETATM    5  N1  UNL     1      24.856  -0.951  55.313  1.00  0.00    -0.240 NA
HETATM    6  C13 UNL     1      23.788  -1.630  55.740  1.00  0.00     0.234 A 
HETATM    7  N2  UNL     1      22.596  -1.525  55.108  1.00  0.00    -0.240 NA
HETATM    8  C14 UNL     1      22.524  -0.716  54.037  1.00  0.00     0.088 A 
HETATM    9  C15 UNL     1      21.372  -0.524  53.294  1.00  0.00     0.150 A 
HETATM   10  N3  UNL     1      21.338   0.295  52.211  1.00  0.00    -0.246 NA
ENDROOT
BRANCH   4  11
HETATM   11  C7  UNL     1      26.104   0.530  53.923  1.00  0.00    -0.005 A 
HETATM   12  C8  UNL     1      26.416   1.837  53.614  1.00  0.00     0.014 A 
HETATM   13  C9  UNL     1      27.713   2.201  53.329  1.00  0.00     0.002 A 
HETATM   14  C10 UNL     1      28.770   1.315  53.333  1.00  0.00     0.019 A 
HETATM   15  C11 UNL     1      28.483   0.015  53.637  1.00  0.00     0.011 A 
HETATM   16 BR1  UNL     1      29.931  -1.222  53.646  1.00  0.00    -0.051 Br
HETATM   17  C12 UNL     1      27.187  -0.357  53.922  1.00  0.00     0.032 A 
ENDBRANCH   4  11
BRANCH   1  18
HETATM   18  S1  UNL     1      22.260   1.984  50.400  1.00  0.00     0.213 S 
HETATM   19  O1  UNL     1      22.009   1.168  49.158  1.00  0.00    -0.217 OA
HETATM   20  O2  UNL     1      23.517   2.772  50.132  1.00  0.00    -0.217 OA
BRANCH  18  21
HETATM   21  C2  UNL     1      20.911   3.097  50.581  1.00  0.00     0.105 C 
HETATM   22  C1  UNL     1      20.939   3.834  51.686  1.00  0.00     0.024 C 
ENDBRANCH  18  21
ENDBRANCH   1  18
TORSDOF 3
ENDMDL
MODEL 6
REMARK VINA RESULT:      -7.9      3.348      5.736
REMARK  3 active torsions:
REMARK  status: ('A' for Active; 'I' for Inactive)
REMARK    1  A    between atoms: C2_2  and  S1_3 
REMARK    2  A    between atoms: S1_3  and  C3_6 
REMARK    3  A    between atoms: C6_9  and  C7_10 
ROOT
HETATM    1  C3  UNL     1      24.357  -0.264  54.128  1.00  0.00     0.155 A 
HETATM    2  C4  UNL     1      24.912   0.675  53.315  1.00  0.00     0.060 A 
HETATM    3  C5  UNL     1      26.215   1.070  53.458  1.00  0.00     0.027 A 
HETATM    4  C6  UNL     1      26.636   2.019  52.564  1.00  0.00     0.081 A 
HETATM    5  N1  UNL     1      27.941   2.391  52.716  1.00  0.00    -0.240 NA
HETATM    6  C13 UNL     1      28.749   1.886  53.651  1.00  0.00     0.234 A 
HETATM    7  N2  UNL     1      28.309   0.951  54.524  1.00  0.00    -0.240 NA
HETATM    8  C14 UNL     1      27.031   0.547  54.418  1.00  0.00     0.088 A 
HETATM    9  C15 UNL     1      26.455  -0.407  55.238  1.00  0.00     0.150 A 
HETATM   10  N3  UNL     1      25.161  -0.798  55.095  1.00  0.00    -0.246 NA
ENDROOT
BRANCH   4  11
HETATM   11  C7  UNL     1      25.920   2.679  51.485  1.00  0.00    -0.005 A 
HETATM   12  C8  UNL     1      26.236   2.874  50.158  1.00  0.00     0.014 A 
HETATM   13  C9  UNL     1      25.384   3.568  49.328  1.00  0.00     0.002 A 
HETATM   14  C10 UNL     1      24.184   4.105  49.746  1.00  0.00     0.019 A 
HETATM   15  C11 UNL     1      23.852   3.923  51.057  1.00  0.00     0.011 A 
HETATM   16 BR1  UNL     1      22.197   4.657  51.651  1.00  0.00    -0.051 Br
HETATM   17  C12 UNL     1      24.699   3.230  51.894  1.00  0.00     0.032 A 
ENDBRANCH   4  11
BRANCH   1  18
HETATM   18  S1  UNL     1      22.731  -0.856  54.060  1.00  0.00     0.213 S 
HETATM   19  O1  UNL     1      22.403  -1.714  55.255  1.00  0.00    -0.217 OA
HETATM   20  O2  UNL     1      22.527  -1.733  52.851  1.00  0.00    -0.217 OA
BRANCH  18  21
HETATM   21  C2  UNL     1      21.565   0.459  54.019  1.00  0.00     0.105 C 
HETATM   22  C1  UNL     1      21.346   0.975  52.815  1.00  0.00     0.024 C 
ENDBRANCH  18  21
ENDBRANCH   1  18
TORSDOF 3
ENDMDL
MODEL 7
REMARK VINA RESULT:      -7.9      4.122      6.240
REMARK  3 active torsions:
REMARK  status: ('A' for Active; 'I' for Inactive)
REMARK    1  A    between atoms: C2_2  and  S1_3 
REMARK    2  A    between atoms: S1_3  and  C3_6 
REMARK    3  A    between atoms: C6_9  and  C7_10 
ROOT
HETATM    1  C3  UNL     1      23.550   2.694  50.731  1.00  0.00     0.155 A 
HETATM    2  C4  UNL     1      24.388   2.088  51.616  1.00  0.00     0.060 A 
HETATM    3  C5  UNL     1      23.961   1.075  52.431  1.00  0.00     0.027 A 
HETATM    4  C6  UNL     1      24.917   0.557  53.265  1.00  0.00     0.081 A 
HETATM    5  N1  UNL     1      24.474  -0.459  54.062  1.00  0.00    -0.240 NA
HETATM    6  C13 UNL     1      23.220  -0.919  54.045  1.00  0.00     0.234 A 
HETATM    7  N2  UNL     1      22.294  -0.390  53.213  1.00  0.00    -0.240 NA
HETATM    8  C14 UNL     1      22.677   0.614  52.405  1.00  0.00     0.088 A 
HETATM    9  C15 UNL     1      21.836   1.238  51.501  1.00  0.00     0.150 A 
HETATM   10  N3  UNL     1      22.261   2.244  50.692  1.00  0.00    -0.246 NA
ENDROOT
BRANCH   4  11
HETATM   11  C7  UNL     1      26.317   0.913  53.427  1.00  0.00    -0.005 A 
HETATM   12  C8  UNL     1      26.942   2.131  53.587  1.00  0.00     0.014 A 
HETATM   13  C9  UNL     1      28.313   2.208  53.697  1.00  0.00     0.002 A 
HETATM   14  C10 UNL     1      29.142   1.107  53.659  1.00  0.00     0.019 A 
HETATM   15  C11 UNL     1      28.543  -0.109  53.501  1.00  0.00     0.011 A 
HETATM   16 BR1  UNL     1      29.674  -1.641  53.446  1.00  0.00    -0.051 Br
HETATM   17  C12 UNL     1      27.172  -0.195  53.390  1.00  0.00     0.032 A 
ENDBRANCH   4  11
BRANCH   1  18
HETATM   18  S1  UNL     1      23.954   3.980  49.644  1.00  0.00     0.213 S 
HETATM   19  O1  UNL     1      23.492   5.315  50.168  1.00  0.00    -0.217 OA
HETATM   20  O2  UNL     1      23.269   3.796  48.314  1.00  0.00    -0.217 OA
BRANCH  18  21
HETATM   21  C2  UNL     1      25.689   4.088  49.386  1.00  0.00     0.105 C 
HETATM   22  C1  UNL     1      26.134   5.299  49.067  1.00  0.00     0.024 C 
ENDBRANCH  18  21
ENDBRANCH   1  18
TORSDOF 3
ENDMDL
MODEL 8
REMARK VINA RESULT:      -7.8      3.490      5.594
REMARK  3 active torsions:
REMARK  status: ('A' for Active; 'I' for Inactive)
REMARK    1  A    between atoms: C2_2  and  S1_3 
REMARK    2  A    between atoms: S1_3  and  C3_6 
REMARK    3  A    between atoms: C6_9  and  C7_10 
ROOT
HETATM    1  C3  UNL     1      22.833   1.618  51.664  1.00  0.00     0.155 A 
HETATM    2  C4  UNL     1      24.183   1.714  51.799  1.00  0.00     0.060 A 
HETATM    3  C5  UNL     1      24.927   2.545  51.005  1.00  0.00     0.027 A 
HETATM    4  C6  UNL     1      26.273   2.541  51.261  1.00  0.00     0.081 A 
HETATM    5  N1  UNL     1      26.996   3.385  50.466  1.00  0.00    -0.240 NA
HETATM    6  C13 UNL     1      26.454   4.151  49.517  1.00  0.00     0.234 A 
HETATM    7  N2  UNL     1      25.121   4.136  49.283  1.00  0.00    -0.240 NA
HETATM    8  C14 UNL     1      24.361   3.323  50.038  1.00  0.00     0.088 A 
HETATM    9  C15 UNL     1      22.988   3.217  49.912  1.00  0.00     0.150 A 
HETATM   10  N3  UNL     1      22.250   2.391  50.700  1.00  0.00    -0.246 NA
ENDROOT
BRANCH   4  11
HETATM   11  C7  UNL     1      27.043   1.792  52.239  1.00  0.00    -0.005 A 
HETATM   12  C8  UNL     1      27.866   2.199  53.267  1.00  0.00     0.014 A 
HETATM   13  C9  UNL     1      28.516   1.275  54.055  1.00  0.00     0.002 A 
HETATM   14  C10 UNL     1      28.397  -0.088  53.884  1.00  0.00     0.019 A 
HETATM   15  C11 UNL     1      27.587  -0.513  52.871  1.00  0.00     0.011 A 
HETATM   16 BR1  UNL     1      27.411  -2.394  52.621  1.00  0.00    -0.051 Br
HETATM   17  C12 UNL     1      26.933   0.405  52.078  1.00  0.00     0.032 A 
ENDBRANCH   4  11
BRANCH   1  18
HETATM   18  S1  UNL     1      21.772   0.613  52.595  1.00  0.00     0.213 S 
HETATM   19  O1  UNL     1      20.914  -0.255  51.712  1.00  0.00    -0.217 OA
HETATM   20  O2  UNL     1      20.818   1.448  53.410  1.00  0.00    -0.217 OA
BRANCH  18  21
HETATM   21  C2  UNL     1      22.667  -0.451  53.670  1.00  0.00     0.105 C 
HETATM   22  C1  UNL     1      21.916  -1.253  54.416  1.00  0.00     0.024 C 
ENDBRANCH  18  21
ENDBRANCH   1  18
TORSDOF 3
ENDMDL
MODEL 9
REMARK VINA RESULT:      -7.6      3.177      4.639
REMARK  3 active torsions:
REMARK  status: ('A' for Active; 'I' for Inactive)
REMARK    1  A    between atoms: C2_2  and  S1_3 
REMARK    2  A    between atoms: S1_3  and  C3_6 
REMARK    3  A    between atoms: C6_9  and  C7_10 
ROOT
HETATM    1  C3  UNL     1      24.536   3.141  51.356  1.00  0.00     0.155 A 
HETATM    2  C4  UNL     1      24.166   2.010  52.015  1.00  0.00     0.060 A 
HETATM    3  C5  UNL     1      25.072   1.034  52.333  1.00  0.00     0.027 A 
HETATM    4  C6  UNL     1      24.555  -0.043  53.003  1.00  0.00     0.081 A 
HETATM    5  N1  UNL     1      25.477  -0.999  53.321  1.00  0.00    -0.240 NA
HETATM    6  C13 UNL     1      26.772  -0.909  53.011  1.00  0.00     0.234 A 
HETATM    7  N2  UNL     1      27.258   0.165  52.348  1.00  0.00    -0.240 NA
HETATM    8  C14 UNL     1      26.393   1.138  52.011  1.00  0.00     0.088 A 
HETATM    9  C15 UNL     1      26.757   2.293  51.341  1.00  0.00     0.150 A 
HETATM   10  N3  UNL     1      25.856   3.260  51.026  1.00  0.00    -0.246 NA
ENDROOT
BRANCH   4  11
HETATM   11  C7  UNL     1      23.193  -0.322  53.429  1.00  0.00    -0.005 A 
HETATM   12  C8  UNL     1      22.691  -0.921  54.564  1.00  0.00     0.014 A 
HETATM   13  C9  UNL     1      21.334  -1.094  54.725  1.00  0.00     0.002 A 
HETATM   14  C10 UNL     1      20.400  -0.692  53.793  1.00  0.00     0.019 A 
HETATM   15  C11 UNL     1      20.877  -0.095  52.662  1.00  0.00     0.011 A 
HETATM   16 BR1  UNL     1      19.600   0.466  51.365  1.00  0.00    -0.051 Br
HETATM   17  C12 UNL     1      22.233   0.081  52.493  1.00  0.00     0.032 A 
ENDBRANCH   4  11
BRANCH   1  18
HETATM   18  S1  UNL     1      23.501   4.450  50.893  1.00  0.00     0.213 S 
HETATM   19  O1  UNL     1      23.927   5.056  49.580  1.00  0.00    -0.217 OA
HETATM   20  O2  UNL     1      23.561   5.567  51.904  1.00  0.00    -0.217 OA
BRANCH  18  21
HETATM   21  C2  UNL     1      21.834   3.925  50.714  1.00  0.00     0.105 C 
HETATM   22  C1  UNL     1      21.091   4.037  51.810  1.00  0.00     0.024 C 
ENDBRANCH  18  21
ENDBRANCH   1  18
TORSDOF 3
ENDMDL
