MODEL 1
REMARK VINA RESULT:      -8.0      0.000      0.000
REMARK  2 active torsions:
REMARK  status: ('A' for Active; 'I' for Inactive)
REMARK    1  A    between atoms: C4_4  and  C5_5 
REMARK    2  A    between atoms: C12_16  and  N5_17 
ROOT
HETATM    1  C5  UNL     1      23.789   3.615  52.314  1.00  0.00     0.101 C 
HETATM    2  N1  UNL     1      23.875   4.545  53.258  1.00  0.00    -0.158 NA
HETATM    3  N2  UNL     1      23.854   5.926  53.199  1.00  0.00    -0.220 N 
HETATM    4  N3  UNL     1      24.453   6.680  52.177  1.00  0.00    -0.295 N 
HETATM    5  C6  UNL     1      24.488   6.411  50.762  1.00  0.00     0.116 C 
HETATM    6  C7  UNL     1      24.133   5.259  50.145  1.00  0.00    -0.027 C 
HETATM    7  C8  UNL     1      24.241   5.189  48.665  1.00  0.00     0.071 C 
HETATM    8  C9  UNL     1      22.981   4.861  47.944  1.00  0.00     0.277 C 
HETATM    9  N4  UNL     1      22.061   3.939  48.454  1.00  0.00     0.092 N 
HETATM   10  C10 UNL     1      21.042   4.472  49.326  1.00  0.00     0.275 C 
HETATM   11  C11 UNL     1      20.454   3.474  50.312  1.00  0.00     0.070 C 
HETATM   12  C12 UNL     1      21.554   2.994  51.328  1.00  0.00     0.251 C 
HETATM   13  C13 UNL     1      22.742   3.328  50.511  1.00  0.00    -0.006 C 
HETATM   14  C14 UNL     1      23.639   4.136  50.993  1.00  0.00     0.009 C 
HETATM   15  C15 UNL     1      22.676   2.771  49.097  1.00  0.00     0.309 C 
HETATM   16  H4  UNL     1      23.396   6.491  53.909  1.00  0.00     0.210 HD
HETATM   17  H5  UNL     1      24.956   7.559  52.334  1.00  0.00     0.187 HD
ENDROOT
BRANCH   1  18
HETATM   18  C4  UNL     1      23.838   2.206  52.610  1.00  0.00     0.020 A 
HETATM   19  C3  UNL     1      23.107   1.228  53.083  1.00  0.00     0.028 A 
HETATM   20  C2  UNL     1      23.770  -0.066  53.144  1.00  0.00    -0.021 A 
HETATM   21  C1  UNL     1      23.190  -1.164  53.589  1.00  0.00     0.025 C 
HETATM   22  C17 UNL     1      25.092   0.279  52.612  1.00  0.00     0.066 A 
HETATM   23  C16 UNL     1      25.130   1.563  52.311  1.00  0.00     0.069 A 
HETATM   24 CL2  UNL     1      26.299  -0.996  52.486  1.00  0.00    -0.082 Cl
HETATM   25 CL1  UNL     1      26.643   2.174  51.653  1.00  0.00    -0.082 Cl
ENDBRANCH   1  18
BRANCH  12  26
HETATM   26  N5  UNL     1      21.386   3.861  52.468  1.00  0.00     0.087 N 
HETATM   27  H16 UNL     1      22.030   3.536  53.206  1.00  0.00     0.313 HD
HETATM   28  H17 UNL     1      20.422   3.871  52.811  1.00  0.00     0.313 HD
ENDBRANCH  12  26
TORSDOF 2
ENDMDL
MODEL 2
REMARK VINA RESULT:      -7.8      2.033      2.477
REMARK  2 active torsions:
REMARK  status: ('A' for Active; 'I' for Inactive)
REMARK    1  A    between atoms: C4_4  and  C5_5 
REMARK    2  A    between atoms: C12_16  and  N5_17 
ROOT
HETATM    1  C5  UNL     1      24.786   2.115  51.666  1.00  0.00     0.101 C 
HETATM    2  N1  UNL     1      26.076   2.384  51.834  1.00  0.00    -0.158 NA
HETATM    3  N2  UNL     1      26.905   3.328  51.258  1.00  0.00    -0.220 N 
HETATM    4  N3  UNL     1      26.833   3.723  49.912  1.00  0.00    -0.295 N 
HETATM    5  C6  UNL     1      25.663   3.952  49.102  1.00  0.00     0.116 C 
HETATM    6  C7  UNL     1      24.387   3.622  49.409  1.00  0.00    -0.027 C 
HETATM    7  C8  UNL     1      23.319   3.951  48.430  1.00  0.00     0.071 C 
HETATM    8  C9  UNL     1      22.223   4.820  48.941  1.00  0.00     0.277 C 
HETATM    9  N4  UNL     1      21.729   4.688  50.244  1.00  0.00     0.092 N 
HETATM   10  C10 UNL     1      22.388   5.476  51.258  1.00  0.00     0.275 C 
HETATM   11  C11 UNL     1      22.283   4.922  52.671  1.00  0.00     0.070 C 
HETATM   12  C12 UNL     1      23.027   3.541  52.775  1.00  0.00     0.251 C 
HETATM   13  C13 UNL     1      23.009   3.193  51.337  1.00  0.00    -0.006 C 
HETATM   14  C14 UNL     1      24.131   2.964  50.722  1.00  0.00     0.009 C 
HETATM   15  C15 UNL     1      21.627   3.300  50.710  1.00  0.00     0.309 C 
HETATM   16  H4  UNL     1      27.636   3.800  51.783  1.00  0.00     0.210 HD
HETATM   17  H5  UNL     1      27.653   3.910  49.326  1.00  0.00     0.187 HD
ENDROOT
BRANCH   1  18
HETATM   18  C4  UNL     1      24.116   1.062  52.386  1.00  0.00     0.020 A 
HETATM   19  C3  UNL     1      23.022   0.344  52.375  1.00  0.00     0.028 A 
HETATM   20  C2  UNL     1      22.912  -0.631  53.450  1.00  0.00    -0.021 A 
HETATM   21  C1  UNL     1      21.881  -1.442  53.598  1.00  0.00     0.025 C 
HETATM   22  C17 UNL     1      24.169  -0.393  54.165  1.00  0.00     0.066 A 
HETATM   23  C16 UNL     1      24.849   0.564  53.563  1.00  0.00     0.069 A 
HETATM   24 CL2  UNL     1      24.511  -1.361  55.595  1.00  0.00    -0.082 Cl
HETATM   25 CL1  UNL     1      26.399   0.998  54.275  1.00  0.00    -0.082 Cl
ENDBRANCH   1  18
BRANCH  12  26
HETATM   26  N5  UNL     1      24.342   3.883  53.260  1.00  0.00     0.087 N 
HETATM   27  H16 UNL     1      25.030   3.368  52.688  1.00  0.00     0.313 HD
HETATM   28  H17 UNL     1      24.461   3.661  54.252  1.00  0.00     0.313 HD
ENDBRANCH  12  26
TORSDOF 2
ENDMDL
MODEL 3
REMARK VINA RESULT:      -7.8      9.800     12.001
REMARK  2 active torsions:
REMARK  status: ('A' for Active; 'I' for Inactive)
REMARK    1  A    between atoms: C4_4  and  C5_5 
REMARK    2  A    between atoms: C12_16  and  N5_17 
ROOT
HETATM    1  C5  UNL     1      33.264   7.376  47.053  1.00  0.00     0.101 C 
HETATM    2  N1  UNL     1      34.092   8.394  47.257  1.00  0.00    -0.158 NA
HETATM    3  N2  UNL     1      35.423   8.443  47.627  1.00  0.00    -0.220 N 
HETATM    4  N3  UNL     1      36.017   7.567  48.550  1.00  0.00    -0.295 N 
HETATM    5  C6  UNL     1      35.808   6.150  48.710  1.00  0.00     0.116 C 
HETATM    6  C7  UNL     1      34.831   5.404  48.143  1.00  0.00    -0.027 C 
HETATM    7  C8  UNL     1      34.794   3.948  48.436  1.00  0.00     0.071 C 
HETATM    8  C9  UNL     1      34.868   3.052  47.250  1.00  0.00     0.277 C 
HETATM    9  N4  UNL     1      34.225   3.368  46.049  1.00  0.00     0.092 N 
HETATM   10  C10 UNL     1      34.990   4.146  45.103  1.00  0.00     0.275 C 
HETATM   11  C11 UNL     1      34.160   4.968  44.128  1.00  0.00     0.070 C 
HETATM   12  C12 UNL     1      33.346   6.072  44.897  1.00  0.00     0.251 C 
HETATM   13  C13 UNL     1      33.362   5.439  46.235  1.00  0.00    -0.006 C 
HETATM   14  C14 UNL     1      33.861   6.091  47.242  1.00  0.00     0.009 C 
HETATM   15  C15 UNL     1      32.906   3.988  46.219  1.00  0.00     0.309 C 
HETATM   16  H4  UNL     1      36.065   9.133  47.247  1.00  0.00     0.210 HD
HETATM   17  H5  UNL     1      36.709   7.855  49.249  1.00  0.00     0.187 HD
ENDROOT
BRANCH   1  18
HETATM   18  C4  UNL     1      31.889   7.562  46.668  1.00  0.00     0.020 A 
HETATM   19  C3  UNL     1      31.145   8.109  45.740  1.00  0.00     0.028 A 
HETATM   20  C2  UNL     1      29.711   7.948  45.922  1.00  0.00    -0.021 A 
HETATM   21  C1  UNL     1      28.810   8.430  45.087  1.00  0.00     0.025 C 
HETATM   22  C17 UNL     1      29.677   7.180  47.170  1.00  0.00     0.066 A 
HETATM   23  C16 UNL     1      30.909   6.962  47.592  1.00  0.00     0.069 A 
HETATM   24 CL2  UNL     1      28.110   6.725  47.829  1.00  0.00    -0.082 Cl
HETATM   25 CL1  UNL     1      31.081   6.050  49.086  1.00  0.00    -0.082 Cl
ENDBRANCH   1  18
BRANCH  12  26
HETATM   26  N5  UNL     1      34.177   7.248  44.815  1.00  0.00     0.087 N 
HETATM   27  H16 UNL     1      33.645   8.036  45.214  1.00  0.00     0.313 HD
HETATM   28  H17 UNL     1      34.463   7.455  43.855  1.00  0.00     0.313 HD
ENDBRANCH  12  26
TORSDOF 2
ENDMDL
MODEL 4
REMARK VINA RESULT:      -7.7      2.573      4.245
REMARK  2 active torsions:
REMARK  status: ('A' for Active; 'I' for Inactive)
REMARK    1  A    between atoms: C4_4  and  C5_5 
REMARK    2  A    between atoms: C12_16  and  N5_17 
ROOT
HETATM    1  C5  UNL     1      23.571   3.392  51.853  1.00  0.00     0.101 C 
HETATM    2  N1  UNL     1      24.029   2.944  53.016  1.00  0.00    -0.158 NA
HETATM    3  N2  UNL     1      25.310   2.829  53.522  1.00  0.00    -0.220 N 
HETATM    4  N3  UNL     1      26.430   2.461  52.757  1.00  0.00    -0.295 N 
HETATM    5  C6  UNL     1      26.771   2.855  51.413  1.00  0.00     0.116 C 
HETATM    6  C7  UNL     1      25.971   3.493  50.526  1.00  0.00    -0.027 C 
HETATM    7  C8  UNL     1      26.521   3.813  49.184  1.00  0.00     0.071 C 
HETATM    8  C9  UNL     1      26.499   5.253  48.807  1.00  0.00     0.277 C 
HETATM    9  N4  UNL     1      25.433   6.088  49.158  1.00  0.00     0.092 N 
HETATM   10  C10 UNL     1      25.541   6.757  50.433  1.00  0.00     0.275 C 
HETATM   11  C11 UNL     1      24.214   7.150  51.065  1.00  0.00     0.070 C 
HETATM   12  C12 UNL     1      23.376   5.868  51.423  1.00  0.00     0.251 C 
HETATM   13  C13 UNL     1      24.038   4.928  50.491  1.00  0.00    -0.006 C 
HETATM   14  C14 UNL     1      24.590   3.849  50.961  1.00  0.00     0.009 C 
HETATM   15  C15 UNL     1      24.114   5.450  49.064  1.00  0.00     0.309 C 
HETATM   16  H4  UNL     1      25.524   3.004  54.500  1.00  0.00     0.210 HD
HETATM   17  H5  UNL     1      27.173   1.841  53.092  1.00  0.00     0.187 HD
ENDROOT
BRANCH   1  18
HETATM   18  C4  UNL     1      22.167   3.417  51.532  1.00  0.00     0.020 A 
HETATM   19  C3  UNL     1      21.012   3.820  51.999  1.00  0.00     0.028 A 
HETATM   20  C2  UNL     1      19.866   3.529  51.151  1.00  0.00    -0.021 A 
HETATM   21  C1  UNL     1      18.627   3.861  51.458  1.00  0.00     0.025 C 
HETATM   22  C17 UNL     1      20.522   2.847  50.031  1.00  0.00     0.066 A 
HETATM   23  C16 UNL     1      21.822   2.784  50.247  1.00  0.00     0.069 A 
HETATM   24 CL2  UNL     1      19.520   2.276  48.701  1.00  0.00    -0.082 Cl
HETATM   25 CL1  UNL     1      22.790   1.996  49.007  1.00  0.00    -0.082 Cl
ENDBRANCH   1  18
BRANCH  12  26
HETATM   26  N5  UNL     1      23.691   5.613  52.807  1.00  0.00     0.087 N 
HETATM   27  H16 UNL     1      23.315   6.397  53.363  1.00  0.00     0.313 HD
HETATM   28  H17 UNL     1      24.697   5.510  52.964  1.00  0.00     0.313 HD
ENDBRANCH  12  26
TORSDOF 2
ENDMDL
MODEL 5
REMARK VINA RESULT:      -7.2      2.732      3.854
REMARK  2 active torsions:
REMARK  status: ('A' for Active; 'I' for Inactive)
REMARK    1  A    between atoms: C4_4  and  C5_5 
REMARK    2  A    between atoms: C12_16  and  N5_17 
ROOT
HETATM    1  C5  UNL     1      23.806   1.990  51.818  1.00  0.00     0.101 C 
HETATM    2  N1  UNL     1      24.296   1.627  52.998  1.00  0.00    -0.158 NA
HETATM    3  N2  UNL     1      25.515   1.866  53.605  1.00  0.00    -0.220 N 
HETATM    4  N3  UNL     1      26.743   1.892  52.923  1.00  0.00    -0.295 N 
HETATM    5  C6  UNL     1      27.042   2.450  51.628  1.00  0.00     0.116 C 
HETATM    6  C7  UNL     1      26.151   2.875  50.702  1.00  0.00    -0.027 C 
HETATM    7  C8  UNL     1      26.670   3.424  49.423  1.00  0.00     0.071 C 
HETATM    8  C9  UNL     1      26.244   4.813  49.100  1.00  0.00     0.277 C 
HETATM    9  N4  UNL     1      24.955   5.273  49.391  1.00  0.00     0.092 N 
HETATM   10  C10 UNL     1      24.770   5.865  50.694  1.00  0.00     0.275 C 
HETATM   11  C11 UNL     1      23.347   5.810  51.228  1.00  0.00     0.070 C 
HETATM   12  C12 UNL     1      22.908   4.319  51.466  1.00  0.00     0.251 C 
HETATM   13  C13 UNL     1      23.883   3.675  50.559  1.00  0.00    -0.006 C 
HETATM   14  C14 UNL     1      24.699   2.781  51.033  1.00  0.00     0.009 C 
HETATM   15  C15 UNL     1      23.898   4.280  49.164  1.00  0.00     0.309 C 
HETATM   16  H4  UNL     1      25.598   2.036  54.603  1.00  0.00     0.210 HD
HETATM   17  H5  UNL     1      27.613   1.500  53.296  1.00  0.00     0.187 HD
ENDROOT
BRANCH   1  18
HETATM   18  C4  UNL     1      22.484   1.618  51.383  1.00  0.00     0.020 A 
HETATM   19  C3  UNL     1      21.670   1.718  50.362  1.00  0.00     0.028 A 
HETATM   20  C2  UNL     1      20.370   1.091  50.543  1.00  0.00    -0.021 A 
HETATM   21  C1  UNL     1      19.425   1.091  49.623  1.00  0.00     0.025 C 
HETATM   22  C17 UNL     1      20.509   0.562  51.903  1.00  0.00     0.066 A 
HETATM   23  C16 UNL     1      21.704   0.860  52.377  1.00  0.00     0.069 A 
HETATM   24 CL2  UNL     1      19.149  -0.310  52.602  1.00  0.00    -0.082 Cl
HETATM   25 CL1  UNL     1      22.066   0.307  54.008  1.00  0.00    -0.082 Cl
ENDBRANCH   1  18
BRANCH  12  26
HETATM   26  N5  UNL     1      23.189   4.085  52.862  1.00  0.00     0.087 N 
HETATM   27  H16 UNL     1      23.346   5.002  53.307  1.00  0.00     0.313 HD
HETATM   28  H17 UNL     1      24.000   3.475  52.998  1.00  0.00     0.313 HD
ENDBRANCH  12  26
TORSDOF 2
ENDMDL
MODEL 6
REMARK VINA RESULT:      -7.1      9.594     11.683
REMARK  2 active torsions:
REMARK  status: ('A' for Active; 'I' for Inactive)
REMARK    1  A    between atoms: C4_4  and  C5_5 
REMARK    2  A    between atoms: C12_16  and  N5_17 
ROOT
HETATM    1  C5  UNL     1      33.145   6.538  48.244  1.00  0.00     0.101 C 
HETATM    2  N1  UNL     1      34.083   6.189  49.117  1.00  0.00    -0.158 NA
HETATM    3  N2  UNL     1      35.101   5.257  49.054  1.00  0.00    -0.220 N 
HETATM    4  N3  UNL     1      34.985   4.001  48.435  1.00  0.00    -0.295 N 
HETATM    5  C6  UNL     1      34.318   3.664  47.202  1.00  0.00     0.116 C 
HETATM    6  C7  UNL     1      33.478   4.453  46.492  1.00  0.00    -0.027 C 
HETATM    7  C8  UNL     1      32.896   3.912  45.237  1.00  0.00     0.071 C 
HETATM    8  C9  UNL     1      33.169   4.705  44.007  1.00  0.00     0.277 C 
HETATM    9  N4  UNL     1      33.189   6.104  44.025  1.00  0.00     0.092 N 
HETATM   10  C10 UNL     1      34.462   6.719  44.314  1.00  0.00     0.275 C 
HETATM   11  C11 UNL     1      34.379   8.118  44.907  1.00  0.00     0.070 C 
HETATM   12  C12 UNL     1      33.693   8.073  46.322  1.00  0.00     0.251 C 
HETATM   13  C13 UNL     1      32.982   6.786  46.160  1.00  0.00    -0.006 C 
HETATM   14  C14 UNL     1      33.204   5.825  47.007  1.00  0.00     0.009 C 
HETATM   15  C15 UNL     1      32.161   6.708  44.882  1.00  0.00     0.309 C 
HETATM   16  H4  UNL     1      36.016   5.426  49.465  1.00  0.00     0.210 HD
HETATM   17  H5  UNL     1      35.390   3.138  48.810  1.00  0.00     0.187 HD
ENDROOT
BRANCH   1  18
HETATM   18  C4  UNL     1      32.163   7.553  48.528  1.00  0.00     0.020 A 
HETATM   19  C3  UNL     1      32.054   8.817  48.851  1.00  0.00     0.028 A 
HETATM   20  C2  UNL     1      30.691   9.298  49.015  1.00  0.00    -0.021 A 
HETATM   21  C1  UNL     1      30.389  10.541  49.338  1.00  0.00     0.025 C 
HETATM   22  C17 UNL     1      29.933   8.075  48.733  1.00  0.00     0.066 A 
HETATM   23  C16 UNL     1      30.766   7.089  48.458  1.00  0.00     0.069 A 
HETATM   24 CL2  UNL     1      28.176   8.146  48.810  1.00  0.00    -0.082 Cl
HETATM   25 CL1  UNL     1      30.044   5.528  48.088  1.00  0.00    -0.082 Cl
ENDBRANCH   1  18
BRANCH  12  26
HETATM   26  N5  UNL     1      34.796   8.001  47.249  1.00  0.00     0.087 N 
HETATM   27  H16 UNL     1      34.407   8.052  48.202  1.00  0.00     0.313 HD
HETATM   28  H17 UNL     1      35.480   8.747  47.098  1.00  0.00     0.313 HD
ENDBRANCH  12  26
TORSDOF 2
ENDMDL
MODEL 7
REMARK VINA RESULT:      -7.1      2.804      3.495
REMARK  2 active torsions:
REMARK  status: ('A' for Active; 'I' for Inactive)
REMARK    1  A    between atoms: C4_4  and  C5_5 
REMARK    2  A    between atoms: C12_16  and  N5_17 
ROOT
HETATM    1  C5  UNL     1      24.176   1.981  51.545  1.00  0.00     0.101 C 
HETATM    2  N1  UNL     1      25.421   1.528  51.637  1.00  0.00    -0.158 NA
HETATM    3  N2  UNL     1      26.616   2.001  51.127  1.00  0.00    -0.220 N 
HETATM    4  N3  UNL     1      26.754   2.591  49.860  1.00  0.00    -0.295 N 
HETATM    5  C6  UNL     1      25.865   3.508  49.193  1.00  0.00     0.116 C 
HETATM    6  C7  UNL     1      24.601   3.826  49.559  1.00  0.00    -0.027 C 
HETATM    7  C8  UNL     1      23.851   4.804  48.730  1.00  0.00     0.071 C 
HETATM    8  C9  UNL     1      23.358   6.011  49.448  1.00  0.00     0.277 C 
HETATM    9  N4  UNL     1      22.870   5.938  50.757  1.00  0.00     0.092 N 
HETATM   10  C10 UNL     1      23.844   6.108  51.810  1.00  0.00     0.275 C 
HETATM   11  C11 UNL     1      23.473   5.462  53.137  1.00  0.00     0.070 C 
HETATM   12  C12 UNL     1      23.402   3.899  52.986  1.00  0.00     0.251 C 
HETATM   13  C13 UNL     1      23.204   3.847  51.520  1.00  0.00    -0.006 C 
HETATM   14  C14 UNL     1      24.047   3.184  50.786  1.00  0.00     0.009 C 
HETATM   15  C15 UNL     1      22.071   4.739  51.035  1.00  0.00     0.309 C 
HETATM   16  H4  UNL     1      27.487   1.945  51.649  1.00  0.00     0.210 HD
HETATM   17  H5  UNL     1      27.551   2.429  49.237  1.00  0.00     0.187 HD
ENDROOT
BRANCH   1  18
HETATM   18  C4  UNL     1      23.063   1.312  52.167  1.00  0.00     0.020 A 
HETATM   19  C3  UNL     1      22.666   0.823  53.315  1.00  0.00     0.028 A 
HETATM   20  C2  UNL     1      21.340   0.224  53.308  1.00  0.00    -0.021 A 
HETATM   21  C1  UNL     1      20.777  -0.317  54.371  1.00  0.00     0.025 C 
HETATM   22  C17 UNL     1      20.957   0.424  51.907  1.00  0.00     0.066 A 
HETATM   23  C16 UNL     1      21.931   1.039  51.262  1.00  0.00     0.069 A 
HETATM   24 CL2  UNL     1      19.380  -0.155  51.382  1.00  0.00    -0.082 Cl
HETATM   25 CL1  UNL     1      21.660   1.372  49.556  1.00  0.00    -0.082 Cl
ENDBRANCH   1  18
BRANCH  12  26
HETATM   26  N5  UNL     1      24.707   3.444  53.399  1.00  0.00     0.087 N 
HETATM   27  H16 UNL     1      24.801   3.635  54.408  1.00  0.00     0.313 HD
HETATM   28  H17 UNL     1      25.461   3.897  52.875  1.00  0.00     0.313 HD
ENDBRANCH  12  26
TORSDOF 2
ENDMDL
MODEL 8
REMARK VINA RESULT:      -7.1      2.417      3.231
REMARK  2 active torsions:
REMARK  status: ('A' for Active; 'I' for Inactive)
REMARK    1  A    between atoms: C4_4  and  C5_5 
REMARK    2  A    between atoms: C12_16  and  N5_17 
ROOT
HETATM    1  C5  UNL     1      21.347   2.423  51.578  1.00  0.00     0.101 C 
HETATM    2  N1  UNL     1      20.109   2.142  51.965  1.00  0.00    -0.158 NA
HETATM    3  N2  UNL     1      18.884   2.659  51.587  1.00  0.00    -0.220 N 
HETATM    4  N3  UNL     1      18.656   4.014  51.294  1.00  0.00    -0.295 N 
HETATM    5  C6  UNL     1      19.500   4.933  50.574  1.00  0.00     0.116 C 
HETATM    6  C7  UNL     1      20.791   4.739  50.216  1.00  0.00    -0.027 C 
HETATM    7  C8  UNL     1      21.486   5.820  49.470  1.00  0.00     0.071 C 
HETATM    8  C9  UNL     1      22.043   5.430  48.146  1.00  0.00     0.277 C 
HETATM    9  N4  UNL     1      22.629   4.177  47.935  1.00  0.00     0.092 N 
HETATM   10  C10 UNL     1      21.739   3.123  47.507  1.00  0.00     0.275 C 
HETATM   11  C11 UNL     1      22.203   1.715  47.847  1.00  0.00     0.070 C 
HETATM   12  C12 UNL     1      22.247   1.513  49.406  1.00  0.00     0.251 C 
HETATM   13  C13 UNL     1      22.334   2.939  49.792  1.00  0.00    -0.006 C 
HETATM   14  C14 UNL     1      21.431   3.442  50.580  1.00  0.00     0.009 C 
HETATM   15  C15 UNL     1      23.435   3.693  49.062  1.00  0.00     0.309 C 
HETATM   16  H4  UNL     1      18.054   2.078  51.501  1.00  0.00     0.210 HD
HETATM   17  H5  UNL     1      17.812   4.525  51.571  1.00  0.00     0.187 HD
ENDROOT
BRANCH   1  18
HETATM   18  C4  UNL     1      22.498   1.748  52.120  1.00  0.00     0.020 A 
HETATM   19  C3  UNL     1      22.995   0.551  52.309  1.00  0.00     0.028 A 
HETATM   20  C2  UNL     1      24.295   0.516  52.961  1.00  0.00    -0.021 A 
HETATM   21  C1  UNL     1      24.947  -0.598  53.231  1.00  0.00     0.025 C 
HETATM   22  C17 UNL     1      24.540   1.948  53.159  1.00  0.00     0.066 A 
HETATM   23  C16 UNL     1      23.524   2.644  52.683  1.00  0.00     0.069 A 
HETATM   24 CL2  UNL     1      26.038   2.438  53.942  1.00  0.00    -0.082 Cl
HETATM   25 CL1  UNL     1      23.630   4.394  52.827  1.00  0.00    -0.082 Cl
ENDBRANCH   1  18
BRANCH  12  26
HETATM   26  N5  UNL     1      20.973   0.915  49.722  1.00  0.00     0.087 N 
HETATM   27  H16 UNL     1      20.267   1.668  49.726  1.00  0.00     0.313 HD
HETATM   28  H17 UNL     1      20.984   0.427  50.621  1.00  0.00     0.313 HD
ENDBRANCH  12  26
TORSDOF 2
ENDMDL
MODEL 9
REMARK VINA RESULT:      -7.1      8.472     10.621
REMARK  2 active torsions:
REMARK  status: ('A' for Active; 'I' for Inactive)
REMARK    1  A    between atoms: C4_4  and  C5_5 
REMARK    2  A    between atoms: C12_16  and  N5_17 
ROOT
HETATM    1  C5  UNL     1      31.278   7.343  48.584  1.00  0.00     0.101 C 
HETATM    2  N1  UNL     1      30.244   6.518  48.703  1.00  0.00    -0.158 NA
HETATM    3  N2  UNL     1      28.881   6.744  48.723  1.00  0.00    -0.220 N 
HETATM    4  N3  UNL     1      28.274   7.851  49.339  1.00  0.00    -0.295 N 
HETATM    5  C6  UNL     1      28.712   9.224  49.356  1.00  0.00     0.116 C 
HETATM    6  C7  UNL     1      29.919   9.696  48.963  1.00  0.00    -0.027 C 
HETATM    7  C8  UNL     1      30.170  11.157  49.059  1.00  0.00     0.071 C 
HETATM    8  C9  UNL     1      30.544  11.830  47.785  1.00  0.00     0.277 C 
HETATM    9  N4  UNL     1      31.370  11.209  46.842  1.00  0.00     0.092 N 
HETATM   10  C10 UNL     1      30.704  10.405  45.844  1.00  0.00     0.275 C 
HETATM   11  C11 UNL     1      31.558   9.304  45.233  1.00  0.00     0.070 C 
HETATM   12  C12 UNL     1      31.945   8.240  46.325  1.00  0.00     0.251 C 
HETATM   13  C13 UNL     1      31.748   9.095  47.517  1.00  0.00    -0.006 C 
HETATM   14  C14 UNL     1      30.916   8.717  48.441  1.00  0.00     0.009 C 
HETATM   15  C15 UNL     1      32.470  10.431  47.425  1.00  0.00     0.309 C 
HETATM   16  H4  UNL     1      28.220   6.106  48.288  1.00  0.00     0.210 HD
HETATM   17  H5  UNL     1      27.398   7.803  49.869  1.00  0.00     0.187 HD
ENDROOT
BRANCH   1  18
HETATM   18  C4  UNL     1      32.642   6.879  48.593  1.00  0.00     0.020 A 
HETATM   19  C3  UNL     1      33.860   7.268  48.873  1.00  0.00     0.028 A 
HETATM   20  C2  UNL     1      34.895   6.269  48.655  1.00  0.00    -0.021 A 
HETATM   21  C1  UNL     1      36.176   6.483  48.884  1.00  0.00     0.025 C 
HETATM   22  C17 UNL     1      34.090   5.144  48.170  1.00  0.00     0.066 A 
HETATM   23  C16 UNL     1      32.817   5.489  48.135  1.00  0.00     0.069 A 
HETATM   24 CL2  UNL     1      34.916   3.647  47.752  1.00  0.00    -0.082 Cl
HETATM   25 CL1  UNL     1      31.683   4.265  47.576  1.00  0.00    -0.082 Cl
ENDBRANCH   1  18
BRANCH  12  26
HETATM   26  N5  UNL     1      30.942   7.213  46.191  1.00  0.00     0.087 N 
HETATM   27  H16 UNL     1      30.206   7.401  46.888  1.00  0.00     0.313 HD
HETATM   28  H17 UNL     1      31.328   6.274  46.319  1.00  0.00     0.313 HD
ENDBRANCH  12  26
TORSDOF 2
ENDMDL
