MODEL 1
REMARK VINA RESULT:      -8.8      0.000      0.000
REMARK  4 active torsions:
REMARK  status: ('A' for Active; 'I' for Inactive)
REMARK    1  A    between atoms: N1_2  and  C2_3 
REMARK    2  A    between atoms: C2_3  and  S1_4 
REMARK    3  A    between atoms: S1_4  and  N2_5 
REMARK    4  A    between atoms: N2_5  and  C3_6 
ROOT
HETATM    1  C3  UNL     1      22.458   1.742  53.056  1.00  0.00     0.089 C 
HETATM    2  C4  UNL     1      23.557   1.742  52.249  1.00  0.00     0.028 C 
HETATM    3  C5  UNL     1      24.749   2.466  52.673  1.00  0.00     0.047 C 
HETATM    4  C6  UNL     1      25.965   1.589  52.898  1.00  0.00    -0.047 A 
HETATM    5  C7  UNL     1      26.983   2.512  53.225  1.00  0.00     0.009 A 
HETATM    6  C8  UNL     1      28.305   2.178  53.518  1.00  0.00     0.013 A 
HETATM    7  C9  UNL     1      28.695   0.857  53.499  1.00  0.00    -0.025 A 
HETATM    8  C10 UNL     1      29.941   0.360  53.746  1.00  0.00     0.012 A 
HETATM    9  C11 UNL     1      30.220  -1.010  53.685  1.00  0.00     0.001 A 
HETATM   10  C12 UNL     1      29.172  -1.881  53.358  1.00  0.00     0.001 A 
HETATM   11  C13 UNL     1      27.876  -1.467  53.091  1.00  0.00     0.013 A 
HETATM   12  C14 UNL     1      27.766  -0.101  53.192  1.00  0.00    -0.015 A 
HETATM   13  C15 UNL     1      26.505   0.281  52.919  1.00  0.00    -0.022 A 
HETATM   14  C16 UNL     1      25.393  -0.580  52.566  1.00  0.00     0.001 C 
HETATM   15  C17 UNL     1      24.249  -0.835  53.113  1.00  0.00     0.118 C 
HETATM   16  C18 UNL     1      23.083  -0.892  53.982  1.00  0.00     0.226 C 
HETATM   17  O1  UNL     1      22.320  -0.767  54.949  1.00  0.00    -0.273 OA
HETATM   18  N3  UNL     1      21.946  -1.454  53.250  1.00  0.00    -0.357 N 
HETATM   19  C19 UNL     1      20.672  -1.322  54.007  1.00  0.00     0.149 C 
HETATM   20  C20 UNL     1      20.550   0.217  54.228  1.00  0.00    -0.009 C 
HETATM   21  C21 UNL     1      21.279   1.311  53.834  1.00  0.00     0.001 C 
HETATM   22  H15 UNL     1      21.967  -1.899  52.328  1.00  0.00     0.162 HD
ENDROOT
BRANCH   1  23
HETATM   23  N2  UNL     1      21.827   0.883  52.031  1.00  0.00    -0.156 NA
BRANCH  23  24
HETATM   24  S1  UNL     1      22.214   1.330  50.495  1.00  0.00    -0.020 SA
BRANCH  24  25
HETATM   25  C2  UNL     1      20.903   1.136  49.479  1.00  0.00     0.140 C 
BRANCH  25  26
HETATM   26  N1  UNL     1      21.559   1.062  48.212  1.00  0.00    -0.400 NA
HETATM   27  C1  UNL     1      22.317   2.046  47.856  1.00  0.00     0.314 C 
ENDBRANCH  25  26
ENDBRANCH  24  25
ENDBRANCH  23  24
ENDBRANCH   1  23
TORSDOF 4
ENDMDL
MODEL 2
REMARK VINA RESULT:      -8.5      2.821      4.576
REMARK  4 active torsions:
REMARK  status: ('A' for Active; 'I' for Inactive)
REMARK    1  A    between atoms: N1_2  and  C2_3 
REMARK    2  A    between atoms: C2_3  and  S1_4 
REMARK    3  A    between atoms: S1_4  and  N2_5 
REMARK    4  A    between atoms: N2_5  and  C3_6 
ROOT
HETATM    1  C3  UNL     1      23.509   2.592  50.728  1.00  0.00     0.089 C 
HETATM    2  C4  UNL     1      23.881   2.087  51.938  1.00  0.00     0.028 C 
HETATM    3  C5  UNL     1      24.141   0.657  52.060  1.00  0.00     0.047 C 
HETATM    4  C6  UNL     1      25.570   0.314  52.432  1.00  0.00    -0.047 A 
HETATM    5  C7  UNL     1      25.550  -1.093  52.557  1.00  0.00     0.009 A 
HETATM    6  C8  UNL     1      26.648  -1.886  52.894  1.00  0.00     0.013 A 
HETATM    7  C9  UNL     1      27.868  -1.292  53.134  1.00  0.00    -0.025 A 
HETATM    8  C10 UNL     1      29.032  -1.910  53.485  1.00  0.00     0.012 A 
HETATM    9  C11 UNL     1      30.213  -1.196  53.714  1.00  0.00     0.001 A 
HETATM   10  C12 UNL     1      30.177   0.198  53.575  1.00  0.00     0.001 A 
HETATM   11  C13 UNL     1      29.040   0.911  53.222  1.00  0.00     0.013 A 
HETATM   12  C14 UNL     1      27.971   0.069  53.032  1.00  0.00    -0.015 A 
HETATM   13  C15 UNL     1      26.879   0.781  52.702  1.00  0.00    -0.022 A 
HETATM   14  C16 UNL     1      26.790   2.221  52.557  1.00  0.00     0.001 C 
HETATM   15  C17 UNL     1      26.505   3.006  51.568  1.00  0.00     0.118 C 
HETATM   16  C18 UNL     1      26.158   3.574  50.274  1.00  0.00     0.226 C 
HETATM   17  O1  UNL     1      25.932   3.715  49.065  1.00  0.00    -0.273 OA
HETATM   18  N3  UNL     1      25.708   4.957  50.446  1.00  0.00    -0.357 N 
HETATM   19  C19 UNL     1      25.121   5.515  49.197  1.00  0.00     0.149 C 
HETATM   20  C20 UNL     1      23.951   4.531  48.888  1.00  0.00    -0.009 C 
HETATM   21  C21 UNL     1      23.410   3.442  49.523  1.00  0.00     0.001 C 
HETATM   22  H15 UNL     1      25.769   5.523  51.297  1.00  0.00     0.162 HD
ENDROOT
BRANCH   1  23
HETATM   23  N2  UNL     1      23.481   3.910  51.396  1.00  0.00    -0.156 NA
BRANCH  23  24
HETATM   24  S1  UNL     1      22.184   4.094  52.393  1.00  0.00    -0.020 SA
BRANCH  24  25
HETATM   25  C2  UNL     1      20.760   4.017  51.523  1.00  0.00     0.140 C 
BRANCH  25  26
HETATM   26  N1  UNL     1      19.938   3.274  52.426  1.00  0.00    -0.400 NA
HETATM   27  C1  UNL     1      20.293   2.069  52.727  1.00  0.00     0.314 C 
ENDBRANCH  25  26
ENDBRANCH  24  25
ENDBRANCH  23  24
ENDBRANCH   1  23
TORSDOF 4
ENDMDL
MODEL 3
REMARK VINA RESULT:      -8.3      4.443      5.917
REMARK  4 active torsions:
REMARK  status: ('A' for Active; 'I' for Inactive)
REMARK    1  A    between atoms: N1_2  and  C2_3 
REMARK    2  A    between atoms: C2_3  and  S1_4 
REMARK    3  A    between atoms: S1_4  and  N2_5 
REMARK    4  A    between atoms: N2_5  and  C3_6 
ROOT
HETATM    1  C3  UNL     1      23.586   3.166  51.510  1.00  0.00     0.089 C 
HETATM    2  C4  UNL     1      23.781   3.616  50.239  1.00  0.00     0.028 C 
HETATM    3  C5  UNL     1      23.911   5.050  50.006  1.00  0.00     0.047 C 
HETATM    4  C6  UNL     1      25.259   5.472  49.454  1.00  0.00    -0.047 A 
HETATM    5  C7  UNL     1      25.112   6.862  49.252  1.00  0.00     0.009 A 
HETATM    6  C8  UNL     1      26.100   7.709  48.747  1.00  0.00     0.013 A 
HETATM    7  C9  UNL     1      27.329   7.191  48.403  1.00  0.00    -0.025 A 
HETATM    8  C10 UNL     1      28.395   7.869  47.887  1.00  0.00     0.012 A 
HETATM    9  C11 UNL     1      29.597   7.229  47.564  1.00  0.00     0.001 A 
HETATM   10  C12 UNL     1      29.688   5.848  47.786  1.00  0.00     0.001 A 
HETATM   11  C13 UNL     1      28.658   5.079  48.307  1.00  0.00     0.013 A 
HETATM   12  C14 UNL     1      27.552   5.851  48.570  1.00  0.00    -0.015 A 
HETATM   13  C15 UNL     1      26.563   5.084  49.063  1.00  0.00    -0.022 A 
HETATM   14  C16 UNL     1      26.606   3.655  49.299  1.00  0.00     0.001 C 
HETATM   15  C17 UNL     1      26.495   2.918  50.358  1.00  0.00     0.118 C 
HETATM   16  C18 UNL     1      26.339   2.411  51.712  1.00  0.00     0.226 C 
HETATM   17  O1  UNL     1      26.259   2.334  52.945  1.00  0.00    -0.273 OA
HETATM   18  N3  UNL     1      25.985   0.991  51.673  1.00  0.00    -0.357 N 
HETATM   19  C19 UNL     1      25.585   0.475  53.010  1.00  0.00     0.149 C 
HETATM   20  C20 UNL     1      24.381   1.389  53.395  1.00  0.00    -0.009 C 
HETATM   21  C21 UNL     1      23.689   2.392  52.765  1.00  0.00     0.001 C 
HETATM   22  H15 UNL     1      25.997   0.376  50.854  1.00  0.00     0.162 HD
ENDROOT
BRANCH   1  23
HETATM   23  N2  UNL     1      23.590   1.808  50.926  1.00  0.00    -0.156 NA
BRANCH  23  24
HETATM   24  S1  UNL     1      22.263   1.507  50.000  1.00  0.00    -0.020 SA
BRANCH  24  25
HETATM   25  C2  UNL     1      21.246   0.426  50.766  1.00  0.00     0.140 C 
BRANCH  25  26
HETATM   26  N1  UNL     1      20.409   1.323  51.499  1.00  0.00    -0.400 NA
HETATM   27  C1  UNL     1      20.234   1.105  52.759  1.00  0.00     0.314 C 
ENDBRANCH  25  26
ENDBRANCH  24  25
ENDBRANCH  23  24
ENDBRANCH   1  23
TORSDOF 4
ENDMDL
MODEL 4
REMARK VINA RESULT:      -8.2      2.707      4.446
REMARK  4 active torsions:
REMARK  status: ('A' for Active; 'I' for Inactive)
REMARK    1  A    between atoms: N1_2  and  C2_3 
REMARK    2  A    between atoms: C2_3  and  S1_4 
REMARK    3  A    between atoms: S1_4  and  N2_5 
REMARK    4  A    between atoms: N2_5  and  C3_6 
ROOT
HETATM    1  C3  UNL     1      21.485   1.423  50.864  1.00  0.00     0.089 C 
HETATM    2  C4  UNL     1      21.991   1.524  52.125  1.00  0.00     0.028 C 
HETATM    3  C5  UNL     1      22.681   0.379  52.706  1.00  0.00     0.047 C 
HETATM    4  C6  UNL     1      24.145   0.623  53.015  1.00  0.00    -0.047 A 
HETATM    5  C7  UNL     1      24.561  -0.583  53.622  1.00  0.00     0.009 A 
HETATM    6  C8  UNL     1      25.849  -0.844  54.090  1.00  0.00     0.013 A 
HETATM    7  C9  UNL     1      26.825   0.122  53.973  1.00  0.00    -0.025 A 
HETATM    8  C10 UNL     1      28.122   0.039  54.385  1.00  0.00     0.012 A 
HETATM    9  C11 UNL     1      29.023   1.097  54.221  1.00  0.00     0.001 A 
HETATM   10  C12 UNL     1      28.558   2.270  53.611  1.00  0.00     0.001 A 
HETATM   11  C13 UNL     1      27.258   2.444  53.161  1.00  0.00     0.013 A 
HETATM   12  C14 UNL     1      26.502   1.320  53.394  1.00  0.00    -0.015 A 
HETATM   13  C15 UNL     1      25.243   1.514  52.960  1.00  0.00    -0.022 A 
HETATM   14  C16 UNL     1      24.714   2.710  52.334  1.00  0.00     0.001 C 
HETATM   15  C17 UNL     1      24.203   2.962  51.172  1.00  0.00     0.118 C 
HETATM   16  C18 UNL     1      23.701   2.894  49.809  1.00  0.00     0.226 C 
HETATM   17  O1  UNL     1      23.445   2.513  48.658  1.00  0.00    -0.273 OA
HETATM   18  N3  UNL     1      22.845   4.051  49.537  1.00  0.00    -0.357 N 
HETATM   19  C19 UNL     1      22.117   3.920  48.246  1.00  0.00     0.149 C 
HETATM   20  C20 UNL     1      21.310   2.598  48.428  1.00  0.00    -0.009 C 
HETATM   21  C21 UNL     1      21.131   1.709  49.458  1.00  0.00     0.001 C 
HETATM   22  H15 UNL     1      22.725   4.880  50.127  1.00  0.00     0.162 HD
ENDROOT
BRANCH   1  23
HETATM   23  N2  UNL     1      21.048   2.826  51.032  1.00  0.00    -0.156 NA
BRANCH  23  24
HETATM   24  S1  UNL     1      19.702   2.968  51.968  1.00  0.00    -0.020 SA
BRANCH  24  25
HETATM   25  C2  UNL     1      18.545   3.892  51.195  1.00  0.00     0.140 C 
BRANCH  25  26
HETATM   26  N1  UNL     1      17.387   3.566  51.966  1.00  0.00    -0.400 NA
HETATM   27  C1  UNL     1      16.331   4.297  51.824  1.00  0.00     0.314 C 
ENDBRANCH  25  26
ENDBRANCH  24  25
ENDBRANCH  23  24
ENDBRANCH   1  23
TORSDOF 4
ENDMDL
MODEL 5
REMARK VINA RESULT:      -8.1      4.470      5.798
REMARK  4 active torsions:
REMARK  status: ('A' for Active; 'I' for Inactive)
REMARK    1  A    between atoms: N1_2  and  C2_3 
REMARK    2  A    between atoms: C2_3  and  S1_4 
REMARK    3  A    between atoms: S1_4  and  N2_5 
REMARK    4  A    between atoms: N2_5  and  C3_6 
ROOT
HETATM    1  C3  UNL     1      23.460   3.237  51.286  1.00  0.00     0.089 C 
HETATM    2  C4  UNL     1      23.739   3.639  50.014  1.00  0.00     0.028 C 
HETATM    3  C5  UNL     1      23.886   5.063  49.737  1.00  0.00     0.047 C 
HETATM    4  C6  UNL     1      25.268   5.465  49.259  1.00  0.00    -0.047 A 
HETATM    5  C7  UNL     1      25.138   6.847  48.996  1.00  0.00     0.009 A 
HETATM    6  C8  UNL     1      26.158   7.674  48.525  1.00  0.00     0.013 A 
HETATM    7  C9  UNL     1      27.406   7.145  48.282  1.00  0.00    -0.025 A 
HETATM    8  C10 UNL     1      28.505   7.803  47.812  1.00  0.00     0.012 A 
HETATM    9  C11 UNL     1      29.724   7.153  47.594  1.00  0.00     0.001 A 
HETATM   10  C12 UNL     1      29.798   5.781  47.872  1.00  0.00     0.001 A 
HETATM   11  C13 UNL     1      28.734   5.031  48.353  1.00  0.00     0.013 A 
HETATM   12  C14 UNL     1      27.615   5.812  48.513  1.00  0.00    -0.015 A 
HETATM   13  C15 UNL     1      26.594   5.064  48.969  1.00  0.00    -0.022 A 
HETATM   14  C16 UNL     1      26.619   3.644  49.261  1.00  0.00     0.001 C 
HETATM   15  C17 UNL     1      26.437   2.947  50.337  1.00  0.00     0.118 C 
HETATM   16  C18 UNL     1      26.192   2.492  51.696  1.00  0.00     0.226 C 
HETATM   17  O1  UNL     1      26.031   2.460  52.923  1.00  0.00    -0.273 OA
HETATM   18  N3  UNL     1      25.839   1.071  51.687  1.00  0.00    -0.357 N 
HETATM   19  C19 UNL     1      25.351   0.605  53.013  1.00  0.00     0.149 C 
HETATM   20  C20 UNL     1      24.126   1.532  53.284  1.00  0.00    -0.009 C 
HETATM   21  C21 UNL     1      23.478   2.510  52.572  1.00  0.00     0.001 C 
HETATM   22  H15 UNL     1      25.904   0.426  50.894  1.00  0.00     0.162 HD
ENDROOT
BRANCH   1  23
HETATM   23  N2  UNL     1      23.500   1.858  50.754  1.00  0.00    -0.156 NA
BRANCH  23  24
HETATM   24  S1  UNL     1      22.002   1.206  50.555  1.00  0.00    -0.020 SA
BRANCH  24  25
HETATM   25  C2  UNL     1      21.583   1.178  48.939  1.00  0.00     0.140 C 
BRANCH  25  26
HETATM   26  N1  UNL     1      20.544   2.159  48.918  1.00  0.00    -0.400 NA
HETATM   27  C1  UNL     1      20.243   2.708  47.788  1.00  0.00     0.314 C 
ENDBRANCH  25  26
ENDBRANCH  24  25
ENDBRANCH  23  24
ENDBRANCH   1  23
TORSDOF 4
ENDMDL
MODEL 6
REMARK VINA RESULT:      -8.0      2.986      5.203
REMARK  4 active torsions:
REMARK  status: ('A' for Active; 'I' for Inactive)
REMARK    1  A    between atoms: N1_2  and  C2_3 
REMARK    2  A    between atoms: C2_3  and  S1_4 
REMARK    3  A    between atoms: S1_4  and  N2_5 
REMARK    4  A    between atoms: N2_5  and  C3_6 
ROOT
HETATM    1  C3  UNL     1      20.393   2.853  49.871  1.00  0.00     0.089 C 
HETATM    2  C4  UNL     1      21.054   2.981  51.056  1.00  0.00     0.028 C 
HETATM    3  C5  UNL     1      21.140   1.831  51.948  1.00  0.00     0.047 C 
HETATM    4  C6  UNL     1      22.551   1.334  52.189  1.00  0.00    -0.047 A 
HETATM    5  C7  UNL     1      22.378   0.285  53.120  1.00  0.00     0.009 A 
HETATM    6  C8  UNL     1      23.406  -0.490  53.657  1.00  0.00     0.013 A 
HETATM    7  C9  UNL     1      24.709  -0.249  53.280  1.00  0.00    -0.025 A 
HETATM    8  C10 UNL     1      25.827  -0.898  53.714  1.00  0.00     0.012 A 
HETATM    9  C11 UNL     1      27.107  -0.555  53.264  1.00  0.00     0.001 A 
HETATM   10  C12 UNL     1      27.221   0.492  52.340  1.00  0.00     0.001 A 
HETATM   11  C13 UNL     1      26.141   1.207  51.844  1.00  0.00     0.013 A 
HETATM   12  C14 UNL     1      24.961   0.751  52.380  1.00  0.00    -0.015 A 
HETATM   13  C15 UNL     1      23.930   1.465  51.895  1.00  0.00    -0.022 A 
HETATM   14  C16 UNL     1      23.999   2.560  50.948  1.00  0.00     0.001 C 
HETATM   15  C17 UNL     1      23.528   2.746  49.756  1.00  0.00     0.118 C 
HETATM   16  C18 UNL     1      22.874   2.618  48.464  1.00  0.00     0.226 C 
HETATM   17  O1  UNL     1      22.301   2.158  47.467  1.00  0.00    -0.273 OA
HETATM   18  N3  UNL     1      22.696   3.941  47.864  1.00  0.00    -0.357 N 
HETATM   19  C19 UNL     1      21.829   3.899  46.656  1.00  0.00     0.149 C 
HETATM   20  C20 UNL     1      20.497   3.296  47.199  1.00  0.00    -0.009 C 
HETATM   21  C21 UNL     1      20.039   2.923  48.438  1.00  0.00     0.001 C 
HETATM   22  H15 UNL     1      23.099   4.825  48.191  1.00  0.00     0.162 HD
ENDROOT
BRANCH   1  23
HETATM   23  N2  UNL     1      20.759   4.265  49.626  1.00  0.00    -0.156 NA
BRANCH  23  24
HETATM   24  S1  UNL     1      20.885   5.142  51.013  1.00  0.00    -0.020 SA
BRANCH  24  25
HETATM   25  C2  UNL     1      21.572   6.632  50.705  1.00  0.00     0.140 C 
BRANCH  25  26
HETATM   26  N1  UNL     1      22.836   6.236  50.169  1.00  0.00    -0.400 NA
HETATM   27  C1  UNL     1      23.875   6.315  50.931  1.00  0.00     0.314 C 
ENDBRANCH  25  26
ENDBRANCH  24  25
ENDBRANCH  23  24
ENDBRANCH   1  23
TORSDOF 4
ENDMDL
MODEL 7
REMARK VINA RESULT:      -7.7      3.541      5.743
REMARK  4 active torsions:
REMARK  status: ('A' for Active; 'I' for Inactive)
REMARK    1  A    between atoms: N1_2  and  C2_3 
REMARK    2  A    between atoms: C2_3  and  S1_4 
REMARK    3  A    between atoms: S1_4  and  N2_5 
REMARK    4  A    between atoms: N2_5  and  C3_6 
ROOT
HETATM    1  C3  UNL     1      23.782   4.919  49.535  1.00  0.00     0.089 C 
HETATM    2  C4  UNL     1      23.685   3.561  49.488  1.00  0.00     0.028 C 
HETATM    3  C5  UNL     1      24.628   2.755  50.255  1.00  0.00     0.047 C 
HETATM    4  C6  UNL     1      23.989   1.913  51.341  1.00  0.00    -0.047 A 
HETATM    5  C7  UNL     1      25.076   1.188  51.879  1.00  0.00     0.009 A 
HETATM    6  C8  UNL     1      24.988   0.263  52.920  1.00  0.00     0.013 A 
HETATM    7  C9  UNL     1      23.764   0.004  53.498  1.00  0.00    -0.025 A 
HETATM    8  C10 UNL     1      23.498  -0.873  54.509  1.00  0.00     0.012 A 
HETATM    9  C11 UNL     1      22.205  -1.060  55.010  1.00  0.00     0.001 A 
HETATM   10  C12 UNL     1      21.165  -0.313  54.441  1.00  0.00     0.001 A 
HETATM   11  C13 UNL     1      21.341   0.600  53.411  1.00  0.00     0.013 A 
HETATM   12  C14 UNL     1      22.660   0.667  53.035  1.00  0.00    -0.015 A 
HETATM   13  C15 UNL     1      22.807   1.549  52.029  1.00  0.00    -0.022 A 
HETATM   14  C16 UNL     1      21.762   2.335  51.403  1.00  0.00     0.001 C 
HETATM   15  C17 UNL     1      21.539   3.605  51.294  1.00  0.00     0.118 C 
HETATM   16  C18 UNL     1      21.591   5.057  51.371  1.00  0.00     0.226 C 
HETATM   17  O1  UNL     1      21.890   6.216  51.689  1.00  0.00    -0.273 OA
HETATM   18  N3  UNL     1      20.726   5.639  50.344  1.00  0.00    -0.357 N 
HETATM   19  C19 UNL     1      20.914   7.110  50.218  1.00  0.00     0.149 C 
HETATM   20  C20 UNL     1      22.431   7.243  49.880  1.00  0.00    -0.009 C 
HETATM   21  C21 UNL     1      23.450   6.355  49.642  1.00  0.00     0.001 C 
HETATM   22  H15 UNL     1      20.050   5.143  49.755  1.00  0.00     0.162 HD
ENDROOT
BRANCH   1  23
HETATM   23  N2  UNL     1      22.610   4.937  48.635  1.00  0.00    -0.156 NA
BRANCH  23  24
HETATM   24  S1  UNL     1      22.485   3.574  47.721  1.00  0.00    -0.020 SA
BRANCH  24  25
HETATM   25  C2  UNL     1      21.100   3.616  46.790  1.00  0.00     0.140 C 
BRANCH  25  26
HETATM   26  N1  UNL     1      20.105   3.790  47.801  1.00  0.00    -0.400 NA
HETATM   27  C1  UNL     1      19.534   2.737  48.285  1.00  0.00     0.314 C 
ENDBRANCH  25  26
ENDBRANCH  24  25
ENDBRANCH  23  24
ENDBRANCH   1  23
TORSDOF 4
ENDMDL
MODEL 8
REMARK VINA RESULT:      -7.6      5.276      7.454
REMARK  4 active torsions:
REMARK  status: ('A' for Active; 'I' for Inactive)
REMARK    1  A    between atoms: N1_2  and  C2_3 
REMARK    2  A    between atoms: C2_3  and  S1_4 
REMARK    3  A    between atoms: S1_4  and  N2_5 
REMARK    4  A    between atoms: N2_5  and  C3_6 
ROOT
HETATM    1  C3  UNL     1      23.626   2.857  49.512  1.00  0.00     0.089 C 
HETATM    2  C4  UNL     1      24.481   3.757  50.076  1.00  0.00     0.028 C 
HETATM    3  C5  UNL     1      25.890   3.725  49.703  1.00  0.00     0.047 C 
HETATM    4  C6  UNL     1      26.379   4.981  49.008  1.00  0.00    -0.047 A 
HETATM    5  C7  UNL     1      27.758   4.738  48.818  1.00  0.00     0.009 A 
HETATM    6  C8  UNL     1      28.653   5.620  48.212  1.00  0.00     0.013 A 
HETATM    7  C9  UNL     1      28.201   6.835  47.746  1.00  0.00    -0.025 A 
HETATM    8  C10 UNL     1      28.936   7.814  47.144  1.00  0.00     0.012 A 
HETATM    9  C11 UNL     1      28.364   9.018  46.721  1.00  0.00     0.001 A 
HETATM   10  C12 UNL     1      26.992   9.206  46.932  1.00  0.00     0.001 A 
HETATM   11  C13 UNL     1      26.167   8.268  47.535  1.00  0.00     0.013 A 
HETATM   12  C14 UNL     1      26.875   7.146  47.890  1.00  0.00    -0.015 A 
HETATM   13  C15 UNL     1      26.060   6.256  48.483  1.00  0.00    -0.022 A 
HETATM   14  C16 UNL     1      24.640   6.408  48.732  1.00  0.00     0.001 C 
HETATM   15  C17 UNL     1      23.586   5.768  48.337  1.00  0.00     0.118 C 
HETATM   16  C18 UNL     1      22.647   4.852  47.709  1.00  0.00     0.226 C 
HETATM   17  O1  UNL     1      22.144   3.988  46.978  1.00  0.00    -0.273 OA
HETATM   18  N3  UNL     1      21.363   4.901  48.411  1.00  0.00    -0.357 N 
HETATM   19  C19 UNL     1      20.438   3.824  47.966  1.00  0.00     0.149 C 
HETATM   20  C20 UNL     1      21.243   2.522  48.266  1.00  0.00    -0.009 C 
HETATM   21  C21 UNL     1      22.453   2.247  48.853  1.00  0.00     0.001 C 
HETATM   22  H15 UNL     1      21.078   5.576  49.127  1.00  0.00     0.162 HD
ENDROOT
BRANCH   1  23
HETATM   23  N2  UNL     1      22.566   3.515  50.306  1.00  0.00    -0.156 NA
BRANCH  23  24
HETATM   24  S1  UNL     1      22.547   3.025  51.877  1.00  0.00    -0.020 SA
BRANCH  24  25
HETATM   25  C2  UNL     1      21.021   2.500  52.309  1.00  0.00     0.140 C 
BRANCH  25  26
HETATM   26  N1  UNL     1      20.257   3.686  52.077  1.00  0.00    -0.400 NA
HETATM   27  C1  UNL     1      19.109   3.570  51.497  1.00  0.00     0.314 C 
ENDBRANCH  25  26
ENDBRANCH  24  25
ENDBRANCH  23  24
ENDBRANCH   1  23
TORSDOF 4
ENDMDL
MODEL 9
REMARK VINA RESULT:      -7.5      2.612      3.765
REMARK  4 active torsions:
REMARK  status: ('A' for Active; 'I' for Inactive)
REMARK    1  A    between atoms: N1_2  and  C2_3 
REMARK    2  A    between atoms: C2_3  and  S1_4 
REMARK    3  A    between atoms: S1_4  and  N2_5 
REMARK    4  A    between atoms: N2_5  and  C3_6 
ROOT
HETATM    1  C3  UNL     1      21.455   3.950  49.711  1.00  0.00     0.089 C 
HETATM    2  C4  UNL     1      22.435   3.041  49.441  1.00  0.00     0.028 C 
HETATM    3  C5  UNL     1      23.823   3.392  49.714  1.00  0.00     0.047 C 
HETATM    4  C6  UNL     1      24.490   2.528  50.765  1.00  0.00    -0.047 A 
HETATM    5  C7  UNL     1      25.818   3.010  50.795  1.00  0.00     0.009 A 
HETATM    6  C8  UNL     1      26.832   2.519  51.618  1.00  0.00     0.013 A 
HETATM    7  C9  UNL     1      26.563   1.482  52.486  1.00  0.00    -0.025 A 
HETATM    8  C10 UNL     1      27.433   0.878  53.345  1.00  0.00     0.012 A 
HETATM    9  C11 UNL     1      27.045  -0.179  54.174  1.00  0.00     0.001 A 
HETATM   10  C12 UNL     1      25.715  -0.617  54.105  1.00  0.00     0.001 A 
HETATM   11  C13 UNL     1      24.762  -0.062  53.263  1.00  0.00     0.013 A 
HETATM   12  C14 UNL     1      25.298   0.960  52.518  1.00  0.00    -0.015 A 
HETATM   13  C15 UNL     1      24.361   1.475  51.702  1.00  0.00    -0.022 A 
HETATM   14  C16 UNL     1      22.980   1.051  51.587  1.00  0.00     0.001 C 
HETATM   15  C17 UNL     1      21.843   1.634  51.794  1.00  0.00     0.118 C 
HETATM   16  C18 UNL     1      20.778   2.568  52.124  1.00  0.00     0.226 C 
HETATM   17  O1  UNL     1      20.152   3.549  52.546  1.00  0.00    -0.273 OA
HETATM   18  N3  UNL     1      19.516   2.106  51.542  1.00  0.00    -0.357 N 
HETATM   19  C19 UNL     1      18.442   3.131  51.644  1.00  0.00     0.149 C 
HETATM   20  C20 UNL     1      19.047   4.353  50.887  1.00  0.00    -0.009 C 
HETATM   21  C21 UNL     1      20.204   4.578  50.184  1.00  0.00     0.001 C 
HETATM   22  H15 UNL     1      19.335   1.196  51.108  1.00  0.00     0.162 HD
ENDROOT
BRANCH   1  23
HETATM   23  N2  UNL     1      20.506   2.922  49.236  1.00  0.00    -0.156 NA
BRANCH  23  24
HETATM   24  S1  UNL     1      20.694   2.566  47.640  1.00  0.00    -0.020 SA
BRANCH  24  25
HETATM   25  C2  UNL     1      19.651   3.478  46.708  1.00  0.00     0.140 C 
BRANCH  25  26
HETATM   26  N1  UNL     1      20.582   4.206  45.904  1.00  0.00    -0.400 NA
HETATM   27  C1  UNL     1      21.789   3.757  45.806  1.00  0.00     0.314 C 
ENDBRANCH  25  26
ENDBRANCH  24  25
ENDBRANCH  23  24
ENDBRANCH   1  23
TORSDOF 4
ENDMDL
