MODEL 1
REMARK VINA RESULT:      -7.8      0.000      0.000
REMARK  3 active torsions:
REMARK  status: ('A' for Active; 'I' for Inactive)
REMARK    1  A    between atoms: O1_2  and  C2_3 
REMARK    2  A    between atoms: C15_20  and  N3_21 
REMARK    3  A    between atoms: C17_23  and  O4_24 
ROOT
HETATM    1  C2  UNL     1      23.030   5.586  51.024  1.00  0.00     0.097 C 
HETATM    2  C3  UNL     1      21.608   5.581  51.454  1.00  0.00     0.016 C 
HETATM    3  C4  UNL     1      21.898   4.201  51.510  1.00  0.00     0.031 C 
HETATM    4  C5  UNL     1      22.098   2.945  51.587  1.00  0.00     0.188 C 
HETATM    5  O2  UNL     1      22.122   1.402  51.781  1.00  0.00    -0.361 OA
HETATM    6  C6  UNL     1      23.777   1.667  51.810  1.00  0.00     0.129 A 
HETATM    7  C7  UNL     1      23.454   1.358  53.026  1.00  0.00     0.027 A 
HETATM    8  C8  UNL     1      24.644   1.815  52.485  1.00  0.00     0.108 A 
HETATM    9  N1  UNL     1      25.680   1.593  53.497  1.00  0.00    -0.265 NA
HETATM   10  C9  UNL     1      27.007   1.965  53.109  1.00  0.00     0.228 A 
HETATM   11  N2  UNL     1      27.462   2.501  51.933  1.00  0.00    -0.248 NA
HETATM   12  C10 UNL     1      26.488   2.743  50.979  1.00  0.00     0.064 A 
HETATM   13  C11 UNL     1      25.613   2.211  51.906  1.00  0.00     0.067 A 
HETATM   14  C12 UNL     1      24.437   1.984  51.188  1.00  0.00     0.124 A 
HETATM   15  C13 UNL     1      23.183   1.721  50.531  1.00  0.00     0.072 A 
HETATM   16  O3  UNL     1      22.150   1.537  49.800  1.00  0.00    -0.360 OA
HETATM   17  C14 UNL     1      21.181   1.372  49.064  1.00  0.00     0.209 C 
HETATM   18  C15 UNL     1      26.202   3.560  49.715  1.00  0.00     0.292 C 
HETATM   19  C16 UNL     1      25.196   4.657  50.202  1.00  0.00     0.053 C 
HETATM   20  C17 UNL     1      24.400   5.694  50.618  1.00  0.00     0.099 C 
ENDROOT
BRANCH  18  21
HETATM   21  N3  UNL     1      27.367   4.329  49.393  1.00  0.00     0.092 N 
HETATM   22  H14 UNL     1      27.097   5.366  49.584  1.00  0.00     0.314 HD
HETATM   23  H15 UNL     1      28.151   4.235  50.114  1.00  0.00     0.314 HD
ENDBRANCH  18  21
BRANCH   1  24
HETATM   24  O1  UNL     1      22.888   6.988  51.004  1.00  0.00    -0.353 OA
HETATM   25  C1  UNL     1      21.841   7.671  50.417  1.00  0.00     0.210 C 
ENDBRANCH   1  24
BRANCH  20  26
HETATM   26  O4  UNL     1      25.124   6.954  50.636  1.00  0.00    -0.353 OA
HETATM   27  C18 UNL     1      25.760   7.353  49.432  1.00  0.00     0.210 C 
ENDBRANCH  20  26
TORSDOF 3
ENDMDL
MODEL 2
REMARK VINA RESULT:      -7.2      2.999      5.687
REMARK  3 active torsions:
REMARK  status: ('A' for Active; 'I' for Inactive)
REMARK    1  A    between atoms: O1_2  and  C2_3 
REMARK    2  A    between atoms: C15_20  and  N3_21 
REMARK    3  A    between atoms: C17_23  and  O4_24 
ROOT
HETATM    1  C2  UNL     1      21.650  -0.124  52.760  1.00  0.00     0.097 C 
HETATM    2  C3  UNL     1      22.205  -0.617  54.048  1.00  0.00     0.016 C 
HETATM    3  C4  UNL     1      23.212   0.297  53.667  1.00  0.00     0.031 C 
HETATM    4  C5  UNL     1      24.150   1.110  53.383  1.00  0.00     0.188 C 
HETATM    5  O2  UNL     1      25.379   2.055  53.258  1.00  0.00    -0.361 OA
HETATM    6  C6  UNL     1      24.371   2.839  52.174  1.00  0.00     0.129 A 
HETATM    7  C7  UNL     1      24.448   3.621  53.203  1.00  0.00     0.027 A 
HETATM    8  C8  UNL     1      23.654   3.679  52.069  1.00  0.00     0.108 A 
HETATM    9  N1  UNL     1      23.076   5.024  52.027  1.00  0.00    -0.265 NA
HETATM   10  C9  UNL     1      22.247   5.301  50.894  1.00  0.00     0.228 A 
HETATM   11  N2  UNL     1      21.906   4.498  49.836  1.00  0.00    -0.248 NA
HETATM   12  C10 UNL     1      22.422   3.215  49.879  1.00  0.00     0.064 A 
HETATM   13  C11 UNL     1      23.025   3.621  51.054  1.00  0.00     0.067 A 
HETATM   14  C12 UNL     1      23.966   2.627  51.328  1.00  0.00     0.124 A 
HETATM   15  C13 UNL     1      24.956   1.647  51.695  1.00  0.00     0.072 A 
HETATM   16  O3  UNL     1      25.796   0.700  51.868  1.00  0.00    -0.360 OA
HETATM   17  C14 UNL     1      26.593  -0.227  51.996  1.00  0.00     0.209 C 
HETATM   18  C15 UNL     1      22.219   1.803  49.319  1.00  0.00     0.292 C 
HETATM   19  C16 UNL     1      21.637   1.002  50.533  1.00  0.00     0.053 C 
HETATM   20  C17 UNL     1      21.027   0.301  51.541  1.00  0.00     0.099 C 
ENDROOT
BRANCH  18  21
HETATM   21  N3  UNL     1      21.114   1.828  48.407  1.00  0.00     0.092 N 
HETATM   22  H14 UNL     1      20.671   2.817  48.506  1.00  0.00     0.314 HD
HETATM   23  H15 UNL     1      21.411   1.889  47.381  1.00  0.00     0.314 HD
ENDBRANCH  18  21
BRANCH   1  24
HETATM   24  O1  UNL     1      20.546  -0.946  53.066  1.00  0.00    -0.353 OA
HETATM   25  C1  UNL     1      20.404  -1.685  54.224  1.00  0.00     0.210 C 
ENDBRANCH   1  24
BRANCH  20  26
HETATM   26  O4  UNL     1      19.626   0.052  51.252  1.00  0.00    -0.353 OA
HETATM   27  C18 UNL     1      18.788   1.185  51.086  1.00  0.00     0.210 C 
ENDBRANCH  20  26
TORSDOF 3
ENDMDL
MODEL 3
REMARK VINA RESULT:      -7.1      1.994      4.842
REMARK  3 active torsions:
REMARK  status: ('A' for Active; 'I' for Inactive)
REMARK    1  A    between atoms: O1_2  and  C2_3 
REMARK    2  A    between atoms: C15_20  and  N3_21 
REMARK    3  A    between atoms: C17_23  and  O4_24 
ROOT
HETATM    1  C2  UNL     1      22.061   2.177  49.268  1.00  0.00     0.097 C 
HETATM    2  C3  UNL     1      22.436   2.975  48.072  1.00  0.00     0.016 C 
HETATM    3  C4  UNL     1      23.499   3.302  48.941  1.00  0.00     0.031 C 
HETATM    4  C5  UNL     1      24.488   3.630  49.674  1.00  0.00     0.188 C 
HETATM    5  O2  UNL     1      25.782   4.140  50.370  1.00  0.00    -0.361 OA
HETATM    6  C6  UNL     1      25.494   2.814  51.354  1.00  0.00     0.129 A 
HETATM    7  C7  UNL     1      26.538   2.505  50.653  1.00  0.00     0.027 A 
HETATM    8  C8  UNL     1      25.764   1.751  51.520  1.00  0.00     0.108 A 
HETATM    9  N1  UNL     1      26.523   0.532  51.812  1.00  0.00    -0.265 NA
HETATM   10  C9  UNL     1      25.904  -0.370  52.735  1.00  0.00     0.228 A 
HETATM   11  N2  UNL     1      24.705  -0.272  53.391  1.00  0.00    -0.248 NA
HETATM   12  C10 UNL     1      23.965   0.861  53.101  1.00  0.00     0.064 A 
HETATM   13  C11 UNL     1      25.025   1.204  52.285  1.00  0.00     0.067 A 
HETATM   14  C12 UNL     1      24.807   2.547  51.972  1.00  0.00     0.124 A 
HETATM   15  C13 UNL     1      24.660   3.928  51.589  1.00  0.00     0.072 A 
HETATM   16  O3  UNL     1      24.391   5.156  51.358  1.00  0.00    -0.360 OA
HETATM   17  C14 UNL     1      24.101   6.334  51.164  1.00  0.00     0.209 C 
HETATM   18  C15 UNL     1      22.543   1.431  53.153  1.00  0.00     0.292 C 
HETATM   19  C16 UNL     1      22.093   1.441  51.653  1.00  0.00     0.053 C 
HETATM   20  C17 UNL     1      21.628   1.363  50.365  1.00  0.00     0.099 C 
ENDROOT
BRANCH  18  21
HETATM   21  N3  UNL     1      21.677   0.446  53.729  1.00  0.00     0.092 N 
HETATM   22  H14 UNL     1      20.708   0.931  53.834  1.00  0.00     0.314 HD
HETATM   23  H15 UNL     1      21.395  -0.325  53.043  1.00  0.00     0.314 HD
ENDBRANCH  18  21
BRANCH   1  24
HETATM   24  O1  UNL     1      20.995   1.716  48.471  1.00  0.00    -0.353 OA
HETATM   25  C1  UNL     1      20.062   2.522  47.850  1.00  0.00     0.210 C 
ENDBRANCH   1  24
BRANCH  20  26
HETATM   26  O4  UNL     1      20.639   0.310  50.212  1.00  0.00    -0.353 OA
HETATM   27  C18 UNL     1      19.490   0.376  51.042  1.00  0.00     0.210 C 
ENDBRANCH  20  26
TORSDOF 3
ENDMDL
MODEL 4
REMARK VINA RESULT:      -6.9      2.711      4.555
REMARK  3 active torsions:
REMARK  status: ('A' for Active; 'I' for Inactive)
REMARK    1  A    between atoms: O1_2  and  C2_3 
REMARK    2  A    between atoms: C15_20  and  N3_21 
REMARK    3  A    between atoms: C17_23  and  O4_24 
ROOT
HETATM    1  C2  UNL     1      25.732   4.622  49.546  1.00  0.00     0.097 C 
HETATM    2  C3  UNL     1      26.746   3.550  49.368  1.00  0.00     0.016 C 
HETATM    3  C4  UNL     1      25.821   2.892  50.209  1.00  0.00     0.031 C 
HETATM    4  C5  UNL     1      25.023   2.243  50.960  1.00  0.00     0.188 C 
HETATM    5  O2  UNL     1      24.190   1.258  51.830  1.00  0.00    -0.361 OA
HETATM    6  C6  UNL     1      22.967   2.346  51.471  1.00  0.00     0.129 A 
HETATM    7  C7  UNL     1      22.686   1.275  50.801  1.00  0.00     0.027 A 
HETATM    8  C8  UNL     1      22.116   2.537  50.786  1.00  0.00     0.108 A 
HETATM    9  N1  UNL     1      20.840   2.416  50.077  1.00  0.00    -0.265 NA
HETATM   10  C9  UNL     1      20.069   3.620  49.991  1.00  0.00     0.228 A 
HETATM   11  N2  UNL     1      20.341   4.874  50.471  1.00  0.00    -0.248 NA
HETATM   12  C10 UNL     1      21.558   5.008  51.117  1.00  0.00     0.064 A 
HETATM   13  C11 UNL     1      21.710   3.659  50.862  1.00  0.00     0.067 A 
HETATM   14  C12 UNL     1      22.786   3.271  51.662  1.00  0.00     0.124 A 
HETATM   15  C13 UNL     1      23.890   2.780  52.448  1.00  0.00     0.072 A 
HETATM   16  O3  UNL     1      24.875   2.506  53.214  1.00  0.00    -0.360 OA
HETATM   17  C14 UNL     1      25.819   2.282  53.967  1.00  0.00     0.209 C 
HETATM   18  C15 UNL     1      22.596   6.049  51.550  1.00  0.00     0.292 C 
HETATM   19  C16 UNL     1      23.789   5.815  50.561  1.00  0.00     0.053 C 
HETATM   20  C17 UNL     1      24.804   5.710  49.645  1.00  0.00     0.099 C 
ENDROOT
BRANCH  18  21
HETATM   21  N3  UNL     1      22.129   7.348  51.168  1.00  0.00     0.092 N 
HETATM   22  H14 UNL     1      22.760   7.656  50.336  1.00  0.00     0.314 HD
HETATM   23  H15 UNL     1      21.190   7.328  50.656  1.00  0.00     0.314 HD
ENDBRANCH  18  21
BRANCH   1  24
HETATM   24  O1  UNL     1      26.536   5.356  48.651  1.00  0.00    -0.353 OA
HETATM   25  C1  UNL     1      27.905   5.227  48.525  1.00  0.00     0.210 C 
ENDBRANCH   1  24
BRANCH  20  26
HETATM   26  O4  UNL     1      24.823   6.838  48.730  1.00  0.00    -0.353 OA
HETATM   27  C18 UNL     1      23.683   7.023  47.907  1.00  0.00     0.210 C 
ENDBRANCH  20  26
TORSDOF 3
ENDMDL
MODEL 5
REMARK VINA RESULT:      -6.7      6.873      9.977
REMARK  3 active torsions:
REMARK  status: ('A' for Active; 'I' for Inactive)
REMARK    1  A    between atoms: O1_2  and  C2_3 
REMARK    2  A    between atoms: C15_20  and  N3_21 
REMARK    3  A    between atoms: C17_23  and  O4_24 
ROOT
HETATM    1  C2  UNL     1      29.424   7.799  46.430  1.00  0.00     0.097 C 
HETATM    2  C3  UNL     1      29.209   8.537  45.158  1.00  0.00     0.016 C 
HETATM    3  C4  UNL     1      30.556   8.145  45.003  1.00  0.00     0.031 C 
HETATM    4  C5  UNL     1      31.770   7.818  44.800  1.00  0.00     0.188 C 
HETATM    5  O2  UNL     1      33.221   7.508  44.330  1.00  0.00    -0.361 OA
HETATM    6  C6  UNL     1      33.095   6.317  45.502  1.00  0.00     0.129 A 
HETATM    7  C7  UNL     1      33.080   5.691  44.368  1.00  0.00     0.027 A 
HETATM    8  C8  UNL     1      32.865   5.244  45.662  1.00  0.00     0.108 A 
HETATM    9  N1  UNL     1      32.928   3.781  45.618  1.00  0.00    -0.265 NA
HETATM   10  C9  UNL     1      32.770   3.122  46.879  1.00  0.00     0.228 A 
HETATM   11  N2  UNL     1      32.567   3.649  48.128  1.00  0.00    -0.248 NA
HETATM   12  C10 UNL     1      32.477   5.029  48.178  1.00  0.00     0.064 A 
HETATM   13  C11 UNL     1      32.699   4.978  46.816  1.00  0.00     0.067 A 
HETATM   14  C12 UNL     1      32.991   6.295  46.457  1.00  0.00     0.124 A 
HETATM   15  C13 UNL     1      33.295   7.625  45.994  1.00  0.00     0.072 A 
HETATM   16  O3  UNL     1      33.560   8.852  45.752  1.00  0.00    -0.360 OA
HETATM   17  C14 UNL     1      33.813  10.039  45.561  1.00  0.00     0.209 C 
HETATM   18  C15 UNL     1      31.961   6.183  49.044  1.00  0.00     0.292 C 
HETATM   19  C16 UNL     1      30.699   6.694  48.269  1.00  0.00     0.053 C 
HETATM   20  C17 UNL     1      29.530   7.094  47.673  1.00  0.00     0.099 C 
ENDROOT
BRANCH  18  21
HETATM   21  N3  UNL     1      31.389   5.638  50.239  1.00  0.00     0.092 N 
HETATM   22  H14 UNL     1      32.118   4.923  50.616  1.00  0.00     0.314 HD
HETATM   23  H15 UNL     1      31.396   6.320  51.063  1.00  0.00     0.314 HD
ENDBRANCH  18  21
BRANCH   1  24
HETATM   24  O1  UNL     1      28.060   8.061  46.666  1.00  0.00    -0.353 OA
HETATM   25  C1  UNL     1      27.430   9.266  46.425  1.00  0.00     0.210 C 
ENDBRANCH   1  24
BRANCH  20  26
HETATM   26  O4  UNL     1      28.367   6.688  48.442  1.00  0.00    -0.353 OA
HETATM   27  C18 UNL     1      28.095   5.298  48.520  1.00  0.00     0.210 C 
ENDBRANCH  20  26
TORSDOF 3
ENDMDL
MODEL 6
REMARK VINA RESULT:      -6.7     24.857     26.773
REMARK  3 active torsions:
REMARK  status: ('A' for Active; 'I' for Inactive)
REMARK    1  A    between atoms: O1_2  and  C2_3 
REMARK    2  A    between atoms: C15_20  and  N3_21 
REMARK    3  A    between atoms: C17_23  and  O4_24 
ROOT
HETATM    1  C2  UNL     1      42.004   5.281  70.129  1.00  0.00     0.097 C 
HETATM    2  C3  UNL     1      41.615   6.563  70.772  1.00  0.00     0.016 C 
HETATM    3  C4  UNL     1      42.786   6.962  70.090  1.00  0.00     0.031 C 
HETATM    4  C5  UNL     1      43.828   7.385  69.494  1.00  0.00     0.188 C 
HETATM    5  O2  UNL     1      45.032   8.122  68.839  1.00  0.00    -0.361 OA
HETATM    6  C6  UNL     1      44.988   6.794  67.818  1.00  0.00     0.129 A 
HETATM    7  C7  UNL     1      44.574   7.793  67.105  1.00  0.00     0.027 A 
HETATM    8  C8  UNL     1      44.612   6.434  66.839  1.00  0.00     0.108 A 
HETATM    9  N1  UNL     1      44.392   6.281  65.398  1.00  0.00    -0.265 NA
HETATM   10  C9  UNL     1      44.438   4.936  64.910  1.00  0.00     0.228 A 
HETATM   11  N2  UNL     1      44.655   3.763  65.584  1.00  0.00    -0.248 NA
HETATM   12  C10 UNL     1      44.835   3.892  66.950  1.00  0.00     0.064 A 
HETATM   13  C11 UNL     1      44.695   5.247  66.724  1.00  0.00     0.067 A 
HETATM   14  C12 UNL     1      45.124   5.847  67.909  1.00  0.00     0.124 A 
HETATM   15  C13 UNL     1      45.542   6.552  69.094  1.00  0.00     0.072 A 
HETATM   16  O3  UNL     1      45.958   7.021  70.208  1.00  0.00    -0.360 OA
HETATM   17  C14 UNL     1      46.369   7.432  71.290  1.00  0.00     0.209 C 
HETATM   18  C15 UNL     1      44.774   3.105  68.264  1.00  0.00     0.292 C 
HETATM   19  C16 UNL     1      43.474   3.640  68.956  1.00  0.00     0.053 C 
HETATM   20  C17 UNL     1      42.287   4.006  69.538  1.00  0.00     0.099 C 
ENDROOT
BRANCH  18  21
HETATM   21  N3  UNL     1      44.429   1.746  67.968  1.00  0.00     0.092 N 
HETATM   22  H14 UNL     1      43.868   1.390  68.830  1.00  0.00     0.314 HD
HETATM   23  H15 UNL     1      43.662   1.653  67.229  1.00  0.00     0.314 HD
ENDBRANCH  18  21
BRANCH   1  24
HETATM   24  O1  UNL     1      40.815   4.781  70.697  1.00  0.00    -0.353 OA
HETATM   25  C1  UNL     1      39.757   5.554  71.131  1.00  0.00     0.210 C 
ENDBRANCH   1  24
BRANCH  20  26
HETATM   26  O4  UNL     1      41.300   2.943  69.463  1.00  0.00    -0.353 OA
HETATM   27  C18 UNL     1      41.652   1.691  70.031  1.00  0.00     0.210 C 
ENDBRANCH  20  26
TORSDOF 3
ENDMDL
MODEL 7
REMARK VINA RESULT:      -6.6      5.317      8.345
REMARK  3 active torsions:
REMARK  status: ('A' for Active; 'I' for Inactive)
REMARK    1  A    between atoms: O1_2  and  C2_3 
REMARK    2  A    between atoms: C15_20  and  N3_21 
REMARK    3  A    between atoms: C17_23  and  O4_24 
ROOT
HETATM    1  C2  UNL     1      20.091  -0.366  53.112  1.00  0.00     0.097 C 
HETATM    2  C3  UNL     1      21.501   0.056  53.313  1.00  0.00     0.016 C 
HETATM    3  C4  UNL     1      21.081   1.008  52.359  1.00  0.00     0.031 C 
HETATM    4  C5  UNL     1      20.763   1.898  51.505  1.00  0.00     0.188 C 
HETATM    5  O2  UNL     1      20.590   3.081  50.510  1.00  0.00    -0.361 OA
HETATM    6  C6  UNL     1      18.968   2.803  50.826  1.00  0.00     0.129 A 
HETATM    7  C7  UNL     1      19.246   3.927  51.405  1.00  0.00     0.027 A 
HETATM    8  C8  UNL     1      18.110   3.135  51.445  1.00  0.00     0.108 A 
HETATM    9  N1  UNL     1      17.046   3.952  52.034  1.00  0.00    -0.265 NA
HETATM   10  C9  UNL     1      15.765   3.320  52.124  1.00  0.00     0.228 A 
HETATM   11  N2  UNL     1      15.377   2.061  51.745  1.00  0.00    -0.248 NA
HETATM   12  C10 UNL     1      16.380   1.269  51.214  1.00  0.00     0.064 A 
HETATM   13  C11 UNL     1      17.191   2.372  51.401  1.00  0.00     0.067 A 
HETATM   14  C12 UNL     1      18.348   2.084  50.675  1.00  0.00     0.124 A 
HETATM   15  C13 UNL     1      19.580   1.871  49.960  1.00  0.00     0.072 A 
HETATM   16  O3  UNL     1      20.599   1.534  49.266  1.00  0.00    -0.360 OA
HETATM   17  C14 UNL     1      21.557   1.177  48.585  1.00  0.00     0.209 C 
HETATM   18  C15 UNL     1      16.757  -0.190  50.935  1.00  0.00     0.292 C 
HETATM   19  C16 UNL     1      17.857  -0.500  52.007  1.00  0.00     0.053 C 
HETATM   20  C17 UNL     1      18.742  -0.837  52.999  1.00  0.00     0.099 C 
ENDROOT
BRANCH  18  21
HETATM   21  N3  UNL     1      15.674  -1.030  51.351  1.00  0.00     0.092 N 
HETATM   22  H14 UNL     1      15.726  -1.062  52.438  1.00  0.00     0.314 HD
HETATM   23  H15 UNL     1      14.715  -0.568  51.252  1.00  0.00     0.314 HD
ENDBRANCH  18  21
BRANCH   1  24
HETATM   24  O1  UNL     1      20.365  -1.318  54.115  1.00  0.00    -0.353 OA
HETATM   25  C1  UNL     1      21.628  -1.713  54.509  1.00  0.00     0.210 C 
ENDBRANCH   1  24
BRANCH  20  26
HETATM   26  O4  UNL     1      18.141  -1.727  53.977  1.00  0.00    -0.353 OA
HETATM   27  C18 UNL     1      17.598  -2.946  53.495  1.00  0.00     0.210 C 
ENDBRANCH  20  26
TORSDOF 3
ENDMDL
MODEL 8
REMARK VINA RESULT:      -6.5      2.965      5.949
REMARK  3 active torsions:
REMARK  status: ('A' for Active; 'I' for Inactive)
REMARK    1  A    between atoms: O1_2  and  C2_3 
REMARK    2  A    between atoms: C15_20  and  N3_21 
REMARK    3  A    between atoms: C17_23  and  O4_24 
ROOT
HETATM    1  C2  UNL     1      23.399   1.474  52.234  1.00  0.00     0.097 C 
HETATM    2  C3  UNL     1      24.518   1.812  53.152  1.00  0.00     0.016 C 
HETATM    3  C4  UNL     1      24.538   2.936  52.298  1.00  0.00     0.031 C 
HETATM    4  C5  UNL     1      24.605   3.977  51.568  1.00  0.00     0.188 C 
HETATM    5  O2  UNL     1      24.848   5.329  50.837  1.00  0.00    -0.361 OA
HETATM    6  C6  UNL     1      23.290   5.043  50.289  1.00  0.00     0.129 A 
HETATM    7  C7  UNL     1      23.189   6.032  51.119  1.00  0.00     0.027 A 
HETATM    8  C8  UNL     1      22.222   5.279  50.473  1.00  0.00     0.108 A 
HETATM    9  N1  UNL     1      20.957   6.003  50.619  1.00  0.00    -0.265 NA
HETATM   10  C9  UNL     1      19.828   5.402  49.976  1.00  0.00     0.228 A 
HETATM   11  N2  UNL     1      19.746   4.247  49.243  1.00  0.00    -0.248 NA
HETATM   12  C10 UNL     1      20.929   3.539  49.123  1.00  0.00     0.064 A 
HETATM   13  C11 UNL     1      21.483   4.564  49.864  1.00  0.00     0.067 A 
HETATM   14  C12 UNL     1      22.862   4.383  49.737  1.00  0.00     0.124 A 
HETATM   15  C13 UNL     1      24.296   4.271  49.669  1.00  0.00     0.072 A 
HETATM   16  O3  UNL     1      25.541   4.040  49.496  1.00  0.00    -0.360 OA
HETATM   17  C14 UNL     1      26.728   3.787  49.301  1.00  0.00     0.209 C 
HETATM   18  C15 UNL     1      21.485   2.147  48.804  1.00  0.00     0.292 C 
HETATM   19  C16 UNL     1      21.965   1.612  50.196  1.00  0.00     0.053 C 
HETATM   20  C17 UNL     1      22.296   1.071  51.412  1.00  0.00     0.099 C 
ENDROOT
BRANCH  18  21
HETATM   21  N3  UNL     1      20.389   1.275  48.499  1.00  0.00     0.092 N 
HETATM   22  H14 UNL     1      19.572   1.592  49.144  1.00  0.00     0.314 HD
HETATM   23  H15 UNL     1      19.934   1.479  47.554  1.00  0.00     0.314 HD
ENDBRANCH  18  21
BRANCH   1  24
HETATM   24  O1  UNL     1      23.227   0.346  53.061  1.00  0.00    -0.353 OA
HETATM   25  C1  UNL     1      24.251  -0.425  53.573  1.00  0.00     0.210 C 
ENDBRANCH   1  24
BRANCH  20  26
HETATM   26  O4  UNL     1      21.363   0.033  51.812  1.00  0.00    -0.353 OA
HETATM   27  C18 UNL     1      19.999   0.403  51.940  1.00  0.00     0.210 C 
ENDBRANCH  20  26
TORSDOF 3
ENDMDL
MODEL 9
REMARK VINA RESULT:      -6.4     15.379     18.127
REMARK  3 active torsions:
REMARK  status: ('A' for Active; 'I' for Inactive)
REMARK    1  A    between atoms: O1_2  and  C2_3 
REMARK    2  A    between atoms: C15_20  and  N3_21 
REMARK    3  A    between atoms: C17_23  and  O4_24 
ROOT
HETATM    1  C2  UNL     1      24.484  -3.758  67.877  1.00  0.00     0.097 C 
HETATM    2  C3  UNL     1      24.502  -2.578  68.782  1.00  0.00     0.016 C 
HETATM    3  C4  UNL     1      25.842  -2.581  68.337  1.00  0.00     0.031 C 
HETATM    4  C5  UNL     1      27.060  -2.525  67.969  1.00  0.00     0.188 C 
HETATM    5  O2  UNL     1      28.554  -2.246  67.639  1.00  0.00    -0.361 OA
HETATM    6  C6  UNL     1      28.199  -3.213  66.318  1.00  0.00     0.129 A 
HETATM    7  C7  UNL     1      28.343  -2.018  65.843  1.00  0.00     0.027 A 
HETATM    8  C8  UNL     1      27.908  -3.191  65.248  1.00  0.00     0.108 A 
HETATM    9  N1  UNL     1      27.924  -2.961  63.801  1.00  0.00    -0.265 NA
HETATM   10  C9  UNL     1      27.543  -4.083  62.997  1.00  0.00     0.228 A 
HETATM   11  N2  UNL     1      27.162  -5.345  63.373  1.00  0.00    -0.248 NA
HETATM   12  C10 UNL     1      27.115  -5.565  64.738  1.00  0.00     0.064 A 
HETATM   13  C11 UNL     1      27.550  -4.259  64.847  1.00  0.00     0.067 A 
HETATM   14  C12 UNL     1      27.943  -4.130  66.181  1.00  0.00     0.124 A 
HETATM   15  C13 UNL     1      28.366  -3.902  67.539  1.00  0.00     0.072 A 
HETATM   16  O3  UNL     1      28.710  -3.871  68.769  1.00  0.00    -0.360 OA
HETATM   17  C14 UNL     1      29.034  -3.882  69.954  1.00  0.00     0.209 C 
HETATM   18  C15 UNL     1      26.510  -6.490  65.800  1.00  0.00     0.292 C 
HETATM   19  C16 UNL     1      25.408  -5.605  66.476  1.00  0.00     0.053 C 
HETATM   20  C17 UNL     1      24.364  -4.896  67.016  1.00  0.00     0.099 C 
ENDROOT
BRANCH  18  21
HETATM   21  N3  UNL     1      25.735  -7.498  65.141  1.00  0.00     0.092 N 
HETATM   22  H14 UNL     1      26.185  -7.621  64.158  1.00  0.00     0.314 HD
HETATM   23  H15 UNL     1      25.910  -8.483  65.519  1.00  0.00     0.314 HD
ENDBRANCH  18  21
BRANCH   1  24
HETATM   24  O1  UNL     1      23.110  -3.815  68.185  1.00  0.00    -0.353 OA
HETATM   25  C1  UNL     1      22.574  -3.688  69.451  1.00  0.00     0.210 C 
ENDBRANCH   1  24
BRANCH  20  26
HETATM   26  O4  UNL     1      23.079  -5.416  66.582  1.00  0.00    -0.353 OA
HETATM   27  C18 UNL     1      22.797  -6.775  66.880  1.00  0.00     0.210 C 
ENDBRANCH  20  26
TORSDOF 3
ENDMDL
