MODEL 1
REMARK VINA RESULT:      -8.1      0.000      0.000
REMARK  0 active torsions:
REMARK  status: ('A' for Active; 'I' for Inactive)
ROOT
HETATM    1  N1  UNL     1      21.225  -1.649  54.958  1.00  0.00    -0.192 NA
HETATM    2  C1  UNL     1      22.057  -1.053  54.423  1.00  0.00     0.096 C 
HETATM    3  C2  UNL     1      23.107  -0.331  53.767  1.00  0.00     0.040 C 
HETATM    4  C3  UNL     1      24.418  -0.516  54.030  1.00  0.00     0.134 C 
HETATM    5  N2  UNL     1      25.410   0.211  53.364  1.00  0.00    -0.276 NA
HETATM    6  C4  UNL     1      26.394  -0.338  52.772  1.00  0.00     0.093 C 
HETATM    7  C5  UNL     1      27.167   0.817  52.220  1.00  0.00     0.075 C 
HETATM    8  C6  UNL     1      26.265   1.593  51.293  1.00  0.00    -0.005 C 
HETATM    9  C7  UNL     1      25.793   2.818  51.270  1.00  0.00     0.084 C 
HETATM   10  N3  UNL     1      25.148   4.011  50.969  1.00  0.00    -0.376 N 
HETATM   11  C8  UNL     1      25.556   5.032  50.083  1.00  0.00     0.087 C 
HETATM   12  C9  UNL     1      25.124   5.709  49.039  1.00  0.00     0.019 C 
HETATM   13  C10 UNL     1      23.917   5.731  48.233  1.00  0.00     0.025 C 
HETATM   14  C11 UNL     1      22.748   5.145  48.132  1.00  0.00     0.134 C 
HETATM   15  O1  UNL     1      22.007   4.139  48.781  1.00  0.00    -0.363 OA
HETATM   16  C12 UNL     1      21.272   3.221  47.987  1.00  0.00     0.178 C 
HETATM   17  C13 UNL     1      20.295   2.417  48.763  1.00  0.00     0.053 C 
HETATM   18  C14 UNL     1      20.843   1.528  49.792  1.00  0.00    -0.029 C 
HETATM   19  C15 UNL     1      21.802   0.980  50.496  1.00  0.00    -0.030 C 
HETATM   20  C16 UNL     1      22.092   0.010  51.583  1.00  0.00     0.032 C 
HETATM   21  C17 UNL     1      22.786   0.687  52.746  1.00  0.00     0.055 C 
HETATM   22  H7  UNL     1      24.242   4.300  51.383  1.00  0.00     0.164 HD
ENDROOT
TORSDOF 0
ENDMDL
MODEL 2
REMARK VINA RESULT:      -8.1      2.349      7.422
REMARK  0 active torsions:
REMARK  status: ('A' for Active; 'I' for Inactive)
ROOT
HETATM    1  N1  UNL     1      26.574   6.234  48.950  1.00  0.00    -0.192 NA
HETATM    2  C1  UNL     1      25.780   5.442  49.226  1.00  0.00     0.096 C 
HETATM    3  C2  UNL     1      24.785   4.461  49.548  1.00  0.00     0.040 C 
HETATM    4  C3  UNL     1      23.636   4.308  48.855  1.00  0.00     0.134 C 
HETATM    5  N2  UNL     1      22.693   3.337  49.202  1.00  0.00    -0.276 NA
HETATM    6  C4  UNL     1      22.230   2.490  48.373  1.00  0.00     0.093 C 
HETATM    7  C5  UNL     1      21.276   1.677  49.188  1.00  0.00     0.075 C 
HETATM    8  C6  UNL     1      22.040   1.047  50.326  1.00  0.00    -0.005 C 
HETATM    9  C7  UNL     1      21.982   1.122  51.635  1.00  0.00     0.084 C 
HETATM   10  N3  UNL     1      22.171   0.989  53.005  1.00  0.00    -0.376 N 
HETATM   11  C8  UNL     1      21.688  -0.021  53.865  1.00  0.00     0.087 C 
HETATM   12  C9  UNL     1      22.117  -0.904  54.743  1.00  0.00     0.019 C 
HETATM   13  C10 UNL     1      23.404  -1.294  55.292  1.00  0.00     0.025 C 
HETATM   14  C11 UNL     1      24.679  -0.999  55.208  1.00  0.00     0.134 C 
HETATM   15  O1  UNL     1      25.518  -0.110  54.508  1.00  0.00    -0.363 OA
HETATM   16  C12 UNL     1      26.755  -0.596  54.012  1.00  0.00     0.178 C 
HETATM   17  C13 UNL     1      27.681   0.478  53.577  1.00  0.00     0.053 C 
HETATM   18  C14 UNL     1      27.238   1.320  52.462  1.00  0.00    -0.029 C 
HETATM   19  C15 UNL     1      26.403   1.711  51.532  1.00  0.00    -0.030 C 
HETATM   20  C16 UNL     1      26.198   2.692  50.435  1.00  0.00     0.032 C 
HETATM   21  C17 UNL     1      24.978   3.551  50.694  1.00  0.00     0.055 C 
HETATM   22  H7  UNL     1      22.721   1.654  53.582  1.00  0.00     0.164 HD
ENDROOT
TORSDOF 0
ENDMDL
MODEL 3
REMARK VINA RESULT:      -8.1      2.824      4.697
REMARK  0 active torsions:
REMARK  status: ('A' for Active; 'I' for Inactive)
ROOT
HETATM    1  N1  UNL     1      28.020  -0.096  54.995  1.00  0.00    -0.192 NA
HETATM    2  C1  UNL     1      27.423   0.529  54.229  1.00  0.00     0.096 C 
HETATM    3  C2  UNL     1      26.702   1.306  53.264  1.00  0.00     0.040 C 
HETATM    4  C3  UNL     1      27.299   2.054  52.311  1.00  0.00     0.134 C 
HETATM    5  N2  UNL     1      26.556   2.796  51.388  1.00  0.00    -0.276 NA
HETATM    6  C4  UNL     1      26.726   2.710  50.130  1.00  0.00     0.093 C 
HETATM    7  C5  UNL     1      25.726   3.669  49.569  1.00  0.00     0.075 C 
HETATM    8  C6  UNL     1      24.351   3.241  50.019  1.00  0.00    -0.005 C 
HETATM    9  C7  UNL     1      23.404   3.785  50.746  1.00  0.00     0.084 C 
HETATM   10  N3  UNL     1      22.244   4.078  51.452  1.00  0.00    -0.376 N 
HETATM   11  C8  UNL     1      21.019   4.582  50.962  1.00  0.00     0.087 C 
HETATM   12  C9  UNL     1      19.733   4.300  50.950  1.00  0.00     0.019 C 
HETATM   13  C10 UNL     1      18.887   3.247  51.481  1.00  0.00     0.025 C 
HETATM   14  C11 UNL     1      18.957   2.138  52.178  1.00  0.00     0.134 C 
HETATM   15  O1  UNL     1      19.932   1.343  52.811  1.00  0.00    -0.363 OA
HETATM   16  C12 UNL     1      19.834  -0.068  52.695  1.00  0.00     0.178 C 
HETATM   17  C13 UNL     1      20.710  -0.802  53.641  1.00  0.00     0.053 C 
HETATM   18  C14 UNL     1      22.155  -0.604  53.491  1.00  0.00    -0.029 C 
HETATM   19  C15 UNL     1      23.230  -0.094  52.943  1.00  0.00    -0.030 C 
HETATM   20  C16 UNL     1      24.715  -0.071  53.004  1.00  0.00     0.032 C 
HETATM   21  C17 UNL     1      25.226   1.329  53.277  1.00  0.00     0.055 C 
HETATM   22  H7  UNL     1      22.141   3.951  52.477  1.00  0.00     0.164 HD
ENDROOT
TORSDOF 0
ENDMDL
MODEL 4
REMARK VINA RESULT:      -7.7      2.438      5.004
REMARK  0 active torsions:
REMARK  status: ('A' for Active; 'I' for Inactive)
ROOT
HETATM    1  N1  UNL     1      28.381   0.838  53.618  1.00  0.00    -0.192 NA
HETATM    2  C1  UNL     1      27.251   0.601  53.601  1.00  0.00     0.096 C 
HETATM    3  C2  UNL     1      25.851   0.293  53.600  1.00  0.00     0.040 C 
HETATM    4  C3  UNL     1      25.317  -0.755  54.264  1.00  0.00     0.134 C 
HETATM    5  N2  UNL     1      23.944  -1.018  54.236  1.00  0.00    -0.276 NA
HETATM    6  C4  UNL     1      23.246  -1.175  55.289  1.00  0.00     0.093 C 
HETATM    7  C5  UNL     1      21.868  -1.428  54.768  1.00  0.00     0.075 C 
HETATM    8  C6  UNL     1      21.447  -0.238  53.940  1.00  0.00    -0.005 C 
HETATM    9  C7  UNL     1      21.118  -0.055  52.683  1.00  0.00     0.084 C 
HETATM   10  N3  UNL     1      20.734   0.453  51.448  1.00  0.00    -0.376 N 
HETATM   11  C8  UNL     1      19.430   0.706  50.968  1.00  0.00     0.087 C 
HETATM   12  C9  UNL     1      18.701   1.678  50.461  1.00  0.00     0.019 C 
HETATM   13  C10 UNL     1      18.910   3.075  50.122  1.00  0.00     0.025 C 
HETATM   14  C11 UNL     1      19.838   4.001  50.144  1.00  0.00     0.134 C 
HETATM   15  O1  UNL     1      21.186   4.143  50.526  1.00  0.00    -0.363 OA
HETATM   16  C12 UNL     1      21.577   5.328  51.201  1.00  0.00     0.178 C 
HETATM   17  C13 UNL     1      23.048   5.510  51.274  1.00  0.00     0.053 C 
HETATM   18  C14 UNL     1      23.801   4.497  52.019  1.00  0.00    -0.029 C 
HETATM   19  C15 UNL     1      23.935   3.405  52.731  1.00  0.00    -0.030 C 
HETATM   20  C16 UNL     1      24.920   2.532  53.419  1.00  0.00     0.032 C 
HETATM   21  C17 UNL     1      24.903   1.132  52.840  1.00  0.00     0.055 C 
HETATM   22  H7  UNL     1      21.400   0.720  50.699  1.00  0.00     0.164 HD
ENDROOT
TORSDOF 0
ENDMDL
MODEL 5
REMARK VINA RESULT:      -7.7      1.605      4.582
REMARK  0 active torsions:
REMARK  status: ('A' for Active; 'I' for Inactive)
ROOT
HETATM    1  N1  UNL     1      29.059  -0.584  53.258  1.00  0.00    -0.192 NA
HETATM    2  C1  UNL     1      27.923  -0.453  53.102  1.00  0.00     0.096 C 
HETATM    3  C2  UNL     1      26.507  -0.302  52.931  1.00  0.00     0.040 C 
HETATM    4  C3  UNL     1      25.591  -0.945  53.685  1.00  0.00     0.134 C 
HETATM    5  N2  UNL     1      24.219  -0.766  53.485  1.00  0.00    -0.276 NA
HETATM    6  C4  UNL     1      23.416  -0.448  54.420  1.00  0.00     0.093 C 
HETATM    7  C5  UNL     1      22.088  -0.372  53.739  1.00  0.00     0.075 C 
HETATM    8  C6  UNL     1      22.173   0.662  52.644  1.00  0.00    -0.005 C 
HETATM    9  C7  UNL     1      22.043   0.641  51.338  1.00  0.00     0.084 C 
HETATM   10  N3  UNL     1      21.968   0.942  49.983  1.00  0.00    -0.376 N 
HETATM   11  C8  UNL     1      20.877   1.470  49.258  1.00  0.00     0.087 C 
HETATM   12  C9  UNL     1      20.572   2.474  48.464  1.00  0.00     0.019 C 
HETATM   13  C10 UNL     1      21.272   3.617  47.905  1.00  0.00     0.025 C 
HETATM   14  C11 UNL     1      22.454   4.186  47.902  1.00  0.00     0.134 C 
HETATM   15  O1  UNL     1      23.729   3.985  48.465  1.00  0.00    -0.363 OA
HETATM   16  C12 UNL     1      24.437   5.112  48.958  1.00  0.00     0.178 C 
HETATM   17  C13 UNL     1      25.868   4.838  49.234  1.00  0.00     0.053 C 
HETATM   18  C14 UNL     1      26.161   3.843  50.270  1.00  0.00    -0.029 C 
HETATM   19  C15 UNL     1      25.851   2.961  51.188  1.00  0.00    -0.030 C 
HETATM   20  C16 UNL     1      26.413   2.009  52.180  1.00  0.00     0.032 C 
HETATM   21  C17 UNL     1      25.975   0.591  51.882  1.00  0.00     0.055 C 
HETATM   22  H7  UNL     1      22.750   0.805  49.316  1.00  0.00     0.164 HD
ENDROOT
TORSDOF 0
ENDMDL
MODEL 6
REMARK VINA RESULT:      -7.6      3.036      6.021
REMARK  0 active torsions:
REMARK  status: ('A' for Active; 'I' for Inactive)
ROOT
HETATM    1  N1  UNL     1      17.724  -0.513  51.326  1.00  0.00    -0.192 NA
HETATM    2  C1  UNL     1      18.661   0.162  51.369  1.00  0.00     0.096 C 
HETATM    3  C2  UNL     1      19.809   1.019  51.416  1.00  0.00     0.040 C 
HETATM    4  C3  UNL     1      19.836   2.260  50.886  1.00  0.00     0.134 C 
HETATM    5  N2  UNL     1      20.979   3.064  50.956  1.00  0.00    -0.276 NA
HETATM    6  C4  UNL     1      20.965   4.253  51.409  1.00  0.00     0.093 C 
HETATM    7  C5  UNL     1      22.387   4.697  51.287  1.00  0.00     0.075 C 
HETATM    8  C6  UNL     1      23.250   3.757  52.093  1.00  0.00    -0.005 C 
HETATM    9  C7  UNL     1      24.230   2.931  51.814  1.00  0.00     0.084 C 
HETATM   10  N3  UNL     1      25.259   1.997  51.844  1.00  0.00    -0.376 N 
HETATM   11  C8  UNL     1      26.619   2.197  52.168  1.00  0.00     0.087 C 
HETATM   12  C9  UNL     1      27.549   1.747  52.984  1.00  0.00     0.019 C 
HETATM   13  C10 UNL     1      27.627   0.742  54.030  1.00  0.00     0.025 C 
HETATM   14  C11 UNL     1      26.885  -0.148  54.645  1.00  0.00     0.134 C 
HETATM   15  O1  UNL     1      25.561  -0.625  54.619  1.00  0.00    -0.363 OA
HETATM   16  C12 UNL     1      24.913  -0.892  55.853  1.00  0.00     0.178 C 
HETATM   17  C13 UNL     1      23.660  -1.673  55.707  1.00  0.00     0.053 C 
HETATM   18  C14 UNL     1      22.576  -1.045  54.946  1.00  0.00    -0.029 C 
HETATM   19  C15 UNL     1      22.020  -0.088  54.244  1.00  0.00    -0.030 C 
HETATM   20  C16 UNL     1      20.781   0.315  53.531  1.00  0.00     0.032 C 
HETATM   21  C17 UNL     1      21.055   0.561  52.062  1.00  0.00     0.055 C 
HETATM   22  H7  UNL     1      25.136   0.992  51.619  1.00  0.00     0.164 HD
ENDROOT
TORSDOF 0
ENDMDL
MODEL 7
REMARK VINA RESULT:      -7.5      2.583      7.485
REMARK  0 active torsions:
REMARK  status: ('A' for Active; 'I' for Inactive)
ROOT
HETATM    1  N1  UNL     1      27.911   7.433  48.716  1.00  0.00    -0.192 NA
HETATM    2  C1  UNL     1      26.894   6.899  48.835  1.00  0.00     0.096 C 
HETATM    3  C2  UNL     1      25.623   6.246  48.961  1.00  0.00     0.040 C 
HETATM    4  C3  UNL     1      24.535   6.584  48.236  1.00  0.00     0.134 C 
HETATM    5  N2  UNL     1      23.315   5.919  48.391  1.00  0.00    -0.276 NA
HETATM    6  C4  UNL     1      22.671   5.414  47.416  1.00  0.00     0.093 C 
HETATM    7  C5  UNL     1      21.458   4.822  48.059  1.00  0.00     0.075 C 
HETATM    8  C6  UNL     1      21.908   3.802  49.075  1.00  0.00    -0.005 C 
HETATM    9  C7  UNL     1      21.784   3.673  50.375  1.00  0.00     0.084 C 
HETATM   10  N3  UNL     1      21.827   3.260  51.701  1.00  0.00    -0.376 N 
HETATM   11  C8  UNL     1      20.995   2.327  52.359  1.00  0.00     0.087 C 
HETATM   12  C9  UNL     1      21.067   1.220  53.068  1.00  0.00     0.019 C 
HETATM   13  C10 UNL     1      22.128   0.356  53.556  1.00  0.00     0.025 C 
HETATM   14  C11 UNL     1      23.434   0.240  53.543  1.00  0.00     0.134 C 
HETATM   15  O1  UNL     1      24.554   0.920  53.027  1.00  0.00    -0.363 OA
HETATM   16  C12 UNL     1      25.611   0.156  52.467  1.00  0.00     0.178 C 
HETATM   17  C13 UNL     1      26.853   0.937  52.246  1.00  0.00     0.053 C 
HETATM   18  C14 UNL     1      26.772   2.050  51.294  1.00  0.00    -0.029 C 
HETATM   19  C15 UNL     1      26.166   2.835  50.438  1.00  0.00    -0.030 C 
HETATM   20  C16 UNL     1      26.353   3.998  49.534  1.00  0.00     0.032 C 
HETATM   21  C17 UNL     1      25.444   5.144  49.927  1.00  0.00     0.055 C 
HETATM   22  H7  UNL     1      22.514   3.609  52.395  1.00  0.00     0.164 HD
ENDROOT
TORSDOF 0
ENDMDL
MODEL 8
REMARK VINA RESULT:      -7.2      3.353      6.346
REMARK  0 active torsions:
REMARK  status: ('A' for Active; 'I' for Inactive)
ROOT
HETATM    1  N1  UNL     1      16.017  -0.746  49.931  1.00  0.00    -0.192 NA
HETATM    2  C1  UNL     1      16.934  -0.054  50.045  1.00  0.00     0.096 C 
HETATM    3  C2  UNL     1      18.059   0.825  50.181  1.00  0.00     0.040 C 
HETATM    4  C3  UNL     1      18.095   2.076  49.673  1.00  0.00     0.134 C 
HETATM    5  N2  UNL     1      19.213   2.900  49.830  1.00  0.00    -0.276 NA
HETATM    6  C4  UNL     1      19.144   4.081  50.299  1.00  0.00     0.093 C 
HETATM    7  C5  UNL     1      20.562   4.555  50.278  1.00  0.00     0.075 C 
HETATM    8  C6  UNL     1      21.390   3.620  51.124  1.00  0.00    -0.005 C 
HETATM    9  C7  UNL     1      22.404   2.818  50.898  1.00  0.00     0.084 C 
HETATM   10  N3  UNL     1      23.448   1.905  50.980  1.00  0.00    -0.376 N 
HETATM   11  C8  UNL     1      24.779   2.126  51.396  1.00  0.00     0.087 C 
HETATM   12  C9  UNL     1      25.663   1.681  52.265  1.00  0.00     0.019 C 
HETATM   13  C10 UNL     1      25.693   0.661  53.298  1.00  0.00     0.025 C 
HETATM   14  C11 UNL     1      24.932  -0.254  53.849  1.00  0.00     0.134 C 
HETATM   15  O1  UNL     1      23.622  -0.757  53.729  1.00  0.00    -0.363 OA
HETATM   16  C12 UNL     1      22.901  -1.057  54.914  1.00  0.00     0.178 C 
HETATM   17  C13 UNL     1      21.677  -1.861  54.674  1.00  0.00     0.053 C 
HETATM   18  C14 UNL     1      20.632  -1.241  53.853  1.00  0.00    -0.029 C 
HETATM   19  C15 UNL     1      20.103  -0.285  53.131  1.00  0.00    -0.030 C 
HETATM   20  C16 UNL     1      18.905   0.106  52.344  1.00  0.00     0.032 C 
HETATM   21  C17 UNL     1      19.270   0.381  50.900  1.00  0.00     0.055 C 
HETATM   22  H7  UNL     1      23.360   0.901  50.733  1.00  0.00     0.164 HD
ENDROOT
TORSDOF 0
ENDMDL
MODEL 9
REMARK VINA RESULT:      -7.1      3.066      7.230
REMARK  0 active torsions:
REMARK  status: ('A' for Active; 'I' for Inactive)
ROOT
HETATM    1  N1  UNL     1      20.199   6.522  49.623  1.00  0.00    -0.192 NA
HETATM    2  C1  UNL     1      20.098   5.494  50.139  1.00  0.00     0.096 C 
HETATM    3  C2  UNL     1      19.950   4.214  50.769  1.00  0.00     0.040 C 
HETATM    4  C3  UNL     1      18.776   3.552  50.848  1.00  0.00     0.134 C 
HETATM    5  N2  UNL     1      18.678   2.304  51.470  1.00  0.00    -0.276 NA
HETATM    6  C4  UNL     1      18.161   1.286  50.908  1.00  0.00     0.093 C 
HETATM    7  C5  UNL     1      18.280   0.210  51.940  1.00  0.00     0.075 C 
HETATM    8  C6  UNL     1      19.740   0.034  52.277  1.00  0.00    -0.005 C 
HETATM    9  C7  UNL     1      20.462   0.169  53.364  1.00  0.00     0.084 C 
HETATM   10  N3  UNL     1      21.473   0.222  54.316  1.00  0.00    -0.376 N 
HETATM   11  C8  UNL     1      22.024  -0.835  55.073  1.00  0.00     0.087 C 
HETATM   12  C9  UNL     1      23.183  -1.398  55.345  1.00  0.00     0.019 C 
HETATM   13  C10 UNL     1      24.567  -1.181  54.964  1.00  0.00     0.025 C 
HETATM   14  C11 UNL     1      25.309  -0.392  54.223  1.00  0.00     0.134 C 
HETATM   15  O1  UNL     1      25.151   0.714  53.365  1.00  0.00    -0.363 OA
HETATM   16  C12 UNL     1      25.903   0.750  52.163  1.00  0.00     0.178 C 
HETATM   17  C13 UNL     1      25.899   2.078  51.502  1.00  0.00     0.053 C 
HETATM   18  C14 UNL     1      24.602   2.581  51.041  1.00  0.00    -0.029 C 
HETATM   19  C15 UNL     1      23.306   2.526  50.860  1.00  0.00    -0.030 C 
HETATM   20  C16 UNL     1      22.136   3.255  50.305  1.00  0.00     0.032 C 
HETATM   21  C17 UNL     1      21.115   3.548  51.385  1.00  0.00     0.055 C 
HETATM   22  H7  UNL     1      21.965   1.093  54.591  1.00  0.00     0.164 HD
ENDROOT
TORSDOF 0
ENDMDL
