MODEL 1
REMARK VINA RESULT:      -9.4      0.000      0.000
REMARK  4 active torsions:
REMARK  status: ('A' for Active; 'I' for Inactive)
REMARK    1  A    between atoms: N1_2  and  C2_3 
REMARK    2  A    between atoms: C4_6  and  C5_7 
REMARK    3  A    between atoms: C6_8  and  N3_9 
REMARK    4  A    between atoms: N4_21  and  C18_22 
ROOT
HETATM    1  C2  UNL     1      24.136   6.530  50.616  1.00  0.00     0.739 A 
HETATM    2  N2  UNL     1      24.099   5.254  51.024  1.00  0.00    -0.059 NA
HETATM    3  C3  UNL     1      25.024   4.412  50.544  1.00  0.00     0.115 A 
HETATM    4  C4  UNL     1      25.299   3.087  50.728  1.00  0.00     0.004 A 
HETATM    5  C15 UNL     1      26.422   2.809  49.931  1.00  0.00     0.017 A 
HETATM    6  C16 UNL     1      26.793   3.968  49.288  1.00  0.00     0.035 A 
HETATM    7  C17 UNL     1      25.966   5.017  49.621  1.00  0.00     0.089 A 
HETATM    8  N4  UNL     1      26.013   6.280  49.209  1.00  0.00    -0.220 N 
HETATM    9  N5  UNL     1      25.045   6.989  49.762  1.00  0.00     0.026 NA
ENDROOT
BRANCH   4  10
HETATM   10  C5  UNL     1      24.580   2.119  51.575  1.00  0.00    -0.019 C 
HETATM   11  C6  UNL     1      25.311   1.829  52.766  1.00  0.00     0.021 C 
HETATM   12  C7  UNL     1      24.369   0.962  53.247  1.00  0.00     0.142 C 
HETATM   13  C8  UNL     1      23.450   0.132  53.736  1.00  0.00    -0.142 C 
HETATM   14  C9  UNL     1      22.688  -0.542  54.119  1.00  0.00    -0.009 A 
HETATM   15  C10 UNL     1      21.736  -1.367  54.568  1.00  0.00     0.003 A 
HETATM   16  C11 UNL     1      21.339  -0.878  53.356  1.00  0.00     0.072 A 
HETATM   17  C12 UNL     1      21.539  -0.053  52.167  1.00  0.00    -0.017 C 
HETATM   18  C13 UNL     1      22.317   0.817  51.484  1.00  0.00    -0.025 C 
HETATM   19  C14 UNL     1      23.271   1.718  50.924  1.00  0.00     0.068 C 
BRANCH  11  20
HETATM   20  N3  UNL     1      26.509   2.309  53.180  1.00  0.00    -0.401 N 
HETATM   21  H5  UNL     1      26.503   3.096  53.882  1.00  0.00     0.156 HD
HETATM   22  H6  UNL     1      27.241   1.738  52.663  1.00  0.00     0.156 HD
ENDBRANCH  11  20
ENDBRANCH   4  10
BRANCH   1  23
HETATM   23  N1  UNL     1      23.169   7.436  51.102  1.00  0.00    -0.226 N 
HETATM   24  C1  UNL     1      21.792   7.581  50.733  1.00  0.00     0.165 C 
HETATM   25  H4  UNL     1      23.402   8.122  51.827  1.00  0.00     0.177 HD
ENDBRANCH   1  23
BRANCH   8  26
HETATM   26  C18 UNL     1      26.914   6.890  48.304  1.00  0.00     0.042 A 
HETATM   27  C19 UNL     1      28.188   6.903  48.060  1.00  0.00     0.029 A 
HETATM   28  C20 UNL     1      28.681   7.724  46.970  1.00  0.00     0.022 A 
HETATM   29  C21 UNL     1      27.567   8.259  46.516  1.00  0.00     0.017 A 
HETATM   30 CL1  UNL     1      27.382   9.386  45.174  1.00  0.00    -0.089 Cl
HETATM   31  C22 UNL     1      26.381   7.825  47.264  1.00  0.00     0.110 A 
ENDBRANCH   8  26
TORSDOF 4
ENDMDL
MODEL 2
REMARK VINA RESULT:      -9.3      0.967      1.696
REMARK  4 active torsions:
REMARK  status: ('A' for Active; 'I' for Inactive)
REMARK    1  A    between atoms: N1_2  and  C2_3 
REMARK    2  A    between atoms: C4_6  and  C5_7 
REMARK    3  A    between atoms: C6_8  and  N3_9 
REMARK    4  A    between atoms: N4_21  and  C18_22 
ROOT
HETATM    1  C2  UNL     1      24.183   6.346  50.625  1.00  0.00     0.739 A 
HETATM    2  N2  UNL     1      24.016   5.065  50.982  1.00  0.00    -0.059 NA
HETATM    3  C3  UNL     1      24.903   4.167  50.534  1.00  0.00     0.115 A 
HETATM    4  C4  UNL     1      25.058   2.818  50.687  1.00  0.00     0.004 A 
HETATM    5  C15 UNL     1      26.209   2.475  49.959  1.00  0.00     0.017 A 
HETATM    6  C16 UNL     1      26.716   3.620  49.388  1.00  0.00     0.035 A 
HETATM    7  C17 UNL     1      25.954   4.722  49.702  1.00  0.00     0.089 A 
HETATM    8  N4  UNL     1      26.131   5.989  49.342  1.00  0.00    -0.220 N 
HETATM    9  N5  UNL     1      25.185   6.756  49.854  1.00  0.00     0.026 NA
ENDROOT
BRANCH   4  10
HETATM   10  C5  UNL     1      24.206   1.885  51.445  1.00  0.00    -0.019 C 
HETATM   11  C6  UNL     1      22.899   1.800  50.879  1.00  0.00     0.021 C 
HETATM   12  C7  UNL     1      22.454   0.894  51.800  1.00  0.00     0.142 C 
HETATM   13  C8  UNL     1      22.015  -0.006  52.680  1.00  0.00    -0.142 C 
HETATM   14  C9  UNL     1      21.677  -0.740  53.406  1.00  0.00    -0.009 A 
HETATM   15  C10 UNL     1      21.283  -1.642  54.311  1.00  0.00     0.003 A 
HETATM   16  C11 UNL     1      22.580  -1.309  54.578  1.00  0.00     0.072 A 
HETATM   17  C12 UNL     1      23.806  -0.564  54.301  1.00  0.00    -0.017 C 
HETATM   18  C13 UNL     1      24.463   0.333  53.531  1.00  0.00    -0.025 C 
HETATM   19  C14 UNL     1      24.977   1.291  52.607  1.00  0.00     0.068 C 
BRANCH  11  20
HETATM   20  N3  UNL     1      22.386   2.435  49.796  1.00  0.00    -0.401 N 
HETATM   21  H5  UNL     1      22.878   2.303  48.874  1.00  0.00     0.156 HD
HETATM   22  H6  UNL     1      21.534   2.965  50.151  1.00  0.00     0.156 HD
ENDBRANCH  11  20
ENDBRANCH   4  10
BRANCH   1  23
HETATM   23  N1  UNL     1      23.259   7.312  51.078  1.00  0.00    -0.226 N 
HETATM   24  C1  UNL     1      21.861   7.439  50.788  1.00  0.00     0.165 C 
HETATM   25  H4  UNL     1      23.546   8.066  51.710  1.00  0.00     0.177 HD
ENDBRANCH   1  23
BRANCH   8  26
HETATM   26  C18 UNL     1      27.140   6.552  48.525  1.00  0.00     0.042 A 
HETATM   27  C19 UNL     1      28.412   6.414  48.319  1.00  0.00     0.029 A 
HETATM   28  C20 UNL     1      29.053   7.258  47.327  1.00  0.00     0.022 A 
HETATM   29  C21 UNL     1      28.038   7.978  46.896  1.00  0.00     0.017 A 
HETATM   30 CL1  UNL     1      28.057   9.239  45.664  1.00  0.00    -0.089 Cl
HETATM   31  C22 UNL     1      26.776   7.642  47.566  1.00  0.00     0.110 A 
ENDBRANCH   8  26
TORSDOF 4
ENDMDL
MODEL 3
REMARK VINA RESULT:      -9.2      3.260      8.752
REMARK  4 active torsions:
REMARK  status: ('A' for Active; 'I' for Inactive)
REMARK    1  A    between atoms: N1_2  and  C2_3 
REMARK    2  A    between atoms: C4_6  and  C5_7 
REMARK    3  A    between atoms: C6_8  and  N3_9 
REMARK    4  A    between atoms: N4_21  and  C18_22 
ROOT
HETATM    1  C2  UNL     1      25.887   1.602  53.671  1.00  0.00     0.739 A 
HETATM    2  N2  UNL     1      25.928   2.506  52.683  1.00  0.00    -0.059 NA
HETATM    3  C3  UNL     1      24.853   2.623  51.892  1.00  0.00     0.115 A 
HETATM    4  C4  UNL     1      24.534   3.411  50.823  1.00  0.00     0.004 A 
HETATM    5  C15 UNL     1      23.233   3.043  50.444  1.00  0.00     0.017 A 
HETATM    6  C16 UNL     1      22.802   2.045  51.290  1.00  0.00     0.035 A 
HETATM    7  C17 UNL     1      23.761   1.728  52.225  1.00  0.00     0.089 A 
HETATM    8  N4  UNL     1      23.708   0.827  53.202  1.00  0.00    -0.220 N 
HETATM    9  N5  UNL     1      24.832   0.824  53.895  1.00  0.00     0.026 NA
ENDROOT
BRANCH   4  10
HETATM   10  C5  UNL     1      25.365   4.439  50.171  1.00  0.00    -0.019 C 
HETATM   11  C6  UNL     1      24.813   5.743  50.352  1.00  0.00     0.021 C 
HETATM   12  C7  UNL     1      25.811   6.366  49.656  1.00  0.00     0.142 C 
HETATM   13  C8  UNL     1      26.789   6.987  48.999  1.00  0.00    -0.142 C 
HETATM   14  C9  UNL     1      27.597   7.475  48.460  1.00  0.00    -0.009 A 
HETATM   15  C10 UNL     1      28.601   8.053  47.792  1.00  0.00     0.003 A 
HETATM   16  C11 UNL     1      28.820   6.705  47.808  1.00  0.00     0.072 A 
HETATM   17  C12 UNL     1      28.453   5.341  48.179  1.00  0.00    -0.017 C 
HETATM   18  C13 UNL     1      27.587   4.507  48.799  1.00  0.00    -0.025 C 
HETATM   19  C14 UNL     1      26.565   3.800  49.500  1.00  0.00     0.068 C 
BRANCH  11  20
HETATM   20  N3  UNL     1      23.689   6.119  51.009  1.00  0.00    -0.401 N 
HETATM   21  H5  UNL     1      23.494   5.665  51.941  1.00  0.00     0.156 HD
HETATM   22  H6  UNL     1      23.222   6.844  50.388  1.00  0.00     0.156 HD
ENDBRANCH  11  20
ENDBRANCH   4  10
BRANCH   1  23
HETATM   23  N1  UNL     1      27.008   1.454  54.515  1.00  0.00    -0.226 N 
HETATM   24  C1  UNL     1      28.204   0.691  54.313  1.00  0.00     0.165 C 
HETATM   25  H4  UNL     1      27.056   1.930  55.422  1.00  0.00     0.177 HD
ENDBRANCH   1  23
BRANCH   8  26
HETATM   26  C18 UNL     1      22.660  -0.062  53.538  1.00  0.00     0.042 A 
HETATM   27  C19 UNL     1      22.502  -1.181  54.175  1.00  0.00     0.029 A 
HETATM   28  C20 UNL     1      21.169  -1.748  54.266  1.00  0.00     0.022 A 
HETATM   29  C21 UNL     1      20.457  -0.859  53.606  1.00  0.00     0.017 A 
HETATM   30 CL1  UNL     1      18.721  -0.882  53.299  1.00  0.00    -0.089 Cl
HETATM   31  C22 UNL     1      21.268   0.251  53.090  1.00  0.00     0.110 A 
ENDBRANCH   8  26
TORSDOF 4
ENDMDL
MODEL 4
REMARK VINA RESULT:      -9.2      4.210      7.177
REMARK  4 active torsions:
REMARK  status: ('A' for Active; 'I' for Inactive)
REMARK    1  A    between atoms: N1_2  and  C2_3 
REMARK    2  A    between atoms: C4_6  and  C5_7 
REMARK    3  A    between atoms: C6_8  and  N3_9 
REMARK    4  A    between atoms: N4_21  and  C18_22 
ROOT
HETATM    1  C2  UNL     1      22.764   2.934  49.866  1.00  0.00     0.739 A 
HETATM    2  N2  UNL     1      23.649   2.309  50.655  1.00  0.00    -0.059 NA
HETATM    3  C3  UNL     1      23.177   1.592  51.684  1.00  0.00     0.115 A 
HETATM    4  C4  UNL     1      23.752   0.838  52.668  1.00  0.00     0.004 A 
HETATM    5  C15 UNL     1      22.693   0.336  53.440  1.00  0.00     0.017 A 
HETATM    6  C16 UNL     1      21.511   0.798  52.907  1.00  0.00     0.035 A 
HETATM    7  C17 UNL     1      21.731   1.591  51.804  1.00  0.00     0.089 A 
HETATM    8  N4  UNL     1      20.844   2.206  51.028  1.00  0.00    -0.220 N 
HETATM    9  N5  UNL     1      21.451   2.871  50.061  1.00  0.00     0.026 NA
ENDROOT
BRANCH   4  10
HETATM   10  C5  UNL     1      25.186   0.591  52.902  1.00  0.00    -0.019 C 
HETATM   11  C6  UNL     1      25.860   1.784  53.300  1.00  0.00     0.021 C 
HETATM   12  C7  UNL     1      27.076   1.171  53.419  1.00  0.00     0.142 C 
HETATM   13  C8  UNL     1      28.262   0.581  53.559  1.00  0.00    -0.142 C 
HETATM   14  C9  UNL     1      29.221   0.082  53.668  1.00  0.00    -0.009 A 
HETATM   15  C10 UNL     1      30.390  -0.555  53.794  1.00  0.00     0.003 A 
HETATM   16  C11 UNL     1      29.452  -1.462  53.391  1.00  0.00     0.072 A 
HETATM   17  C12 UNL     1      28.091  -1.830  53.007  1.00  0.00    -0.017 C 
HETATM   18  C13 UNL     1      26.808  -1.455  52.805  1.00  0.00    -0.025 C 
HETATM   19  C14 UNL     1      25.518  -0.867  52.649  1.00  0.00     0.068 C 
BRANCH  11  20
HETATM   20  N3  UNL     1      25.366   3.034  53.476  1.00  0.00    -0.401 N 
HETATM   21  H5  UNL     1      26.045   3.839  53.418  1.00  0.00     0.156 HD
HETATM   22  H6  UNL     1      24.324   2.910  53.646  1.00  0.00     0.156 HD
ENDBRANCH  11  20
ENDBRANCH   4  10
BRANCH   1  23
HETATM   23  N1  UNL     1      23.235   3.701  48.778  1.00  0.00    -0.226 N 
HETATM   24  C1  UNL     1      23.279   5.125  48.622  1.00  0.00     0.165 C 
HETATM   25  H4  UNL     1      23.619   3.253  47.940  1.00  0.00     0.177 HD
ENDBRANCH   1  23
BRANCH   8  26
HETATM   26  C18 UNL     1      19.433   2.229  51.131  1.00  0.00     0.042 A 
HETATM   27  C19 UNL     1      18.431   1.428  50.939  1.00  0.00     0.029 A 
HETATM   28  C20 UNL     1      17.089   1.918  51.189  1.00  0.00     0.022 A 
HETATM   29  C21 UNL     1      17.326   3.155  51.575  1.00  0.00     0.017 A 
HETATM   30 CL1  UNL     1      16.150   4.378  52.051  1.00  0.00    -0.089 Cl
HETATM   31  C22 UNL     1      18.756   3.485  51.581  1.00  0.00     0.110 A 
ENDBRANCH   8  26
TORSDOF 4
ENDMDL
MODEL 5
REMARK VINA RESULT:      -9.1      5.353      8.589
REMARK  4 active torsions:
REMARK  status: ('A' for Active; 'I' for Inactive)
REMARK    1  A    between atoms: N1_2  and  C2_3 
REMARK    2  A    between atoms: C4_6  and  C5_7 
REMARK    3  A    between atoms: C6_8  and  N3_9 
REMARK    4  A    between atoms: N4_21  and  C18_22 
ROOT
HETATM    1  C2  UNL     1      21.139   1.008  49.754  1.00  0.00     0.739 A 
HETATM    2  N2  UNL     1      22.151   1.059  50.631  1.00  0.00    -0.059 NA
HETATM    3  C3  UNL     1      21.915   0.656  51.886  1.00  0.00     0.115 A 
HETATM    4  C4  UNL     1      22.674   0.561  53.018  1.00  0.00     0.004 A 
HETATM    5  C15 UNL     1      21.825   0.049  54.013  1.00  0.00     0.017 A 
HETATM    6  C16 UNL     1      20.581  -0.150  53.459  1.00  0.00     0.035 A 
HETATM    7  C17 UNL     1      20.557   0.207  52.130  1.00  0.00     0.089 A 
HETATM    8  N4  UNL     1      19.546   0.152  51.269  1.00  0.00    -0.220 N 
HETATM    9  N5  UNL     1      19.923   0.578  50.077  1.00  0.00     0.026 NA
ENDROOT
BRANCH   4  10
HETATM   10  C5  UNL     1      24.093   0.921  53.194  1.00  0.00    -0.019 C 
HETATM   11  C6  UNL     1      24.301   2.318  52.994  1.00  0.00     0.021 C 
HETATM   12  C7  UNL     1      25.645   2.250  53.238  1.00  0.00     0.142 C 
HETATM   13  C8  UNL     1      26.951   2.200  53.495  1.00  0.00    -0.142 C 
HETATM   14  C9  UNL     1      28.014   2.139  53.708  1.00  0.00    -0.009 A 
HETATM   15  C10 UNL     1      29.321   2.038  53.974  1.00  0.00     0.003 A 
HETATM   16  C11 UNL     1      28.769   0.793  54.076  1.00  0.00     0.072 A 
HETATM   17  C12 UNL     1      27.635  -0.127  54.014  1.00  0.00    -0.017 C 
HETATM   18  C13 UNL     1      26.313  -0.316  53.799  1.00  0.00    -0.025 C 
HETATM   19  C14 UNL     1      24.910  -0.308  53.538  1.00  0.00     0.068 C 
BRANCH  11  20
HETATM   20  N3  UNL     1      23.406   3.287  52.682  1.00  0.00    -0.401 N 
HETATM   21  H5  UNL     1      23.725   4.289  52.758  1.00  0.00     0.156 HD
HETATM   22  H6  UNL     1      22.514   2.776  52.408  1.00  0.00     0.156 HD
ENDBRANCH  11  20
ENDBRANCH   4  10
BRANCH   1  23
HETATM   23  N1  UNL     1      21.358   1.433  48.425  1.00  0.00    -0.226 N 
HETATM   24  C1  UNL     1      22.462   2.162  47.874  1.00  0.00     0.165 C 
HETATM   25  H4  UNL     1      20.679   1.230  47.685  1.00  0.00     0.177 HD
ENDBRANCH   1  23
BRANCH   8  26
HETATM   26  C18 UNL     1      18.213  -0.272  51.485  1.00  0.00     0.042 A 
HETATM   27  C19 UNL     1      17.521  -0.874  52.401  1.00  0.00     0.029 A 
HETATM   28  C20 UNL     1      16.107  -1.105  52.168  1.00  0.00     0.022 A 
HETATM   29  C21 UNL     1      15.946  -0.576  50.973  1.00  0.00     0.017 A 
HETATM   30 CL1  UNL     1      14.461  -0.486  50.027  1.00  0.00    -0.089 Cl
HETATM   31  C22 UNL     1      17.188  -0.020  50.424  1.00  0.00     0.110 A 
ENDBRANCH   8  26
TORSDOF 4
ENDMDL
MODEL 6
REMARK VINA RESULT:      -9.1      4.182      6.362
REMARK  4 active torsions:
REMARK  status: ('A' for Active; 'I' for Inactive)
REMARK    1  A    between atoms: N1_2  and  C2_3 
REMARK    2  A    between atoms: C4_6  and  C5_7 
REMARK    3  A    between atoms: C6_8  and  N3_9 
REMARK    4  A    between atoms: N4_21  and  C18_22 
ROOT
HETATM    1  C2  UNL     1      24.009   3.504  52.806  1.00  0.00     0.739 A 
HETATM    2  N2  UNL     1      23.011   2.617  52.687  1.00  0.00    -0.059 NA
HETATM    3  C3  UNL     1      23.303   1.318  52.838  1.00  0.00     0.115 A 
HETATM    4  C4  UNL     1      22.574   0.163  52.794  1.00  0.00     0.004 A 
HETATM    5  C15 UNL     1      23.482  -0.878  53.046  1.00  0.00     0.017 A 
HETATM    6  C16 UNL     1      24.730  -0.328  53.233  1.00  0.00     0.035 A 
HETATM    7  C17 UNL     1      24.699   1.043  53.119  1.00  0.00     0.089 A 
HETATM    8  N4  UNL     1      25.697   1.914  53.240  1.00  0.00    -0.220 N 
HETATM    9  N5  UNL     1      25.263   3.149  53.066  1.00  0.00     0.026 NA
ENDROOT
BRANCH   4  10
HETATM   10  C5  UNL     1      21.132   0.007  52.531  1.00  0.00    -0.019 C 
HETATM   11  C6  UNL     1      20.453  -0.528  53.667  1.00  0.00     0.021 C 
HETATM   12  C7  UNL     1      19.228  -0.512  53.061  1.00  0.00     0.142 C 
HETATM   13  C8  UNL     1      18.025  -0.481  52.489  1.00  0.00    -0.142 C 
HETATM   14  C9  UNL     1      17.053  -0.447  52.006  1.00  0.00    -0.009 A 
HETATM   15  C10 UNL     1      15.867  -0.396  51.389  1.00  0.00     0.003 A 
HETATM   16  C11 UNL     1      16.816   0.070  50.526  1.00  0.00     0.072 A 
HETATM   17  C12 UNL     1      18.195   0.409  50.181  1.00  0.00    -0.017 C 
HETATM   18  C13 UNL     1      19.494   0.474  50.551  1.00  0.00    -0.025 C 
HETATM   19  C14 UNL     1      20.800   0.465  51.125  1.00  0.00     0.068 C 
BRANCH  11  20
HETATM   20  N3  UNL     1      20.948  -0.885  54.877  1.00  0.00    -0.401 N 
HETATM   21  H5  UNL     1      20.316  -1.430  55.522  1.00  0.00     0.156 HD
HETATM   22  H6  UNL     1      21.941  -0.505  54.905  1.00  0.00     0.156 HD
ENDBRANCH  11  20
ENDBRANCH   4  10
BRANCH   1  23
HETATM   23  N1  UNL     1      23.730   4.878  52.645  1.00  0.00    -0.226 N 
HETATM   24  C1  UNL     1      23.815   5.692  51.469  1.00  0.00     0.165 C 
HETATM   25  H4  UNL     1      23.413   5.451  53.435  1.00  0.00     0.177 HD
ENDBRANCH   1  23
BRANCH   8  26
HETATM   26  C18 UNL     1      27.066   1.670  53.502  1.00  0.00     0.042 A 
HETATM   27  C19 UNL     1      28.128   2.339  53.828  1.00  0.00     0.029 A 
HETATM   28  C20 UNL     1      29.378   1.623  53.997  1.00  0.00     0.022 A 
HETATM   29  C21 UNL     1      29.012   0.385  53.742  1.00  0.00     0.017 A 
HETATM   30 CL1  UNL     1      30.019  -1.062  53.754  1.00  0.00    -0.089 Cl
HETATM   31  C22 UNL     1      27.586   0.269  53.412  1.00  0.00     0.110 A 
ENDBRANCH   8  26
TORSDOF 4
ENDMDL
MODEL 7
REMARK VINA RESULT:      -9.0      3.917      7.705
REMARK  4 active torsions:
REMARK  status: ('A' for Active; 'I' for Inactive)
REMARK    1  A    between atoms: N1_2  and  C2_3 
REMARK    2  A    between atoms: C4_6  and  C5_7 
REMARK    3  A    between atoms: C6_8  and  N3_9 
REMARK    4  A    between atoms: N4_21  and  C18_22 
ROOT
HETATM    1  C2  UNL     1      23.218   0.722  53.136  1.00  0.00     0.739 A 
HETATM    2  N2  UNL     1      23.186   1.891  52.482  1.00  0.00    -0.059 NA
HETATM    3  C3  UNL     1      24.299   2.288  51.850  1.00  0.00     0.115 A 
HETATM    4  C4  UNL     1      24.634   3.379  51.099  1.00  0.00     0.004 A 
HETATM    5  C15 UNL     1      25.970   3.189  50.714  1.00  0.00     0.017 A 
HETATM    6  C16 UNL     1      26.406   1.995  51.240  1.00  0.00     0.035 A 
HETATM    7  C17 UNL     1      25.417   1.371  51.964  1.00  0.00     0.089 A 
HETATM    8  N4  UNL     1      25.460   0.209  52.609  1.00  0.00    -0.220 N 
HETATM    9  N5  UNL     1      24.299  -0.051  53.182  1.00  0.00     0.026 NA
ENDROOT
BRANCH   4  10
HETATM   10  C5  UNL     1      23.791   4.539  50.754  1.00  0.00    -0.019 C 
HETATM   11  C6  UNL     1      23.513   5.338  51.904  1.00  0.00     0.021 C 
HETATM   12  C7  UNL     1      22.768   6.249  51.208  1.00  0.00     0.142 C 
HETATM   13  C8  UNL     1      22.058   7.155  50.538  1.00  0.00    -0.142 C 
HETATM   14  C9  UNL     1      21.484   7.884  49.973  1.00  0.00    -0.009 A 
HETATM   15  C10 UNL     1      20.779   8.767  49.257  1.00  0.00     0.003 A 
HETATM   16  C11 UNL     1      21.224   7.791  48.412  1.00  0.00     0.072 A 
HETATM   17  C12 UNL     1      21.950   6.553  48.135  1.00  0.00    -0.017 C 
HETATM   18  C13 UNL     1      22.699   5.527  48.597  1.00  0.00    -0.025 C 
HETATM   19  C14 UNL     1      23.471   4.536  49.273  1.00  0.00     0.068 C 
BRANCH  11  20
HETATM   20  N3  UNL     1      23.907   5.165  53.189  1.00  0.00    -0.401 N 
HETATM   21  H5  UNL     1      24.777   5.670  53.505  1.00  0.00     0.156 HD
HETATM   22  H6  UNL     1      23.192   4.507  53.622  1.00  0.00     0.156 HD
ENDBRANCH  11  20
ENDBRANCH   4  10
BRANCH   1  23
HETATM   23  N1  UNL     1      22.062   0.282  53.816  1.00  0.00    -0.226 N 
HETATM   24  C1  UNL     1      21.899  -0.825  54.711  1.00  0.00     0.165 C 
HETATM   25  H4  UNL     1      21.167   0.772  53.712  1.00  0.00     0.177 HD
ENDBRANCH   1  23
BRANCH   8  26
HETATM   26  C18 UNL     1      26.540  -0.697  52.743  1.00  0.00     0.042 A 
HETATM   27  C19 UNL     1      26.798  -1.943  52.499  1.00  0.00     0.029 A 
HETATM   28  C20 UNL     1      28.116  -2.458  52.822  1.00  0.00     0.022 A 
HETATM   29  C21 UNL     1      28.705  -1.388  53.314  1.00  0.00     0.017 A 
HETATM   30 CL1  UNL     1      30.352  -1.251  53.927  1.00  0.00    -0.089 Cl
HETATM   31  C22 UNL     1      27.828  -0.211  53.328  1.00  0.00     0.110 A 
ENDBRANCH   8  26
TORSDOF 4
ENDMDL
MODEL 8
REMARK VINA RESULT:      -8.9      3.955      8.641
REMARK  4 active torsions:
REMARK  status: ('A' for Active; 'I' for Inactive)
REMARK    1  A    between atoms: N1_2  and  C2_3 
REMARK    2  A    between atoms: C4_6  and  C5_7 
REMARK    3  A    between atoms: C6_8  and  N3_9 
REMARK    4  A    between atoms: N4_21  and  C18_22 
ROOT
HETATM    1  C2  UNL     1      21.490   2.004  49.154  1.00  0.00     0.739 A 
HETATM    2  N2  UNL     1      22.562   2.796  49.294  1.00  0.00    -0.059 NA
HETATM    3  C3  UNL     1      23.209   2.776  50.467  1.00  0.00     0.115 A 
HETATM    4  C4  UNL     1      24.308   3.419  50.963  1.00  0.00     0.004 A 
HETATM    5  C15 UNL     1      24.474   2.946  52.274  1.00  0.00     0.017 A 
HETATM    6  C16 UNL     1      23.476   2.036  52.536  1.00  0.00     0.035 A 
HETATM    7  C17 UNL     1      22.643   1.874  51.452  1.00  0.00     0.089 A 
HETATM    8  N4  UNL     1      21.581   1.084  51.325  1.00  0.00    -0.220 N 
HETATM    9  N5  UNL     1      21.048   1.208  50.123  1.00  0.00     0.026 NA
ENDROOT
BRANCH   4  10
HETATM   10  C5  UNL     1      25.160   4.416  50.289  1.00  0.00    -0.019 C 
HETATM   11  C6  UNL     1      24.619   5.730  50.416  1.00  0.00     0.021 C 
HETATM   12  C7  UNL     1      25.634   6.319  49.715  1.00  0.00     0.142 C 
HETATM   13  C8  UNL     1      26.629   6.907  49.052  1.00  0.00    -0.142 C 
HETATM   14  C9  UNL     1      27.450   7.368  48.509  1.00  0.00    -0.009 A 
HETATM   15  C10 UNL     1      28.470   7.912  47.838  1.00  0.00     0.003 A 
HETATM   16  C11 UNL     1      28.675   6.563  47.904  1.00  0.00     0.072 A 
HETATM   17  C12 UNL     1      28.287   5.216  48.317  1.00  0.00    -0.017 C 
HETATM   18  C13 UNL     1      27.403   4.413  48.951  1.00  0.00    -0.025 C 
HETATM   19  C14 UNL     1      26.363   3.742  49.660  1.00  0.00     0.068 C 
BRANCH  11  20
HETATM   20  N3  UNL     1      23.488   6.140  51.042  1.00  0.00    -0.401 N 
HETATM   21  H5  UNL     1      23.421   7.158  51.311  1.00  0.00     0.156 HD
HETATM   22  H6  UNL     1      22.876   5.275  51.124  1.00  0.00     0.156 HD
ENDBRANCH  11  20
ENDBRANCH   4  10
BRANCH   1  23
HETATM   23  N1  UNL     1      20.786   2.009  47.931  1.00  0.00    -0.226 N 
HETATM   24  C1  UNL     1      19.940   3.023  47.372  1.00  0.00     0.165 C 
HETATM   25  H4  UNL     1      20.834   1.212  47.288  1.00  0.00     0.177 HD
ENDBRANCH   1  23
BRANCH   8  26
HETATM   26  C18 UNL     1      21.006   0.205  52.273  1.00  0.00     0.042 A 
HETATM   27  C19 UNL     1      21.382  -0.522  53.278  1.00  0.00     0.029 A 
HETATM   28  C20 UNL     1      20.384  -1.299  53.988  1.00  0.00     0.022 A 
HETATM   29  C21 UNL     1      19.288  -0.994  53.325  1.00  0.00     0.017 A 
HETATM   30 CL1  UNL     1      17.651  -1.573  53.624  1.00  0.00    -0.089 Cl
HETATM   31  C22 UNL     1      19.534  -0.061  52.218  1.00  0.00     0.110 A 
ENDBRANCH   8  26
TORSDOF 4
ENDMDL
MODEL 9
REMARK VINA RESULT:      -8.7      3.454      7.371
REMARK  4 active torsions:
REMARK  status: ('A' for Active; 'I' for Inactive)
REMARK    1  A    between atoms: N1_2  and  C2_3 
REMARK    2  A    between atoms: C4_6  and  C5_7 
REMARK    3  A    between atoms: C6_8  and  N3_9 
REMARK    4  A    between atoms: N4_21  and  C18_22 
ROOT
HETATM    1  C2  UNL     1      26.609   4.217  49.736  1.00  0.00     0.739 A 
HETATM    2  N2  UNL     1      25.418   4.818  49.863  1.00  0.00    -0.059 NA
HETATM    3  C3  UNL     1      24.528   4.278  50.706  1.00  0.00     0.115 A 
HETATM    4  C4  UNL     1      23.257   4.601  51.090  1.00  0.00     0.004 A 
HETATM    5  C15 UNL     1      22.874   3.625  52.023  1.00  0.00     0.017 A 
HETATM    6  C16 UNL     1      23.918   2.741  52.177  1.00  0.00     0.035 A 
HETATM    7  C17 UNL     1      24.990   3.083  51.386  1.00  0.00     0.089 A 
HETATM    8  N4  UNL     1      26.168   2.478  51.269  1.00  0.00    -0.220 N 
HETATM    9  N5  UNL     1      26.939   3.118  50.407  1.00  0.00     0.026 NA
ENDROOT
BRANCH   4  10
HETATM   10  C5  UNL     1      22.428   5.731  50.631  1.00  0.00    -0.019 C 
HETATM   11  C6  UNL     1      22.996   6.981  51.018  1.00  0.00     0.021 C 
HETATM   12  C7  UNL     1      22.004   7.721  50.438  1.00  0.00     0.142 C 
HETATM   13  C8  UNL     1      21.054   8.452  49.858  1.00  0.00    -0.142 C 
HETATM   14  C9  UNL     1      20.270   9.032  49.377  1.00  0.00    -0.009 A 
HETATM   15  C10 UNL     1      19.294   9.723  48.780  1.00  0.00     0.003 A 
HETATM   16  C11 UNL     1      19.045   8.392  48.600  1.00  0.00     0.072 A 
HETATM   17  C12 UNL     1      19.375   6.980  48.779  1.00  0.00    -0.017 C 
HETATM   18  C13 UNL     1      20.215   6.046  49.280  1.00  0.00    -0.025 C 
HETATM   19  C14 UNL     1      21.213   5.223  49.881  1.00  0.00     0.068 C 
BRANCH  11  20
HETATM   20  N3  UNL     1      24.134   7.233  51.712  1.00  0.00    -0.401 N 
HETATM   21  H5  UNL     1      24.623   6.414  52.162  1.00  0.00     0.156 HD
HETATM   22  H6  UNL     1      24.288   8.283  51.639  1.00  0.00     0.156 HD
ENDBRANCH  11  20
ENDBRANCH   4  10
BRANCH   1  23
HETATM   23  N1  UNL     1      27.564   4.761  48.849  1.00  0.00    -0.226 N 
HETATM   24  C1  UNL     1      27.671   6.094  48.335  1.00  0.00     0.165 C 
HETATM   25  H4  UNL     1      28.326   4.187  48.474  1.00  0.00     0.177 HD
ENDBRANCH   1  23
BRANCH   8  26
HETATM   26  C18 UNL     1      26.638   1.308  51.912  1.00  0.00     0.042 A 
HETATM   27  C19 UNL     1      26.380   0.037  51.926  1.00  0.00     0.029 A 
HETATM   28  C20 UNL     1      27.165  -0.823  52.793  1.00  0.00     0.022 A 
HETATM   29  C21 UNL     1      27.982   0.043  53.356  1.00  0.00     0.017 A 
HETATM   30 CL1  UNL     1      29.242  -0.282  54.545  1.00  0.00    -0.089 Cl
HETATM   31  C22 UNL     1      27.758   1.419  52.897  1.00  0.00     0.110 A 
ENDBRANCH   8  26
TORSDOF 4
ENDMDL
