MODEL 1
REMARK VINA RESULT:      -7.9      0.000      0.000
REMARK  3 active torsions:
REMARK  status: ('A' for Active; 'I' for Inactive)
REMARK    1  A    between atoms: C2_2  and  N1_3 
REMARK    2  A    between atoms: C2_2  and  N2_8 
REMARK    3  A    between atoms: N1_3  and  C3_4 
ROOT
HETATM    1  N2  UNL     1      26.085   4.041  50.372  1.00  0.00     0.111 N 
HETATM    2  C7  UNL     1      26.597   2.733  50.062  1.00  0.00     0.276 C 
HETATM    3  C8  UNL     1      26.403   1.793  51.151  1.00  0.00     0.007 C 
HETATM    4  C9  UNL     1      26.440   0.918  52.116  1.00  0.00     0.049 C 
HETATM    5  C10 UNL     1      26.408  -0.084  53.241  1.00  0.00     0.073 A 
HETATM    6 CL1  UNL     1      28.205  -0.461  53.211  1.00  0.00    -0.116 Cl
HETATM    7  C11 UNL     1      25.217  -0.359  53.884  1.00  0.00     0.004 A 
HETATM    8  O1  UNL     1      26.317  -1.079  54.210  1.00  0.00     0.000 OA
HETATM    9  C12 UNL     1      24.232   0.504  53.405  1.00  0.00     0.017 C 
HETATM   10  C13 UNL     1      23.070   0.295  52.553  1.00  0.00     0.028 C 
HETATM   11  C14 UNL     1      22.473   1.789  52.426  1.00  0.00    -0.028 C 
HETATM   12  C15 UNL     1      22.481   2.345  51.170  1.00  0.00     0.006 C 
HETATM   13  C16 UNL     1      22.338   3.238  49.949  1.00  0.00     0.194 C 
HETATM   14  F1  UNL     1      21.811   4.450  50.258  1.00  0.00    -0.245 F 
HETATM   15  C17 UNL     1      23.842   3.445  49.530  1.00  0.00     0.071 C 
HETATM   16  C18 UNL     1      24.661   3.988  50.657  1.00  0.00     0.278 C 
HETATM   17  H13 UNL     1      26.206  -2.054  54.559  1.00  0.00     0.000 HD
ENDROOT
BRANCH   1  18
HETATM   18  C2  UNL     1      26.417   5.002  49.396  1.00  0.00     0.318 C 
HETATM   19  C1  UNL     1      27.683   4.790  48.631  1.00  0.00     0.066 C 
BRANCH  18  20
HETATM   20  N1  UNL     1      26.326   6.393  49.772  1.00  0.00    -0.361 N 
HETATM   21  H5  UNL     1      26.565   6.600  50.741  1.00  0.00     0.161 HD
BRANCH  20  22
HETATM   22  C3  UNL     1      25.905   7.188  48.634  1.00  0.00     0.029 A 
HETATM   23  C4  UNL     1      25.975   8.074  47.729  1.00  0.00     0.029 A 
HETATM   24  C5  UNL     1      24.697   7.840  47.135  1.00  0.00     0.004 A 
HETATM   25  C6  UNL     1      24.562   6.858  48.092  1.00  0.00     0.029 A 
ENDBRANCH  20  22
ENDBRANCH  18  20
ENDBRANCH   1  18
TORSDOF 3
ENDMDL
MODEL 2
REMARK VINA RESULT:      -7.9      1.190      1.421
REMARK  3 active torsions:
REMARK  status: ('A' for Active; 'I' for Inactive)
REMARK    1  A    between atoms: C2_2  and  N1_3 
REMARK    2  A    between atoms: C2_2  and  N2_8 
REMARK    3  A    between atoms: N1_3  and  C3_4 
ROOT
HETATM    1  N2  UNL     1      25.596   3.940  50.565  1.00  0.00     0.111 N 
HETATM    2  C7  UNL     1      26.514   2.861  50.313  1.00  0.00     0.276 C 
HETATM    3  C8  UNL     1      26.711   2.021  51.480  1.00  0.00     0.007 C 
HETATM    4  C9  UNL     1      27.096   1.308  52.501  1.00  0.00     0.049 C 
HETATM    5  C10 UNL     1      27.469   0.469  53.695  1.00  0.00     0.073 A 
HETATM    6 CL1  UNL     1      29.281   0.725  53.550  1.00  0.00    -0.116 Cl
HETATM    7  C11 UNL     1      26.480  -0.132  54.451  1.00  0.00     0.004 A 
HETATM    8  O1  UNL     1      27.777  -0.399  54.739  1.00  0.00     0.000 OA
HETATM    9  C12 UNL     1      25.235   0.295  53.989  1.00  0.00     0.017 C 
HETATM   10  C13 UNL     1      24.176  -0.379  53.250  1.00  0.00     0.028 C 
HETATM   11  C14 UNL     1      23.094   0.803  53.062  1.00  0.00    -0.028 C 
HETATM   12  C15 UNL     1      22.846   1.205  51.772  1.00  0.00     0.006 C 
HETATM   13  C16 UNL     1      22.343   1.873  50.504  1.00  0.00     0.194 C 
HETATM   14  F1  UNL     1      21.445   2.858  50.763  1.00  0.00    -0.245 F 
HETATM   15  C17 UNL     1      23.659   2.537  49.951  1.00  0.00     0.071 C 
HETATM   16  C18 UNL     1      24.294   3.434  50.966  1.00  0.00     0.278 C 
HETATM   17  H13 UNL     1      28.027  -1.315  55.167  1.00  0.00     0.000 HD
ENDROOT
BRANCH   1  18
HETATM   18  C2  UNL     1      25.526   4.857  49.498  1.00  0.00     0.318 C 
HETATM   19  C1  UNL     1      26.808   5.212  48.816  1.00  0.00     0.066 C 
BRANCH  18  20
HETATM   20  N1  UNL     1      24.760   6.063  49.704  1.00  0.00    -0.361 N 
HETATM   21  H5  UNL     1      24.763   6.426  50.657  1.00  0.00     0.161 HD
BRANCH  20  22
HETATM   22  C3  UNL     1      24.150   6.483  48.457  1.00  0.00     0.029 A 
HETATM   23  C4  UNL     1      23.947   7.202  47.431  1.00  0.00     0.029 A 
HETATM   24  C5  UNL     1      22.888   6.429  46.864  1.00  0.00     0.004 A 
HETATM   25  C6  UNL     1      23.063   5.605  47.955  1.00  0.00     0.029 A 
ENDBRANCH  20  22
ENDBRANCH  18  20
ENDBRANCH   1  18
TORSDOF 3
ENDMDL
MODEL 3
REMARK VINA RESULT:      -7.7      3.256      4.728
REMARK  3 active torsions:
REMARK  status: ('A' for Active; 'I' for Inactive)
REMARK    1  A    between atoms: C2_2  and  N1_3 
REMARK    2  A    between atoms: C2_2  and  N2_8 
REMARK    3  A    between atoms: N1_3  and  C3_4 
ROOT
HETATM    1  N2  UNL     1      23.693   2.709  51.437  1.00  0.00     0.111 N 
HETATM    2  C7  UNL     1      22.592   2.920  52.340  1.00  0.00     0.276 C 
HETATM    3  C8  UNL     1      22.014   1.672  52.804  1.00  0.00     0.007 C 
HETATM    4  C9  UNL     1      21.309   0.630  53.146  1.00  0.00     0.049 C 
HETATM    5  C10 UNL     1      20.559  -0.607  53.568  1.00  0.00     0.073 A 
HETATM    6 CL1  UNL     1      18.910  -0.032  53.000  1.00  0.00    -0.116 Cl
HETATM    7  C11 UNL     1      21.239  -1.662  54.145  1.00  0.00     0.004 A 
HETATM    8  O1  UNL     1      19.887  -1.719  54.067  1.00  0.00     0.000 OA
HETATM    9  C12 UNL     1      22.607  -1.396  54.105  1.00  0.00     0.017 C 
HETATM   10  C13 UNL     1      23.573  -1.054  55.140  1.00  0.00     0.028 C 
HETATM   11  C14 UNL     1      24.927  -0.857  54.283  1.00  0.00    -0.028 C 
HETATM   12  C15 UNL     1      25.466   0.406  54.275  1.00  0.00     0.006 C 
HETATM   13  C16 UNL     1      26.312   1.650  54.060  1.00  0.00     0.194 C 
HETATM   14  F1  UNL     1      27.369   1.417  53.241  1.00  0.00    -0.245 F 
HETATM   15  C17 UNL     1      25.302   2.594  53.306  1.00  0.00     0.071 C 
HETATM   16  C18 UNL     1      24.751   1.945  52.076  1.00  0.00     0.278 C 
HETATM   17  H13 UNL     1      19.357  -2.265  54.778  1.00  0.00     0.000 HD
ENDROOT
BRANCH   1  18
HETATM   18  C2  UNL     1      24.153   3.904  50.850  1.00  0.00     0.318 C 
HETATM   19  C1  UNL     1      23.461   5.169  51.243  1.00  0.00     0.066 C 
BRANCH  18  20
HETATM   20  N1  UNL     1      24.356   3.910  49.420  1.00  0.00    -0.361 N 
HETATM   21  H5  UNL     1      23.643   3.425  48.876  1.00  0.00     0.161 HD
BRANCH  20  22
HETATM   22  C3  UNL     1      25.569   4.634  49.094  1.00  0.00     0.029 A 
HETATM   23  C4  UNL     1      26.293   5.606  48.718  1.00  0.00     0.029 A 
HETATM   24  C5  UNL     1      27.560   4.959  48.843  1.00  0.00     0.004 A 
HETATM   25  C6  UNL     1      26.830   3.868  49.264  1.00  0.00     0.029 A 
ENDBRANCH  20  22
ENDBRANCH  18  20
ENDBRANCH   1  18
TORSDOF 3
ENDMDL
MODEL 4
REMARK VINA RESULT:      -7.5      2.234      3.433
REMARK  3 active torsions:
REMARK  status: ('A' for Active; 'I' for Inactive)
REMARK    1  A    between atoms: C2_2  and  N1_3 
REMARK    2  A    between atoms: C2_2  and  N2_8 
REMARK    3  A    between atoms: N1_3  and  C3_4 
ROOT
HETATM    1  N2  UNL     1      23.166   2.853  51.830  1.00  0.00     0.111 N 
HETATM    2  C7  UNL     1      24.129   1.797  51.662  1.00  0.00     0.276 C 
HETATM    3  C8  UNL     1      24.160   0.893  52.796  1.00  0.00     0.007 C 
HETATM    4  C9  UNL     1      24.396   0.125  53.823  1.00  0.00     0.049 C 
HETATM    5  C10 UNL     1      24.595  -0.779  55.011  1.00  0.00     0.073 A 
HETATM    6 CL1  UNL     1      26.404  -0.501  55.161  1.00  0.00    -0.116 Cl
HETATM    7  C11 UNL     1      23.513  -1.430  55.571  1.00  0.00     0.004 A 
HETATM    8  O1  UNL     1      24.754  -1.703  56.040  1.00  0.00     0.000 OA
HETATM    9  C12 UNL     1      22.346  -0.987  54.948  1.00  0.00     0.017 C 
HETATM   10  C13 UNL     1      21.424  -1.626  54.019  1.00  0.00     0.028 C 
HETATM   11  C14 UNL     1      20.363  -0.443  53.734  1.00  0.00    -0.028 C 
HETATM   12  C15 UNL     1      20.309   0.031  52.445  1.00  0.00     0.006 C 
HETATM   13  C16 UNL     1      19.995   0.768  51.154  1.00  0.00     0.194 C 
HETATM   14  F1  UNL     1      19.052   1.729  51.328  1.00  0.00    -0.245 F 
HETATM   15  C17 UNL     1      21.369   1.473  50.849  1.00  0.00     0.071 C 
HETATM   16  C18 UNL     1      21.827   2.314  51.998  1.00  0.00     0.278 C 
HETATM   17  H13 UNL     1      24.951  -2.641  56.449  1.00  0.00     0.000 HD
ENDROOT
BRANCH   1  18
HETATM   18  C2  UNL     1      23.245   3.830  50.818  1.00  0.00     0.318 C 
HETATM   19  C1  UNL     1      22.004   4.607  50.520  1.00  0.00     0.066 C 
BRANCH  18  20
HETATM   20  N1  UNL     1      23.867   3.449  49.571  1.00  0.00    -0.361 N 
HETATM   21  H5  UNL     1      23.458   2.638  49.109  1.00  0.00     0.161 HD
BRANCH  20  22
HETATM   22  C3  UNL     1      24.962   4.350  49.267  1.00  0.00     0.029 A 
HETATM   23  C4  UNL     1      25.536   5.429  48.925  1.00  0.00     0.029 A 
HETATM   24  C5  UNL     1      26.884   4.965  49.020  1.00  0.00     0.004 A 
HETATM   25  C6  UNL     1      26.320   3.767  49.404  1.00  0.00     0.029 A 
ENDBRANCH  20  22
ENDBRANCH  18  20
ENDBRANCH   1  18
TORSDOF 3
ENDMDL
MODEL 5
REMARK VINA RESULT:      -7.4      2.594      3.409
REMARK  3 active torsions:
REMARK  status: ('A' for Active; 'I' for Inactive)
REMARK    1  A    between atoms: C2_2  and  N1_3 
REMARK    2  A    between atoms: C2_2  and  N2_8 
REMARK    3  A    between atoms: N1_3  and  C3_4 
ROOT
HETATM    1  N2  UNL     1      23.255   2.922  51.794  1.00  0.00     0.111 N 
HETATM    2  C7  UNL     1      24.203   1.859  51.588  1.00  0.00     0.276 C 
HETATM    3  C8  UNL     1      24.262   0.947  52.715  1.00  0.00     0.007 C 
HETATM    4  C9  UNL     1      24.525   0.171  53.729  1.00  0.00     0.049 C 
HETATM    5  C10 UNL     1      24.755  -0.742  54.905  1.00  0.00     0.073 A 
HETATM    6 CL1  UNL     1      26.570  -0.480  54.998  1.00  0.00    -0.116 Cl
HETATM    7  C11 UNL     1      23.686  -1.388  55.495  1.00  0.00     0.004 A 
HETATM    8  O1  UNL     1      24.939  -1.674  55.923  1.00  0.00     0.000 OA
HETATM    9  C12 UNL     1      22.503  -0.931  54.913  1.00  0.00     0.017 C 
HETATM   10  C13 UNL     1      21.546  -1.556  54.011  1.00  0.00     0.028 C 
HETATM   11  C14 UNL     1      20.487  -0.363  53.767  1.00  0.00    -0.028 C 
HETATM   12  C15 UNL     1      20.396   0.119  52.484  1.00  0.00     0.006 C 
HETATM   13  C16 UNL     1      20.046   0.867  51.208  1.00  0.00     0.194 C 
HETATM   14  F1  UNL     1      19.117   1.834  51.417  1.00  0.00    -0.245 F 
HETATM   15  C17 UNL     1      21.416   1.563  50.862  1.00  0.00     0.071 C 
HETATM   16  C18 UNL     1      21.917   2.393  52.001  1.00  0.00     0.278 C 
HETATM   17  H13 UNL     1      25.141  -2.616  56.319  1.00  0.00     0.000 HD
ENDROOT
BRANCH   1  18
HETATM   18  C2  UNL     1      23.309   3.904  50.785  1.00  0.00     0.318 C 
HETATM   19  C1  UNL     1      24.162   3.614  49.594  1.00  0.00     0.066 C 
BRANCH  18  20
HETATM   20  N1  UNL     1      23.533   5.270  51.196  1.00  0.00    -0.361 N 
HETATM   21  H5  UNL     1      24.428   5.449  51.650  1.00  0.00     0.161 HD
BRANCH  20  22
HETATM   22  C3  UNL     1      22.386   6.087  50.849  1.00  0.00     0.029 A 
HETATM   23  C4  UNL     1      21.168   6.377  50.646  1.00  0.00     0.029 A 
HETATM   24  C5  UNL     1      21.358   7.741  50.265  1.00  0.00     0.004 A 
HETATM   25  C6  UNL     1      22.697   7.490  50.473  1.00  0.00     0.029 A 
ENDBRANCH  20  22
ENDBRANCH  18  20
ENDBRANCH   1  18
TORSDOF 3
ENDMDL
MODEL 6
REMARK VINA RESULT:      -7.3      2.693      4.019
REMARK  3 active torsions:
REMARK  status: ('A' for Active; 'I' for Inactive)
REMARK    1  A    between atoms: C2_2  and  N1_3 
REMARK    2  A    between atoms: C2_2  and  N2_8 
REMARK    3  A    between atoms: N1_3  and  C3_4 
ROOT
HETATM    1  N2  UNL     1      23.704   3.608  51.875  1.00  0.00     0.111 N 
HETATM    2  C7  UNL     1      24.959   3.185  51.311  1.00  0.00     0.276 C 
HETATM    3  C8  UNL     1      25.787   2.484  52.276  1.00  0.00     0.007 C 
HETATM    4  C9  UNL     1      26.681   2.001  53.093  1.00  0.00     0.049 C 
HETATM    5  C10 UNL     1      27.662   1.391  54.058  1.00  0.00     0.073 A 
HETATM    6 CL1  UNL     1      29.032   2.561  53.703  1.00  0.00    -0.116 Cl
HETATM    7  C11 UNL     1      27.287   0.309  54.832  1.00  0.00     0.004 A 
HETATM    8  O1  UNL     1      28.572   0.733  54.882  1.00  0.00     0.000 OA
HETATM    9  C12 UNL     1      25.929   0.060  54.633  1.00  0.00     0.017 C 
HETATM   10  C13 UNL     1      25.214  -1.008  53.948  1.00  0.00     0.028 C 
HETATM   11  C14 UNL     1      23.677  -0.550  54.123  1.00  0.00    -0.028 C 
HETATM   12  C15 UNL     1      22.997  -0.240  52.970  1.00  0.00     0.006 C 
HETATM   13  C16 UNL     1      21.974   0.163  51.922  1.00  0.00     0.194 C 
HETATM   14  F1  UNL     1      20.785   0.516  52.473  1.00  0.00    -0.245 F 
HETATM   15  C17 UNL     1      22.638   1.454  51.310  1.00  0.00     0.071 C 
HETATM   16  C18 UNL     1      22.943   2.471  52.364  1.00  0.00     0.278 C 
HETATM   17  H13 UNL     1      29.327   0.051  55.105  1.00  0.00     0.000 HD
ENDROOT
BRANCH   1  18
HETATM   18  C2  UNL     1      22.965   4.432  51.003  1.00  0.00     0.318 C 
HETATM   19  C1  UNL     1      23.736   5.254  50.022  1.00  0.00     0.066 C 
BRANCH  18  20
HETATM   20  N1  UNL     1      21.926   5.251  51.581  1.00  0.00    -0.361 N 
HETATM   21  H5  UNL     1      22.204   5.803  52.391  1.00  0.00     0.161 HD
BRANCH  20  22
HETATM   22  C3  UNL     1      20.692   5.085  50.837  1.00  0.00     0.029 A 
HETATM   23  C4  UNL     1      19.818   5.309  49.945  1.00  0.00     0.029 A 
HETATM   24  C5  UNL     1      18.886   4.299  50.334  1.00  0.00     0.004 A 
HETATM   25  C6  UNL     1      19.799   4.003  51.323  1.00  0.00     0.029 A 
ENDBRANCH  20  22
ENDBRANCH  18  20
ENDBRANCH   1  18
TORSDOF 3
ENDMDL
MODEL 7
REMARK VINA RESULT:      -7.3      3.664      4.990
REMARK  3 active torsions:
REMARK  status: ('A' for Active; 'I' for Inactive)
REMARK    1  A    between atoms: C2_2  and  N1_3 
REMARK    2  A    between atoms: C2_2  and  N2_8 
REMARK    3  A    between atoms: N1_3  and  C3_4 
ROOT
HETATM    1  N2  UNL     1      23.276   3.767  50.906  1.00  0.00     0.111 N 
HETATM    2  C7  UNL     1      22.173   4.121  51.760  1.00  0.00     0.276 C 
HETATM    3  C8  UNL     1      21.221   3.036  51.909  1.00  0.00     0.007 C 
HETATM    4  C9  UNL     1      20.220   2.203  51.975  1.00  0.00     0.049 C 
HETATM    5  C10 UNL     1      19.113   1.188  52.074  1.00  0.00     0.073 A 
HETATM    6 CL1  UNL     1      17.769   2.318  51.537  1.00  0.00    -0.116 Cl
HETATM    7  C11 UNL     1      19.399  -0.109  52.454  1.00  0.00     0.004 A 
HETATM    8  O1  UNL     1      18.104   0.250  52.279  1.00  0.00     0.000 OA
HETATM    9  C12 UNL     1      20.782  -0.256  52.560  1.00  0.00     0.017 C 
HETATM   10  C13 UNL     1      21.670  -0.413  53.704  1.00  0.00     0.028 C 
HETATM   11  C14 UNL     1      23.120  -0.468  52.997  1.00  0.00    -0.028 C 
HETATM   12  C15 UNL     1      23.983   0.558  53.294  1.00  0.00     0.006 C 
HETATM   13  C16 UNL     1      25.159   1.514  53.405  1.00  0.00     0.194 C 
HETATM   14  F1  UNL     1      26.203   1.137  52.625  1.00  0.00    -0.245 F 
HETATM   15  C17 UNL     1      24.548   2.837  52.807  1.00  0.00     0.071 C 
HETATM   16  C18 UNL     1      23.996   2.621  51.434  1.00  0.00     0.278 C 
HETATM   17  H13 UNL     1      17.361  -0.238  52.822  1.00  0.00     0.000 HD
ENDROOT
BRANCH   1  18
HETATM   18  C2  UNL     1      24.116   4.861  50.618  1.00  0.00     0.318 C 
HETATM   19  C1  UNL     1      23.879   6.124  51.381  1.00  0.00     0.066 C 
BRANCH  18  20
HETATM   20  N1  UNL     1      24.330   5.190  49.229  1.00  0.00    -0.361 N 
HETATM   21  H5  UNL     1      23.486   5.269  48.663  1.00  0.00     0.161 HD
BRANCH  20  22
HETATM   22  C3  UNL     1      25.749   5.337  48.966  1.00  0.00     0.029 A 
HETATM   23  C4  UNL     1      26.827   5.908  48.617  1.00  0.00     0.029 A 
HETATM   24  C5  UNL     1      27.707   4.805  48.837  1.00  0.00     0.004 A 
HETATM   25  C6  UNL     1      26.572   4.130  49.234  1.00  0.00     0.029 A 
ENDBRANCH  20  22
ENDBRANCH  18  20
ENDBRANCH   1  18
TORSDOF 3
ENDMDL
MODEL 8
REMARK VINA RESULT:      -7.3      5.268      7.961
REMARK  3 active torsions:
REMARK  status: ('A' for Active; 'I' for Inactive)
REMARK    1  A    between atoms: C2_2  and  N1_3 
REMARK    2  A    between atoms: C2_2  and  N2_8 
REMARK    3  A    between atoms: N1_3  and  C3_4 
ROOT
HETATM    1  N2  UNL     1      30.660   5.972  48.723  1.00  0.00     0.111 N 
HETATM    2  C7  UNL     1      29.622   5.477  47.859  1.00  0.00     0.276 C 
HETATM    3  C8  UNL     1      28.307   5.576  48.465  1.00  0.00     0.007 C 
HETATM    4  C9  UNL     1      27.111   5.455  48.971  1.00  0.00     0.049 C 
HETATM    5  C10 UNL     1      25.732   5.389  49.571  1.00  0.00     0.073 A 
HETATM    6 CL1  UNL     1      25.474   3.597  49.261  1.00  0.00    -0.116 Cl
HETATM    7  C11 UNL     1      25.165   6.522  50.123  1.00  0.00     0.004 A 
HETATM    8  O1  UNL     1      24.420   5.393  50.039  1.00  0.00     0.000 OA
HETATM    9  C12 UNL     1      26.110   7.548  50.120  1.00  0.00     0.017 C 
HETATM   10  C13 UNL     1      26.228   8.774  49.343  1.00  0.00     0.028 C 
HETATM   11  C14 UNL     1      27.613   9.390  49.895  1.00  0.00    -0.028 C 
HETATM   12  C15 UNL     1      28.642   9.487  48.991  1.00  0.00     0.006 C 
HETATM   13  C16 UNL     1      29.956   9.735  48.268  1.00  0.00     0.194 C 
HETATM   14  F1  UNL     1      30.907  10.243  49.093  1.00  0.00    -0.245 F 
HETATM   15  C17 UNL     1      30.379   8.271  47.869  1.00  0.00     0.071 C 
HETATM   16  C18 UNL     1      30.436   7.368  49.060  1.00  0.00     0.278 C 
HETATM   17  H13 UNL     1      23.385   5.470  49.955  1.00  0.00     0.000 HD
ENDROOT
BRANCH   1  18
HETATM   18  C2  UNL     1      31.953   5.727  48.218  1.00  0.00     0.318 C 
HETATM   19  C1  UNL     1      32.072   4.761  47.084  1.00  0.00     0.066 C 
BRANCH  18  20
HETATM   20  N1  UNL     1      33.001   5.455  49.173  1.00  0.00    -0.361 N 
HETATM   21  H5  UNL     1      32.751   4.815  49.927  1.00  0.00     0.161 HD
BRANCH  20  22
HETATM   22  C3  UNL     1      34.202   6.183  48.812  1.00  0.00     0.029 A 
HETATM   23  C4  UNL     1      35.433   6.374  48.570  1.00  0.00     0.029 A 
HETATM   24  C5  UNL     1      35.353   7.768  48.268  1.00  0.00     0.004 A 
HETATM   25  C6  UNL     1      34.005   7.624  48.513  1.00  0.00     0.029 A 
ENDBRANCH  20  22
ENDBRANCH  18  20
ENDBRANCH   1  18
TORSDOF 3
ENDMDL
MODEL 9
REMARK VINA RESULT:      -7.2      2.941      5.780
REMARK  3 active torsions:
REMARK  status: ('A' for Active; 'I' for Inactive)
REMARK    1  A    between atoms: C2_2  and  N1_3 
REMARK    2  A    between atoms: C2_2  and  N2_8 
REMARK    3  A    between atoms: N1_3  and  C3_4 
ROOT
HETATM    1  N2  UNL     1      21.783   2.412  50.887  1.00  0.00     0.111 N 
HETATM    2  C7  UNL     1      22.009   2.407  52.308  1.00  0.00     0.276 C 
HETATM    3  C8  UNL     1      23.156   1.599  52.681  1.00  0.00     0.007 C 
HETATM    4  C9  UNL     1      24.049   0.770  53.145  1.00  0.00     0.049 C 
HETATM    5  C10 UNL     1      25.132  -0.155  53.635  1.00  0.00     0.073 A 
HETATM    6 CL1  UNL     1      24.068  -1.092  54.802  1.00  0.00    -0.116 Cl
HETATM    7  C11 UNL     1      26.409  -0.057  53.116  1.00  0.00     0.004 A 
HETATM    8  O1  UNL     1      26.182  -0.918  54.138  1.00  0.00     0.000 OA
HETATM    9  C12 UNL     1      26.405   0.871  52.075  1.00  0.00     0.017 C 
HETATM   10  C13 UNL     1      26.952   2.215  51.952  1.00  0.00     0.028 C 
HETATM   11  C14 UNL     1      26.486   2.632  50.465  1.00  0.00    -0.028 C 
HETATM   12  C15 UNL     1      25.607   3.684  50.372  1.00  0.00     0.006 C 
HETATM   13  C16 UNL     1      24.663   4.785  49.919  1.00  0.00     0.194 C 
HETATM   14  F1  UNL     1      24.500   4.799  48.571  1.00  0.00    -0.245 F 
HETATM   15  C17 UNL     1      23.306   4.330  50.576  1.00  0.00     0.071 C 
HETATM   16  C18 UNL     1      22.939   2.936  50.178  1.00  0.00     0.278 C 
HETATM   17  H13 UNL     1      26.957  -1.146  54.795  1.00  0.00     0.000 HD
ENDROOT
BRANCH   1  18
HETATM   18  C2  UNL     1      20.580   3.051  50.528  1.00  0.00     0.318 C 
HETATM   19  C1  UNL     1      19.815   3.729  51.618  1.00  0.00     0.066 C 
BRANCH  18  20
HETATM   20  N1  UNL     1      19.655   2.315  49.699  1.00  0.00    -0.361 N 
HETATM   21  H5  UNL     1      19.518   2.687  48.760  1.00  0.00     0.161 HD
BRANCH  20  22
HETATM   22  C3  UNL     1      19.128   1.179  50.431  1.00  0.00     0.029 A 
HETATM   23  C4  UNL     1      19.128   0.192  51.229  1.00  0.00     0.029 A 
HETATM   24  C5  UNL     1      17.765  -0.195  51.052  1.00  0.00     0.004 A 
HETATM   25  C6  UNL     1      17.699   0.867  50.176  1.00  0.00     0.029 A 
ENDBRANCH  20  22
ENDBRANCH  18  20
ENDBRANCH   1  18
TORSDOF 3
ENDMDL
