MODEL 1
REMARK VINA RESULT:      -8.1      0.000      0.000
REMARK  6 active torsions:
REMARK  status: ('A' for Active; 'I' for Inactive)
REMARK    1  A    between atoms: C6_6  and  O1_7 
REMARK    2  A    between atoms: C10_14  and  O3_15 
REMARK    3  A    between atoms: O3_15  and  C11_16 
REMARK    4  A    between atoms: C14_19  and  N3_20 
REMARK       I    between atoms: N3_20  and  C15_21 
REMARK    5  A    between atoms: C15_21  and  O5_23 
REMARK    6  A    between atoms: O5_23  and  C16_24 
ROOT
HETATM    1  C1  UNL     1      17.580  -1.191  52.896  1.00  0.00     0.027 C 
HETATM    2  C2  UNL     1      17.956  -0.445  51.913  1.00  0.00     0.005 A 
HETATM    3  C3  UNL     1      19.129   0.356  51.741  1.00  0.00     0.032 A 
HETATM    4  C4  UNL     1      19.474   1.061  50.723  1.00  0.00     0.056 A 
HETATM    5  C5  UNL     1      18.206   0.683  50.057  1.00  0.00     0.107 A 
HETATM    6  C6  UNL     1      17.360  -0.133  50.618  1.00  0.00     0.112 A 
HETATM    7  O2  UNL     1      18.726   1.566  49.076  1.00  0.00    -0.318 OA
HETATM    8  C8  UNL     1      18.593   2.991  49.545  1.00  0.00     0.396 C 
HETATM    9  N1  UNL     1      18.887   3.075  50.875  1.00  0.00    -0.416 NA
HETATM   10  C9  UNL     1      19.298   2.872  51.985  1.00  0.00     0.297 C 
HETATM   11  N2  UNL     1      20.029   2.087  52.966  1.00  0.00    -0.205 NA
HETATM   12  C10 UNL     1      19.978   0.747  52.891  1.00  0.00     0.183 C 
ENDROOT
BRANCH  12  13
HETATM   13  O3  UNL     1      20.608  -0.087  53.752  1.00  0.00    -0.291 OA
BRANCH  13  14
HETATM   14  C11 UNL     1      22.026  -0.122  53.735  1.00  0.00     0.078 A 
HETATM   15  C12 UNL     1      22.347  -0.886  54.832  1.00  0.00     0.039 A 
HETATM   16  C13 UNL     1      23.703  -1.094  55.070  1.00  0.00     0.032 A 
HETATM   17  C14 UNL     1      24.710  -0.587  54.282  1.00  0.00     0.037 A 
HETATM   18  C18 UNL     1      24.358   0.175  53.189  1.00  0.00     0.032 A 
HETATM   19  C19 UNL     1      23.026   0.385  52.948  1.00  0.00     0.039 A 
BRANCH  17  20
HETATM   20  N3  UNL     1      26.099  -0.774  54.488  1.00  0.00    -0.303 N 
HETATM   21  C15 UNL     1      27.120   0.155  54.765  1.00  0.00     0.365 C 
HETATM   22  O4  UNL     1      26.941   1.375  54.881  1.00  0.00    -0.238 OA
HETATM   23  H12 UNL     1      26.217  -1.814  54.385  1.00  0.00     0.171 HD
BRANCH  21  24
HETATM   24  O5  UNL     1      28.364  -0.421  54.902  1.00  0.00    -0.304 OA
BRANCH  24  25
HETATM   25  C16 UNL     1      29.374  -0.320  53.937  1.00  0.00     0.176 C 
HETATM   26  C17 UNL     1      29.755  -1.677  53.391  1.00  0.00     0.034 C 
ENDBRANCH  24  25
ENDBRANCH  21  24
ENDBRANCH  17  20
ENDBRANCH  13  14
ENDBRANCH  12  13
BRANCH   6  27
HETATM   27  O1  UNL     1      16.219  -0.501  49.974  1.00  0.00    -0.352 OA
HETATM   28  C7  UNL     1      15.068   0.327  49.918  1.00  0.00     0.210 C 
ENDBRANCH   6  27
TORSDOF 6
ENDMDL
MODEL 2
REMARK VINA RESULT:      -7.8      1.831      3.068
REMARK  6 active torsions:
REMARK  status: ('A' for Active; 'I' for Inactive)
REMARK    1  A    between atoms: C6_6  and  O1_7 
REMARK    2  A    between atoms: C10_14  and  O3_15 
REMARK    3  A    between atoms: O3_15  and  C11_16 
REMARK    4  A    between atoms: C14_19  and  N3_20 
REMARK       I    between atoms: N3_20  and  C15_21 
REMARK    5  A    between atoms: C15_21  and  O5_23 
REMARK    6  A    between atoms: O5_23  and  C16_24 
ROOT
HETATM    1  C1  UNL     1      19.226   0.422  50.383  1.00  0.00     0.027 C 
HETATM    2  C2  UNL     1      18.209  -0.070  51.006  1.00  0.00     0.005 A 
HETATM    3  C3  UNL     1      18.027  -0.400  52.387  1.00  0.00     0.032 A 
HETATM    4  C4  UNL     1      16.977  -0.860  52.967  1.00  0.00     0.056 A 
HETATM    5  C5  UNL     1      16.291  -0.895  51.655  1.00  0.00     0.107 A 
HETATM    6  C6  UNL     1      16.874  -0.467  50.571  1.00  0.00     0.112 A 
HETATM    7  O2  UNL     1      15.273  -1.464  52.461  1.00  0.00    -0.318 OA
HETATM    8  C8  UNL     1      15.637  -2.879  52.826  1.00  0.00     0.396 C 
HETATM    9  N1  UNL     1      16.969  -2.958  53.115  1.00  0.00    -0.416 NA
HETATM   10  C9  UNL     1      18.105  -2.713  53.417  1.00  0.00     0.297 C 
HETATM   11  N2  UNL     1      19.164  -1.802  53.818  1.00  0.00    -0.205 NA
HETATM   12  C10 UNL     1      19.179  -0.561  53.305  1.00  0.00     0.183 C 
ENDROOT
BRANCH  12  13
HETATM   13  O3  UNL     1      20.119   0.371  53.596  1.00  0.00    -0.291 OA
BRANCH  13  14
HETATM   14  C11 UNL     1      21.402  -0.075  54.002  1.00  0.00     0.078 A 
HETATM   15  C12 UNL     1      22.260   0.565  53.140  1.00  0.00     0.039 A 
HETATM   16  C13 UNL     1      23.618   0.310  53.309  1.00  0.00     0.032 A 
HETATM   17  C14 UNL     1      24.130  -0.528  54.270  1.00  0.00     0.037 A 
HETATM   18  C18 UNL     1      23.247  -1.157  55.121  1.00  0.00     0.032 A 
HETATM   19  C19 UNL     1      21.909  -0.912  54.961  1.00  0.00     0.039 A 
BRANCH  17  20
HETATM   20  N3  UNL     1      25.502  -0.816  54.476  1.00  0.00    -0.303 N 
HETATM   21  C15 UNL     1      26.590   0.036  54.742  1.00  0.00     0.365 C 
HETATM   22  O4  UNL     1      26.503   1.268  54.844  1.00  0.00    -0.238 OA
HETATM   23  H12 UNL     1      25.541  -1.863  54.384  1.00  0.00     0.171 HD
BRANCH  21  24
HETATM   24  O5  UNL     1      27.787  -0.628  54.883  1.00  0.00    -0.304 OA
BRANCH  24  25
HETATM   25  C16 UNL     1      29.020  -0.100  54.477  1.00  0.00     0.176 C 
HETATM   26  C17 UNL     1      29.627  -0.910  53.355  1.00  0.00     0.034 C 
ENDBRANCH  24  25
ENDBRANCH  21  24
ENDBRANCH  17  20
ENDBRANCH  13  14
ENDBRANCH  12  13
BRANCH   6  27
HETATM   27  O1  UNL     1      16.214  -0.468  49.382  1.00  0.00    -0.352 OA
HETATM   28  C7  UNL     1      15.845   0.725  48.708  1.00  0.00     0.210 C 
ENDBRANCH   6  27
TORSDOF 6
ENDMDL
MODEL 3
REMARK VINA RESULT:      -7.8      3.395      4.451
REMARK  6 active torsions:
REMARK  status: ('A' for Active; 'I' for Inactive)
REMARK    1  A    between atoms: C6_6  and  O1_7 
REMARK    2  A    between atoms: C10_14  and  O3_15 
REMARK    3  A    between atoms: O3_15  and  C11_16 
REMARK    4  A    between atoms: C14_19  and  N3_20 
REMARK       I    between atoms: N3_20  and  C15_21 
REMARK    5  A    between atoms: C15_21  and  O5_23 
REMARK    6  A    between atoms: O5_23  and  C16_24 
ROOT
HETATM    1  C1  UNL     1      21.257   1.397  48.800  1.00  0.00     0.027 C 
HETATM    2  C2  UNL     1      21.743   2.583  48.648  1.00  0.00     0.005 A 
HETATM    3  C3  UNL     1      22.081   3.586  49.611  1.00  0.00     0.032 A 
HETATM    4  C4  UNL     1      22.594   4.747  49.409  1.00  0.00     0.056 A 
HETATM    5  C5  UNL     1      22.554   4.489  47.951  1.00  0.00     0.107 A 
HETATM    6  C6  UNL     1      22.137   3.352  47.472  1.00  0.00     0.112 A 
HETATM    7  O2  UNL     1      23.046   5.819  47.935  1.00  0.00    -0.318 OA
HETATM    8  C8  UNL     1      21.935   6.782  48.262  1.00  0.00     0.396 C 
HETATM    9  N1  UNL     1      21.154   6.272  49.259  1.00  0.00    -0.416 NA
HETATM   10  C9  UNL     1      20.729   5.648  50.193  1.00  0.00     0.297 C 
HETATM   11  N2  UNL     1      20.859   4.654  51.246  1.00  0.00    -0.205 NA
HETATM   12  C10 UNL     1      21.562   3.537  50.998  1.00  0.00     0.183 C 
ENDROOT
BRANCH  12  13
HETATM   13  O3  UNL     1      21.744   2.539  51.896  1.00  0.00    -0.291 OA
BRANCH  13  14
HETATM   14  C11 UNL     1      23.036   2.363  52.452  1.00  0.00     0.078 A 
HETATM   15  C12 UNL     1      23.284   1.021  52.287  1.00  0.00     0.039 A 
HETATM   16  C13 UNL     1      24.510   0.553  52.751  1.00  0.00     0.032 A 
HETATM   17  C14 UNL     1      25.460   1.345  53.350  1.00  0.00     0.037 A 
HETATM   18  C18 UNL     1      25.184   2.687  53.503  1.00  0.00     0.032 A 
HETATM   19  C19 UNL     1      23.980   3.156  53.049  1.00  0.00     0.039 A 
BRANCH  17  20
HETATM   20  N3  UNL     1      26.718   0.910  53.837  1.00  0.00    -0.303 N 
HETATM   21  C15 UNL     1      27.043   0.016  54.874  1.00  0.00     0.365 C 
HETATM   22  O4  UNL     1      26.208  -0.574  55.574  1.00  0.00    -0.238 OA
HETATM   23  H12 UNL     1      27.400   1.426  53.224  1.00  0.00     0.171 HD
BRANCH  21  24
HETATM   24  O5  UNL     1      28.398  -0.154  55.048  1.00  0.00    -0.304 OA
BRANCH  24  25
HETATM   25  C16 UNL     1      29.312  -0.228  53.989  1.00  0.00     0.176 C 
HETATM   26  C17 UNL     1      29.295  -1.591  53.337  1.00  0.00     0.034 C 
ENDBRANCH  24  25
ENDBRANCH  21  24
ENDBRANCH  17  20
ENDBRANCH  13  14
ENDBRANCH  12  13
BRANCH   6  27
HETATM   27  O1  UNL     1      22.146   3.117  46.133  1.00  0.00    -0.352 OA
HETATM   28  C7  UNL     1      21.619   4.036  45.189  1.00  0.00     0.210 C 
ENDBRANCH   6  27
TORSDOF 6
ENDMDL
MODEL 4
REMARK VINA RESULT:      -7.6      4.425      5.925
REMARK  6 active torsions:
REMARK  status: ('A' for Active; 'I' for Inactive)
REMARK    1  A    between atoms: C6_6  and  O1_7 
REMARK    2  A    between atoms: C10_14  and  O3_15 
REMARK    3  A    between atoms: O3_15  and  C11_16 
REMARK    4  A    between atoms: C14_19  and  N3_20 
REMARK       I    between atoms: N3_20  and  C15_21 
REMARK    5  A    between atoms: C15_21  and  O5_23 
REMARK    6  A    between atoms: O5_23  and  C16_24 
ROOT
HETATM    1  C1  UNL     1      24.248   3.163  49.230  1.00  0.00     0.027 C 
HETATM    2  C2  UNL     1      24.103   4.354  49.704  1.00  0.00     0.005 A 
HETATM    3  C3  UNL     1      23.319   4.837  50.799  1.00  0.00     0.032 A 
HETATM    4  C4  UNL     1      23.233   6.036  51.253  1.00  0.00     0.056 A 
HETATM    5  C5  UNL     1      24.147   6.488  50.178  1.00  0.00     0.107 A 
HETATM    6  C6  UNL     1      24.669   5.647  49.332  1.00  0.00     0.112 A 
HETATM    7  O2  UNL     1      23.862   7.741  50.778  1.00  0.00    -0.318 OA
HETATM    8  C8  UNL     1      22.468   8.181  50.412  1.00  0.00     0.396 C 
HETATM    9  N1  UNL     1      21.619   7.113  50.442  1.00  0.00    -0.416 NA
HETATM   10  C9  UNL     1      21.100   6.051  50.657  1.00  0.00     0.297 C 
HETATM   11  N2  UNL     1      21.066   4.734  51.269  1.00  0.00    -0.205 NA
HETATM   12  C10 UNL     1      22.210   4.038  51.372  1.00  0.00     0.183 C 
ENDROOT
BRANCH  12  13
HETATM   13  O3  UNL     1      22.301   2.800  51.914  1.00  0.00    -0.291 OA
BRANCH  13  14
HETATM   14  C11 UNL     1      23.522   2.425  52.530  1.00  0.00     0.078 A 
HETATM   15  C12 UNL     1      23.683   1.110  52.164  1.00  0.00     0.039 A 
HETATM   16  C13 UNL     1      24.825   0.467  52.636  1.00  0.00     0.032 A 
HETATM   17  C14 UNL     1      25.773   1.068  53.430  1.00  0.00     0.037 A 
HETATM   18  C18 UNL     1      25.585   2.387  53.782  1.00  0.00     0.032 A 
HETATM   19  C19 UNL     1      24.464   3.026  53.322  1.00  0.00     0.039 A 
BRANCH  17  20
HETATM   20  N3  UNL     1      26.946   0.452  53.932  1.00  0.00    -0.303 N 
HETATM   21  C15 UNL     1      28.305   0.737  53.700  1.00  0.00     0.365 C 
HETATM   22  O4  UNL     1      28.711   1.644  52.961  1.00  0.00    -0.238 OA
HETATM   23  H12 UNL     1      26.568  -0.308  54.553  1.00  0.00     0.171 HD
BRANCH  21  24
HETATM   24  O5  UNL     1      29.165  -0.095  54.381  1.00  0.00    -0.304 OA
BRANCH  24  25
HETATM   25  C16 UNL     1      30.021  -1.007  53.750  1.00  0.00     0.176 C 
HETATM   26  C17 UNL     1      29.275  -2.233  53.278  1.00  0.00     0.034 C 
ENDBRANCH  24  25
ENDBRANCH  21  24
ENDBRANCH  17  20
ENDBRANCH  13  14
ENDBRANCH  12  13
BRANCH   6  27
HETATM   27  O1  UNL     1      25.539   6.073  48.377  1.00  0.00    -0.352 OA
HETATM   28  C7  UNL     1      26.939   6.154  48.594  1.00  0.00     0.210 C 
ENDBRANCH   6  27
TORSDOF 6
ENDMDL
MODEL 5
REMARK VINA RESULT:      -7.5      5.596      7.591
REMARK  6 active torsions:
REMARK  status: ('A' for Active; 'I' for Inactive)
REMARK    1  A    between atoms: C6_6  and  O1_7 
REMARK    2  A    between atoms: C10_14  and  O3_15 
REMARK    3  A    between atoms: O3_15  and  C11_16 
REMARK    4  A    between atoms: C14_19  and  N3_20 
REMARK       I    between atoms: N3_20  and  C15_21 
REMARK    5  A    between atoms: C15_21  and  O5_23 
REMARK    6  A    between atoms: O5_23  and  C16_24 
ROOT
HETATM    1  C1  UNL     1      25.342   1.983  52.600  1.00  0.00     0.027 C 
HETATM    2  C2  UNL     1      24.366   1.146  52.713  1.00  0.00     0.005 A 
HETATM    3  C3  UNL     1      23.106   1.082  52.038  1.00  0.00     0.032 A 
HETATM    4  C4  UNL     1      22.175   0.205  52.164  1.00  0.00     0.056 A 
HETATM    5  C5  UNL     1      22.978  -0.467  53.213  1.00  0.00     0.107 A 
HETATM    6  C6  UNL     1      24.164  -0.038  53.541  1.00  0.00     0.112 A 
HETATM    7  O2  UNL     1      21.817  -1.281  53.256  1.00  0.00    -0.318 OA
HETATM    8  C8  UNL     1      20.696  -0.542  53.938  1.00  0.00     0.396 C 
HETATM    9  N1  UNL     1      20.693   0.766  53.547  1.00  0.00    -0.416 NA
HETATM   10  C9  UNL     1      20.855   1.798  52.955  1.00  0.00     0.297 C 
HETATM   11  N2  UNL     1      21.365   2.578  51.839  1.00  0.00    -0.205 NA
HETATM   12  C10 UNL     1      22.554   2.249  51.310  1.00  0.00     0.183 C 
ENDROOT
BRANCH  12  13
HETATM   13  O3  UNL     1      23.135   2.906  50.277  1.00  0.00    -0.291 OA
BRANCH  13  14
HETATM   14  C11 UNL     1      23.720   4.172  50.531  1.00  0.00     0.078 A 
HETATM   15  C12 UNL     1      24.817   4.198  49.703  1.00  0.00     0.039 A 
HETATM   16  C13 UNL     1      25.599   5.350  49.741  1.00  0.00     0.032 A 
HETATM   17  C14 UNL     1      25.336   6.432  50.547  1.00  0.00     0.037 A 
HETATM   18  C18 UNL     1      24.230   6.378  51.368  1.00  0.00     0.032 A 
HETATM   19  C19 UNL     1      23.455   5.249  51.336  1.00  0.00     0.039 A 
BRANCH  17  20
HETATM   20  N3  UNL     1      26.104   7.621  50.618  1.00  0.00    -0.303 N 
HETATM   21  C15 UNL     1      26.042   8.802  49.855  1.00  0.00     0.365 C 
HETATM   22  O4  UNL     1      25.239   8.996  48.932  1.00  0.00    -0.238 OA
HETATM   23  H12 UNL     1      26.771   7.425  51.408  1.00  0.00     0.171 HD
BRANCH  21  24
HETATM   24  O5  UNL     1      26.969   9.749  50.232  1.00  0.00    -0.304 OA
BRANCH  24  25
HETATM   25  C16 UNL     1      27.973  10.230  49.382  1.00  0.00     0.176 C 
HETATM   26  C17 UNL     1      29.080   9.218  49.204  1.00  0.00     0.034 C 
ENDBRANCH  24  25
ENDBRANCH  21  24
ENDBRANCH  17  20
ENDBRANCH  13  14
ENDBRANCH  12  13
BRANCH   6  27
HETATM   27  O1  UNL     1      24.904  -0.692  54.476  1.00  0.00    -0.352 OA
HETATM   28  C7  UNL     1      24.342  -1.222  55.666  1.00  0.00     0.210 C 
ENDBRANCH   6  27
TORSDOF 6
ENDMDL
MODEL 6
REMARK VINA RESULT:      -7.4      1.785      2.244
REMARK  6 active torsions:
REMARK  status: ('A' for Active; 'I' for Inactive)
REMARK    1  A    between atoms: C6_6  and  O1_7 
REMARK    2  A    between atoms: C10_14  and  O3_15 
REMARK    3  A    between atoms: O3_15  and  C11_16 
REMARK    4  A    between atoms: C14_19  and  N3_20 
REMARK       I    between atoms: N3_20  and  C15_21 
REMARK    5  A    between atoms: C15_21  and  O5_23 
REMARK    6  A    between atoms: O5_23  and  C16_24 
ROOT
HETATM    1  C1  UNL     1      18.375  -1.113  52.958  1.00  0.00     0.027 C 
HETATM    2  C2  UNL     1      17.749  -0.176  52.330  1.00  0.00     0.005 A 
HETATM    3  C3  UNL     1      18.224   0.813  51.410  1.00  0.00     0.032 A 
HETATM    4  C4  UNL     1      17.550   1.710  50.784  1.00  0.00     0.056 A 
HETATM    5  C5  UNL     1      16.326   1.249  51.479  1.00  0.00     0.107 A 
HETATM    6  C6  UNL     1      16.350   0.236  52.297  1.00  0.00     0.112 A 
HETATM    7  O2  UNL     1      15.782   2.342  50.757  1.00  0.00    -0.318 OA
HETATM    8  C8  UNL     1      16.209   3.640  51.390  1.00  0.00     0.396 C 
HETATM    9  N1  UNL     1      17.515   3.562  51.780  1.00  0.00    -0.416 NA
HETATM   10  C9  UNL     1      18.669   3.257  51.907  1.00  0.00     0.297 C 
HETATM   11  N2  UNL     1      19.834   2.452  51.576  1.00  0.00    -0.205 NA
HETATM   12  C10 UNL     1      19.663   1.148  51.305  1.00  0.00     0.183 C 
ENDROOT
BRANCH  12  13
HETATM   13  O3  UNL     1      20.672   0.298  50.994  1.00  0.00    -0.291 OA
BRANCH  13  14
HETATM   14  C11 UNL     1      21.741   0.160  51.916  1.00  0.00     0.078 A 
HETATM   15  C12 UNL     1      22.716   0.986  51.411  1.00  0.00     0.039 A 
HETATM   16  C13 UNL     1      23.908   1.053  52.129  1.00  0.00     0.032 A 
HETATM   17  C14 UNL     1      24.150   0.351  53.286  1.00  0.00     0.037 A 
HETATM   18  C18 UNL     1      23.153  -0.470  53.769  1.00  0.00     0.032 A 
HETATM   19  C19 UNL     1      21.978  -0.541  53.069  1.00  0.00     0.039 A 
BRANCH  17  20
HETATM   20  N3  UNL     1      25.345   0.389  54.045  1.00  0.00    -0.303 N 
HETATM   21  C15 UNL     1      26.437  -0.499  54.086  1.00  0.00     0.365 C 
HETATM   22  O4  UNL     1      26.522  -1.532  53.407  1.00  0.00    -0.238 OA
HETATM   23  H12 UNL     1      25.243   1.273  54.606  1.00  0.00     0.171 HD
BRANCH  21  24
HETATM   24  O5  UNL     1      27.426  -0.114  54.963  1.00  0.00    -0.304 OA
BRANCH  24  25
HETATM   25  C16 UNL     1      28.783  -0.051  54.621  1.00  0.00     0.176 C 
HETATM   26  C17 UNL     1      29.064   1.099  53.682  1.00  0.00     0.034 C 
ENDBRANCH  24  25
ENDBRANCH  21  24
ENDBRANCH  17  20
ENDBRANCH  13  14
ENDBRANCH  12  13
BRANCH   6  27
HETATM   27  O1  UNL     1      15.209  -0.199  52.896  1.00  0.00    -0.352 OA
HETATM   28  C7  UNL     1      13.984   0.515  52.827  1.00  0.00     0.210 C 
ENDBRANCH   6  27
TORSDOF 6
ENDMDL
MODEL 7
REMARK VINA RESULT:      -7.2      4.320      9.375
REMARK  6 active torsions:
REMARK  status: ('A' for Active; 'I' for Inactive)
REMARK    1  A    between atoms: C6_6  and  O1_7 
REMARK    2  A    between atoms: C10_14  and  O3_15 
REMARK    3  A    between atoms: O3_15  and  C11_16 
REMARK    4  A    between atoms: C14_19  and  N3_20 
REMARK       I    between atoms: N3_20  and  C15_21 
REMARK    5  A    between atoms: C15_21  and  O5_23 
REMARK    6  A    between atoms: O5_23  and  C16_24 
ROOT
HETATM    1  C1  UNL     1      22.723   0.455  52.069  1.00  0.00     0.027 C 
HETATM    2  C2  UNL     1      23.799   0.909  52.617  1.00  0.00     0.005 A 
HETATM    3  C3  UNL     1      24.476   2.159  52.456  1.00  0.00     0.032 A 
HETATM    4  C4  UNL     1      25.534   2.578  53.053  1.00  0.00     0.056 A 
HETATM    5  C5  UNL     1      25.626   1.279  53.759  1.00  0.00     0.107 A 
HETATM    6  C6  UNL     1      24.726   0.352  53.597  1.00  0.00     0.112 A 
HETATM    7  O2  UNL     1      26.808   1.891  54.250  1.00  0.00    -0.318 OA
HETATM    8  C8  UNL     1      27.863   1.905  53.175  1.00  0.00     0.396 C 
HETATM    9  N1  UNL     1      27.297   2.203  51.969  1.00  0.00    -0.416 NA
HETATM   10  C9  UNL     1      26.569   2.588  51.095  1.00  0.00     0.297 C 
HETATM   11  N2  UNL     1      25.356   3.231  50.617  1.00  0.00    -0.205 NA
HETATM   12  C10 UNL     1      24.212   3.041  51.295  1.00  0.00     0.183 C 
ENDROOT
BRANCH  12  13
HETATM   13  O3  UNL     1      23.020   3.580  50.941  1.00  0.00    -0.291 OA
BRANCH  13  14
HETATM   14  C11 UNL     1      22.776   3.821  49.565  1.00  0.00     0.078 A 
HETATM   15  C12 UNL     1      22.552   2.568  49.047  1.00  0.00     0.039 A 
HETATM   16  C13 UNL     1      22.278   2.498  47.684  1.00  0.00     0.032 A 
HETATM   17  C14 UNL     1      22.223   3.591  46.853  1.00  0.00     0.037 A 
HETATM   18  C18 UNL     1      22.451   4.836  47.400  1.00  0.00     0.032 A 
HETATM   19  C19 UNL     1      22.722   4.913  48.740  1.00  0.00     0.039 A 
BRANCH  17  20
HETATM   20  N3  UNL     1      21.949   3.564  45.463  1.00  0.00    -0.303 N 
HETATM   21  C15 UNL     1      20.755   3.805  44.756  1.00  0.00     0.365 C 
HETATM   22  O4  UNL     1      19.677   4.101  45.289  1.00  0.00    -0.238 OA
HETATM   23  H12 UNL     1      22.880   3.313  45.042  1.00  0.00     0.171 HD
BRANCH  21  24
HETATM   24  O5  UNL     1      20.890   3.683  43.391  1.00  0.00    -0.304 OA
BRANCH  24  25
HETATM   25  C16 UNL     1      19.931   4.132  42.475  1.00  0.00     0.176 C 
HETATM   26  C17 UNL     1      19.774   3.169  41.321  1.00  0.00     0.034 C 
ENDBRANCH  24  25
ENDBRANCH  21  24
ENDBRANCH  17  20
ENDBRANCH  13  14
ENDBRANCH  12  13
BRANCH   6  27
HETATM   27  O1  UNL     1      24.804  -0.819  54.285  1.00  0.00    -0.352 OA
HETATM   28  C7  UNL     1      25.114  -0.877  55.669  1.00  0.00     0.210 C 
ENDBRANCH   6  27
TORSDOF 6
ENDMDL
MODEL 8
REMARK VINA RESULT:      -7.1      9.500     13.654
REMARK  6 active torsions:
REMARK  status: ('A' for Active; 'I' for Inactive)
REMARK    1  A    between atoms: C6_6  and  O1_7 
REMARK    2  A    between atoms: C10_14  and  O3_15 
REMARK    3  A    between atoms: O3_15  and  C11_16 
REMARK    4  A    between atoms: C14_19  and  N3_20 
REMARK       I    between atoms: N3_20  and  C15_21 
REMARK    5  A    between atoms: C15_21  and  O5_23 
REMARK    6  A    between atoms: O5_23  and  C16_24 
ROOT
HETATM    1  C1  UNL     1      32.080   7.272  44.609  1.00  0.00     0.027 C 
HETATM    2  C2  UNL     1      32.478   6.186  45.180  1.00  0.00     0.005 A 
HETATM    3  C3  UNL     1      32.184   5.646  46.472  1.00  0.00     0.032 A 
HETATM    4  C4  UNL     1      32.584   4.538  46.985  1.00  0.00     0.056 A 
HETATM    5  C5  UNL     1      33.381   4.282  45.763  1.00  0.00     0.107 A 
HETATM    6  C6  UNL     1      33.355   5.102  44.751  1.00  0.00     0.112 A 
HETATM    7  O2  UNL     1      33.764   3.151  46.527  1.00  0.00    -0.318 OA
HETATM    8  C8  UNL     1      34.716   3.566  47.619  1.00  0.00     0.396 C 
HETATM    9  N1  UNL     1      34.313   4.750  48.164  1.00  0.00    -0.416 NA
HETATM   10  C9  UNL     1      33.676   5.706  48.518  1.00  0.00     0.297 C 
HETATM   11  N2  UNL     1      32.446   6.474  48.606  1.00  0.00    -0.205 NA
HETATM   12  C10 UNL     1      31.613   6.484  47.553  1.00  0.00     0.183 C 
ENDROOT
BRANCH  12  13
HETATM   13  O3  UNL     1      30.445   7.170  47.514  1.00  0.00    -0.291 OA
BRANCH  13  14
HETATM   14  C11 UNL     1      29.261   6.502  47.916  1.00  0.00     0.078 A 
HETATM   15  C12 UNL     1      28.295   7.478  47.848  1.00  0.00     0.039 A 
HETATM   16  C13 UNL     1      27.001   7.098  48.195  1.00  0.00     0.032 A 
HETATM   17  C14 UNL     1      26.652   5.829  48.592  1.00  0.00     0.037 A 
HETATM   18  C18 UNL     1      27.641   4.871  48.651  1.00  0.00     0.032 A 
HETATM   19  C19 UNL     1      28.916   5.236  48.312  1.00  0.00     0.039 A 
BRANCH  17  20
HETATM   20  N3  UNL     1      25.350   5.401  48.955  1.00  0.00    -0.303 N 
HETATM   21  C15 UNL     1      24.515   5.797  50.016  1.00  0.00     0.365 C 
HETATM   22  O4  UNL     1      24.817   6.650  50.862  1.00  0.00    -0.238 OA
HETATM   23  H12 UNL     1      25.124   4.683  48.220  1.00  0.00     0.171 HD
BRANCH  21  24
HETATM   24  O5  UNL     1      23.303   5.143  50.035  1.00  0.00    -0.304 OA
BRANCH  24  25
HETATM   25  C16 UNL     1      23.068   3.928  49.378  1.00  0.00     0.176 C 
HETATM   26  C17 UNL     1      23.368   2.748  50.272  1.00  0.00     0.034 C 
ENDBRANCH  24  25
ENDBRANCH  21  24
ENDBRANCH  17  20
ENDBRANCH  13  14
ENDBRANCH  12  13
BRANCH   6  27
HETATM   27  O1  UNL     1      34.061   4.831  43.620  1.00  0.00    -0.352 OA
HETATM   28  C7  UNL     1      33.440   4.576  42.370  1.00  0.00     0.210 C 
ENDBRANCH   6  27
TORSDOF 6
ENDMDL
MODEL 9
REMARK VINA RESULT:      -7.0      5.593      6.778
REMARK  6 active torsions:
REMARK  status: ('A' for Active; 'I' for Inactive)
REMARK    1  A    between atoms: C6_6  and  O1_7 
REMARK    2  A    between atoms: C10_14  and  O3_15 
REMARK    3  A    between atoms: O3_15  and  C11_16 
REMARK    4  A    between atoms: C14_19  and  N3_20 
REMARK       I    between atoms: N3_20  and  C15_21 
REMARK    5  A    between atoms: C15_21  and  O5_23 
REMARK    6  A    between atoms: O5_23  and  C16_24 
ROOT
HETATM    1  C1  UNL     1      23.805   1.252  51.898  1.00  0.00     0.027 C 
HETATM    2  C2  UNL     1      22.574   0.967  51.633  1.00  0.00     0.005 A 
HETATM    3  C3  UNL     1      21.741   1.350  50.535  1.00  0.00     0.032 A 
HETATM    4  C4  UNL     1      20.524   1.012  50.300  1.00  0.00     0.056 A 
HETATM    5  C5  UNL     1      20.511   0.249  51.570  1.00  0.00     0.107 A 
HETATM    6  C6  UNL     1      21.572   0.159  52.320  1.00  0.00     0.112 A 
HETATM    7  O2  UNL     1      19.163   0.054  51.171  1.00  0.00    -0.318 OA
HETATM    8  C8  UNL     1      18.375   1.320  51.387  1.00  0.00     0.396 C 
HETATM    9  N1  UNL     1      19.125   2.403  51.029  1.00  0.00    -0.416 NA
HETATM   10  C9  UNL     1      19.944   3.136  50.545  1.00  0.00     0.297 C 
HETATM   11  N2  UNL     1      21.100   3.401  49.705  1.00  0.00    -0.205 NA
HETATM   12  C10 UNL     1      22.088   2.493  49.658  1.00  0.00     0.183 C 
ENDROOT
BRANCH  12  13
HETATM   13  O3  UNL     1      23.216   2.634  48.921  1.00  0.00    -0.291 OA
BRANCH  13  14
HETATM   14  C11 UNL     1      23.935   3.852  49.021  1.00  0.00     0.078 A 
HETATM   15  C12 UNL     1      25.170   3.466  49.485  1.00  0.00     0.039 A 
HETATM   16  C13 UNL     1      26.105   4.478  49.682  1.00  0.00     0.032 A 
HETATM   17  C14 UNL     1      25.861   5.809  49.443  1.00  0.00     0.037 A 
HETATM   18  C18 UNL     1      24.613   6.168  48.978  1.00  0.00     0.032 A 
HETATM   19  C19 UNL     1      23.688   5.178  48.781  1.00  0.00     0.039 A 
BRANCH  17  20
HETATM   20  N3  UNL     1      26.782   6.870  49.630  1.00  0.00    -0.303 N 
HETATM   21  C15 UNL     1      27.597   7.553  48.708  1.00  0.00     0.365 C 
HETATM   22  O4  UNL     1      27.633   7.309  47.494  1.00  0.00    -0.238 OA
HETATM   23  H12 UNL     1      26.726   7.053  50.665  1.00  0.00     0.171 HD
BRANCH  21  24
HETATM   24  O5  UNL     1      28.367   8.540  49.281  1.00  0.00    -0.304 OA
BRANCH  24  25
HETATM   25  C16 UNL     1      29.431   9.172  48.625  1.00  0.00     0.176 C 
HETATM   26  C17 UNL     1      30.762   8.783  49.226  1.00  0.00     0.034 C 
ENDBRANCH  24  25
ENDBRANCH  21  24
ENDBRANCH  17  20
ENDBRANCH  13  14
ENDBRANCH  12  13
BRANCH   6  27
HETATM   27  O1  UNL     1      21.554  -0.579  53.462  1.00  0.00    -0.352 OA
HETATM   28  C7  UNL     1      21.199  -0.035  54.723  1.00  0.00     0.210 C 
ENDBRANCH   6  27
TORSDOF 6
ENDMDL
