MODEL 1
REMARK VINA RESULT:      -7.3      0.000      0.000
REMARK  7 active torsions:
REMARK  status: ('A' for Active; 'I' for Inactive)
REMARK    1  A    between atoms: C2_2  and  C3_3 
REMARK       I    between atoms: C3_3  and  N1_5 
REMARK    2  A    between atoms: N1_5  and  C4_6 
REMARK    3  A    between atoms: C7_9  and  O2_10 
REMARK    4  A    between atoms: N2_14  and  C11_15 
REMARK    5  A    between atoms: C11_15  and  C12_16 
REMARK    6  A    between atoms: C12_16  and  C14_18 
REMARK    7  A    between atoms: C16_23  and  C17_24 
ROOT
HETATM    1  C4  UNL     1      23.248   3.358  50.137  1.00  0.00     0.098 A 
HETATM    2  C5  UNL     1      22.806   2.269  49.373  1.00  0.00     0.001 A 
HETATM    3  C6  UNL     1      21.909   2.523  50.322  1.00  0.00     0.076 A 
HETATM    4  C7  UNL     1      21.248   3.065  51.375  1.00  0.00     0.125 A 
HETATM    5  C9  UNL     1      21.645   4.120  52.142  1.00  0.00     0.025 A 
HETATM    6  C10 UNL     1      22.584   3.888  51.189  1.00  0.00     0.121 A 
HETATM    7  N2  UNL     1      23.538   4.715  51.916  1.00  0.00    -0.258 N 
HETATM    8  N3  UNL     1      24.115   3.827  52.921  1.00  0.00     0.008 NA
HETATM    9  N4  UNL     1      24.028   2.690  52.938  1.00  0.00    -0.183 NA
HETATM   10  N5  UNL     1      23.980   1.416  53.033  1.00  0.00    -0.156 N 
HETATM   11  C16 UNL     1      24.902   0.737  53.755  1.00  0.00     0.051 A 
HETATM   12  C19 UNL     1      24.752  -0.624  53.797  1.00  0.00     0.032 A 
HETATM   13  C20 UNL     1      23.618  -0.856  53.017  1.00  0.00     0.053 A 
HETATM   14  C21 UNL     1      23.198   0.375  52.589  1.00  0.00     0.137 A 
HETATM   15  N6  UNL     1      22.120   0.680  51.775  1.00  0.00    -0.373 N 
HETATM   16  C22 UNL     1      21.390   1.080  50.545  1.00  0.00     0.143 C 
HETATM   17  H28 UNL     1      21.277   0.552  52.437  1.00  0.00     0.161 HD
ENDROOT
BRANCH   1  18
HETATM   18  N1  UNL     1      24.531   3.837  49.703  1.00  0.00    -0.341 N 
HETATM   19  C3  UNL     1      25.827   4.062  49.327  1.00  0.00     0.241 C 
HETATM   20  O1  UNL     1      26.527   2.995  49.430  1.00  0.00    -0.269 OA
HETATM   21  H4  UNL     1      24.035   4.785  49.660  1.00  0.00     0.164 HD
BRANCH  19  22
HETATM   22  C2  UNL     1      26.381   5.326  48.872  1.00  0.00     0.064 C 
HETATM   23  C1  UNL     1      27.622   5.490  48.495  1.00  0.00     0.017 C 
ENDBRANCH  19  22
ENDBRANCH   1  18
BRANCH   7  24
HETATM   24  C11 UNL     1      23.895   6.082  51.745  1.00  0.00     0.153 C 
BRANCH  24  25
HETATM   25  C12 UNL     1      23.345   6.791  50.545  1.00  0.00     0.001 C 
HETATM   26  C13 UNL     1      24.261   8.028  50.372  1.00  0.00     0.011 C 
BRANCH  25  27
HETATM   27  C14 UNL     1      21.981   7.431  50.871  1.00  0.00     0.001 C 
HETATM   28  C15 UNL     1      20.978   6.985  49.831  1.00  0.00     0.005 C 
ENDBRANCH  25  27
ENDBRANCH  24  25
ENDBRANCH   7  24
BRANCH   4  29
HETATM   29  O2  UNL     1      20.045   2.615  51.815  1.00  0.00    -0.377 OA
HETATM   30  C8  UNL     1      18.761   3.085  51.647  1.00  0.00     0.203 C 
ENDBRANCH   4  29
BRANCH  11  31
HETATM   31  C17 UNL     1      26.065   1.362  54.489  1.00  0.00     0.056 C 
HETATM   32  C18 UNL     1      27.199   0.417  54.646  1.00  0.00     0.011 C 
ENDBRANCH  11  31
TORSDOF 7
ENDMDL
MODEL 2
REMARK VINA RESULT:      -7.2      2.214      5.135
REMARK  7 active torsions:
REMARK  status: ('A' for Active; 'I' for Inactive)
REMARK    1  A    between atoms: C2_2  and  C3_3 
REMARK       I    between atoms: C3_3  and  N1_5 
REMARK    2  A    between atoms: N1_5  and  C4_6 
REMARK    3  A    between atoms: C7_9  and  O2_10 
REMARK    4  A    between atoms: N2_14  and  C11_15 
REMARK    5  A    between atoms: C11_15  and  C12_16 
REMARK    6  A    between atoms: C12_16  and  C14_18 
REMARK    7  A    between atoms: C16_23  and  C17_24 
ROOT
HETATM    1  C4  UNL     1      25.220   2.531  53.125  1.00  0.00     0.098 A 
HETATM    2  C5  UNL     1      25.683   2.358  54.437  1.00  0.00     0.001 A 
HETATM    3  C6  UNL     1      26.134   1.358  53.686  1.00  0.00     0.076 A 
HETATM    4  C7  UNL     1      26.398   0.531  52.643  1.00  0.00     0.125 A 
HETATM    5  C9  UNL     1      25.967   0.664  51.357  1.00  0.00     0.025 A 
HETATM    6  C10 UNL     1      25.485   1.698  52.094  1.00  0.00     0.121 A 
HETATM    7  N2  UNL     1      24.529   2.013  51.041  1.00  0.00    -0.258 N 
HETATM    8  N3  UNL     1      23.401   1.116  51.278  1.00  0.00     0.008 NA
HETATM    9  N4  UNL     1      23.215   0.514  52.227  1.00  0.00    -0.183 NA
HETATM   10  N5  UNL     1      22.930  -0.194  53.253  1.00  0.00    -0.156 N 
HETATM   11  C16 UNL     1      21.663  -0.618  53.476  1.00  0.00     0.051 A 
HETATM   12  C19 UNL     1      21.470  -1.378  54.600  1.00  0.00     0.032 A 
HETATM   13  C20 UNL     1      22.743  -1.451  55.171  1.00  0.00     0.053 A 
HETATM   14  C21 UNL     1      23.568  -0.740  54.342  1.00  0.00     0.137 A 
HETATM   15  N6  UNL     1      24.925  -0.504  54.479  1.00  0.00    -0.373 N 
HETATM   16  C22 UNL     1      26.172   0.251  54.769  1.00  0.00     0.143 C 
HETATM   17  H28 UNL     1      25.363  -1.451  54.206  1.00  0.00     0.161 HD
ENDROOT
BRANCH   1  18
HETATM   18  N1  UNL     1      24.381   3.689  52.996  1.00  0.00    -0.341 N 
HETATM   19  C3  UNL     1      23.687   4.865  53.083  1.00  0.00     0.241 C 
HETATM   20  O1  UNL     1      24.013   5.514  54.138  1.00  0.00    -0.269 OA
HETATM   21  H4  UNL     1      24.001   3.178  52.136  1.00  0.00     0.164 HD
BRANCH  19  22
HETATM   22  C2  UNL     1      22.700   5.351  52.133  1.00  0.00     0.064 C 
HETATM   23  C1  UNL     1      21.701   4.636  51.684  1.00  0.00     0.017 C 
ENDBRANCH  19  22
ENDBRANCH   1  18
BRANCH   7  24
HETATM   24  C11 UNL     1      24.595   2.968  49.987  1.00  0.00     0.153 C 
BRANCH  24  25
HETATM   25  C12 UNL     1      25.664   4.015  50.074  1.00  0.00     0.001 C 
HETATM   26  C13 UNL     1      25.111   5.204  49.250  1.00  0.00     0.011 C 
BRANCH  25  27
HETATM   27  C14 UNL     1      26.902   3.592  49.259  1.00  0.00     0.001 C 
HETATM   28  C15 UNL     1      27.563   4.836  48.707  1.00  0.00     0.005 C 
ENDBRANCH  25  27
ENDBRANCH  24  25
ENDBRANCH   7  24
BRANCH   4  29
HETATM   29  O2  UNL     1      27.172  -0.580  52.747  1.00  0.00    -0.377 OA
HETATM   30  C8  UNL     1      27.031  -1.859  52.255  1.00  0.00     0.203 C 
ENDBRANCH   4  29
BRANCH  11  31
HETATM   31  C17 UNL     1      20.474  -0.306  52.598  1.00  0.00     0.056 C 
HETATM   32  C18 UNL     1      19.951   1.063  52.833  1.00  0.00     0.011 C 
ENDBRANCH  11  31
TORSDOF 7
ENDMDL
MODEL 3
REMARK VINA RESULT:      -7.2      2.169      5.139
REMARK  7 active torsions:
REMARK  status: ('A' for Active; 'I' for Inactive)
REMARK    1  A    between atoms: C2_2  and  C3_3 
REMARK       I    between atoms: C3_3  and  N1_5 
REMARK    2  A    between atoms: N1_5  and  C4_6 
REMARK    3  A    between atoms: C7_9  and  O2_10 
REMARK    4  A    between atoms: N2_14  and  C11_15 
REMARK    5  A    between atoms: C11_15  and  C12_16 
REMARK    6  A    between atoms: C12_16  and  C14_18 
REMARK    7  A    between atoms: C16_23  and  C17_24 
ROOT
HETATM    1  C4  UNL     1      23.993   4.762  51.713  1.00  0.00     0.098 A 
HETATM    2  C5  UNL     1      23.185   4.261  52.742  1.00  0.00     0.001 A 
HETATM    3  C6  UNL     1      24.155   3.386  52.491  1.00  0.00     0.076 A 
HETATM    4  C7  UNL     1      25.244   2.765  51.973  1.00  0.00     0.125 A 
HETATM    5  C9  UNL     1      26.053   3.219  50.975  1.00  0.00     0.025 A 
HETATM    6  C10 UNL     1      25.075   4.133  51.200  1.00  0.00     0.121 A 
HETATM    7  N2  UNL     1      25.381   4.785  49.934  1.00  0.00    -0.258 N 
HETATM    8  N3  UNL     1      24.647   4.019  48.930  1.00  0.00     0.008 NA
HETATM    9  N4  UNL     1      23.820   3.263  49.140  1.00  0.00    -0.183 NA
HETATM   10  N5  UNL     1      22.886   2.402  49.285  1.00  0.00    -0.156 N 
HETATM   11  C16 UNL     1      22.039   2.115  48.267  1.00  0.00     0.051 A 
HETATM   12  C19 UNL     1      21.081   1.173  48.527  1.00  0.00     0.032 A 
HETATM   13  C20 UNL     1      21.324   0.812  49.854  1.00  0.00     0.053 A 
HETATM   14  C21 UNL     1      22.396   1.562  50.257  1.00  0.00     0.137 A 
HETATM   15  N6  UNL     1      23.014   1.580  51.496  1.00  0.00    -0.373 N 
HETATM   16  C22 UNL     1      23.392   2.084  52.842  1.00  0.00     0.143 C 
HETATM   17  H28 UNL     1      23.577   0.660  51.497  1.00  0.00     0.161 HD
ENDROOT
BRANCH   1  18
HETATM   18  N1  UNL     1      23.518   6.024  51.218  1.00  0.00    -0.341 N 
HETATM   19  C3  UNL     1      22.847   7.154  50.837  1.00  0.00     0.241 C 
HETATM   20  O1  UNL     1      21.611   7.087  51.165  1.00  0.00    -0.269 OA
HETATM   21  H4  UNL     1      24.516   6.125  50.846  1.00  0.00     0.164 HD
BRANCH  19  22
HETATM   22  C2  UNL     1      23.418   8.298  50.147  1.00  0.00     0.064 C 
HETATM   23  C1  UNL     1      23.531   8.389  48.847  1.00  0.00     0.017 C 
ENDBRANCH  19  22
ENDBRANCH   1  18
BRANCH   7  24
HETATM   24  C11 UNL     1      26.191   5.920  49.650  1.00  0.00     0.153 C 
BRANCH  24  25
HETATM   25  C12 UNL     1      26.887   5.955  48.324  1.00  0.00     0.001 C 
HETATM   26  C13 UNL     1      28.123   5.041  48.510  1.00  0.00     0.011 C 
BRANCH  25  27
HETATM   27  C14 UNL     1      27.527   7.336  48.083  1.00  0.00     0.001 C 
HETATM   28  C15 UNL     1      27.206   8.229  49.261  1.00  0.00     0.005 C 
ENDBRANCH  25  27
ENDBRANCH  24  25
ENDBRANCH   7  24
BRANCH   4  29
HETATM   29  O2  UNL     1      25.700   1.564  52.412  1.00  0.00    -0.377 OA
HETATM   30  C8  UNL     1      26.699   0.729  51.960  1.00  0.00     0.203 C 
ENDBRANCH   4  29
BRANCH  11  31
HETATM   31  C17 UNL     1      22.072   2.759  46.901  1.00  0.00     0.056 C 
HETATM   32  C18 UNL     1      21.085   3.861  46.779  1.00  0.00     0.011 C 
ENDBRANCH  11  31
TORSDOF 7
ENDMDL
MODEL 4
REMARK VINA RESULT:      -7.0      7.532     11.725
REMARK  7 active torsions:
REMARK  status: ('A' for Active; 'I' for Inactive)
REMARK    1  A    between atoms: C2_2  and  C3_3 
REMARK       I    between atoms: C3_3  and  N1_5 
REMARK    2  A    between atoms: N1_5  and  C4_6 
REMARK    3  A    between atoms: C7_9  and  O2_10 
REMARK    4  A    between atoms: N2_14  and  C11_15 
REMARK    5  A    between atoms: C11_15  and  C12_16 
REMARK    6  A    between atoms: C12_16  and  C14_18 
REMARK    7  A    between atoms: C16_23  and  C17_24 
ROOT
HETATM    1  C4  UNL     1      32.106   7.448  48.627  1.00  0.00     0.098 A 
HETATM    2  C5  UNL     1      31.602   8.659  49.119  1.00  0.00     0.001 A 
HETATM    3  C6  UNL     1      30.583   7.872  48.787  1.00  0.00     0.076 A 
HETATM    4  C7  UNL     1      29.835   6.826  48.355  1.00  0.00     0.125 A 
HETATM    5  C9  UNL     1      30.287   5.634  47.871  1.00  0.00     0.025 A 
HETATM    6  C10 UNL     1      31.352   6.413  48.195  1.00  0.00     0.121 A 
HETATM    7  N2  UNL     1      32.232   5.539  47.430  1.00  0.00    -0.258 N 
HETATM    8  N3  UNL     1      32.115   6.004  46.051  1.00  0.00     0.008 NA
HETATM    9  N4  UNL     1      31.653   6.990  45.714  1.00  0.00    -0.183 NA
HETATM   10  N5  UNL     1      31.153   8.073  45.252  1.00  0.00    -0.156 N 
HETATM   11  C16 UNL     1      31.504   8.534  44.027  1.00  0.00     0.051 A 
HETATM   12  C19 UNL     1      30.903   9.697  43.626  1.00  0.00     0.032 A 
HETATM   13  C20 UNL     1      30.079  10.031  44.703  1.00  0.00     0.053 A 
HETATM   14  C21 UNL     1      30.260   9.045  45.635  1.00  0.00     0.137 A 
HETATM   15  N6  UNL     1      29.677   8.928  46.885  1.00  0.00    -0.373 N 
HETATM   16  C22 UNL     1      29.569   8.965  48.367  1.00  0.00     0.143 C 
HETATM   17  H28 UNL     1      28.672   8.611  46.652  1.00  0.00     0.161 HD
ENDROOT
BRANCH   1  18
HETATM   18  N1  UNL     1      33.542   7.435  48.589  1.00  0.00    -0.341 N 
HETATM   19  C3  UNL     1      34.888   7.660  48.488  1.00  0.00     0.241 C 
HETATM   20  O1  UNL     1      35.127   8.865  48.128  1.00  0.00    -0.269 OA
HETATM   21  H4  UNL     1      33.426   6.396  48.820  1.00  0.00     0.164 HD
BRANCH  19  22
HETATM   22  C2  UNL     1      35.940   6.690  48.740  1.00  0.00     0.064 C 
HETATM   23  C1  UNL     1      35.805   5.646  49.517  1.00  0.00     0.017 C 
ENDBRANCH  19  22
ENDBRANCH   1  18
BRANCH   7  24
HETATM   24  C11 UNL     1      33.061   4.462  47.852  1.00  0.00     0.153 C 
BRANCH  24  25
HETATM   25  C12 UNL     1      33.328   3.371  46.861  1.00  0.00     0.001 C 
HETATM   26  C13 UNL     1      33.045   2.062  47.639  1.00  0.00     0.011 C 
BRANCH  25  27
HETATM   27  C14 UNL     1      34.838   3.263  46.568  1.00  0.00     0.001 C 
HETATM   28  C15 UNL     1      35.121   3.933  45.242  1.00  0.00     0.005 C 
ENDBRANCH  25  27
ENDBRANCH  24  25
ENDBRANCH   7  24
BRANCH   4  29
HETATM   29  O2  UNL     1      28.478   6.823  48.363  1.00  0.00    -0.377 OA
HETATM   30  C8  UNL     1      27.552   5.810  48.488  1.00  0.00     0.203 C 
ENDBRANCH   4  29
BRANCH  11  31
HETATM   31  C17 UNL     1      32.500   7.874  43.103  1.00  0.00     0.056 C 
HETATM   32  C18 UNL     1      33.868   8.427  43.270  1.00  0.00     0.011 C 
ENDBRANCH  11  31
TORSDOF 7
ENDMDL
MODEL 5
REMARK VINA RESULT:      -6.8      7.240     11.560
REMARK  7 active torsions:
REMARK  status: ('A' for Active; 'I' for Inactive)
REMARK    1  A    between atoms: C2_2  and  C3_3 
REMARK       I    between atoms: C3_3  and  N1_5 
REMARK    2  A    between atoms: N1_5  and  C4_6 
REMARK    3  A    between atoms: C7_9  and  O2_10 
REMARK    4  A    between atoms: N2_14  and  C11_15 
REMARK    5  A    between atoms: C11_15  and  C12_16 
REMARK    6  A    between atoms: C12_16  and  C14_18 
REMARK    7  A    between atoms: C16_23  and  C17_24 
ROOT
HETATM    1  C4  UNL     1      31.740   5.708  48.085  1.00  0.00     0.098 A 
HETATM    2  C5  UNL     1      32.123   4.401  47.754  1.00  0.00     0.001 A 
HETATM    3  C6  UNL     1      33.215   5.125  47.983  1.00  0.00     0.076 A 
HETATM    4  C7  UNL     1      34.062   6.141  48.284  1.00  0.00     0.125 A 
HETATM    5  C9  UNL     1      33.729   7.422  48.610  1.00  0.00     0.025 A 
HETATM    6  C10 UNL     1      32.592   6.715  48.379  1.00  0.00     0.121 A 
HETATM    7  N2  UNL     1      31.832   7.954  48.281  1.00  0.00    -0.258 N 
HETATM    8  N3  UNL     1      32.019   8.400  46.903  1.00  0.00     0.008 NA
HETATM    9  N4  UNL     1      32.436   7.773  46.048  1.00  0.00    -0.183 NA
HETATM   10  N5  UNL     1      32.894   7.141  45.035  1.00  0.00    -0.156 N 
HETATM   11  C16 UNL     1      32.604   7.544  43.774  1.00  0.00     0.051 A 
HETATM   12  C19 UNL     1      33.152   6.801  42.763  1.00  0.00     0.032 A 
HETATM   13  C20 UNL     1      33.870   5.809  43.434  1.00  0.00     0.053 A 
HETATM   14  C21 UNL     1      33.688   6.051  44.769  1.00  0.00     0.137 A 
HETATM   15  N6  UNL     1      34.185   5.337  45.846  1.00  0.00    -0.373 N 
HETATM   16  C22 UNL     1      34.180   4.409  47.006  1.00  0.00     0.143 C 
HETATM   17  H28 UNL     1      35.223   5.630  45.869  1.00  0.00     0.161 HD
ENDROOT
BRANCH   1  18
HETATM   18  N1  UNL     1      30.315   5.882  48.037  1.00  0.00    -0.341 N 
HETATM   19  C3  UNL     1      28.949   5.818  48.080  1.00  0.00     0.241 C 
HETATM   20  O1  UNL     1      28.555   4.676  48.505  1.00  0.00    -0.269 OA
HETATM   21  H4  UNL     1      30.559   6.831  47.606  1.00  0.00     0.164 HD
BRANCH  19  22
HETATM   22  C2  UNL     1      28.029   6.876  47.699  1.00  0.00     0.064 C 
HETATM   23  C1  UNL     1      26.786   6.947  48.100  1.00  0.00     0.017 C 
ENDBRANCH  19  22
ENDBRANCH   1  18
BRANCH   7  24
HETATM   24  C11 UNL     1      31.050   8.638  49.254  1.00  0.00     0.153 C 
BRANCH  24  25
HETATM   25  C12 UNL     1      30.091   9.677  48.757  1.00  0.00     0.001 C 
HETATM   26  C13 UNL     1      30.748  11.026  49.143  1.00  0.00     0.011 C 
BRANCH  25  27
HETATM   27  C14 UNL     1      28.805   9.678  49.607  1.00  0.00     0.001 C 
HETATM   28  C15 UNL     1      27.794  10.591  48.951  1.00  0.00     0.005 C 
ENDBRANCH  25  27
ENDBRANCH  24  25
ENDBRANCH   7  24
BRANCH   4  29
HETATM   29  O2  UNL     1      35.412   6.004  48.316  1.00  0.00    -0.377 OA
HETATM   30  C8  UNL     1      36.353   6.307  49.276  1.00  0.00     0.203 C 
ENDBRANCH   4  29
BRANCH  11  31
HETATM   31  C17 UNL     1      31.726   8.720  43.418  1.00  0.00     0.056 C 
HETATM   32  C18 UNL     1      32.520   9.936  43.109  1.00  0.00     0.011 C 
ENDBRANCH  11  31
TORSDOF 7
ENDMDL
MODEL 6
REMARK VINA RESULT:      -6.5      2.523      3.264
REMARK  7 active torsions:
REMARK  status: ('A' for Active; 'I' for Inactive)
REMARK    1  A    between atoms: C2_2  and  C3_3 
REMARK       I    between atoms: C3_3  and  N1_5 
REMARK    2  A    between atoms: N1_5  and  C4_6 
REMARK    3  A    between atoms: C7_9  and  O2_10 
REMARK    4  A    between atoms: N2_14  and  C11_15 
REMARK    5  A    between atoms: C11_15  and  C12_16 
REMARK    6  A    between atoms: C12_16  and  C14_18 
REMARK    7  A    between atoms: C16_23  and  C17_24 
ROOT
HETATM    1  C4  UNL     1      22.531   3.421  49.296  1.00  0.00     0.098 A 
HETATM    2  C5  UNL     1      22.195   2.561  48.241  1.00  0.00     0.001 A 
HETATM    3  C6  UNL     1      21.169   3.373  48.479  1.00  0.00     0.076 A 
HETATM    4  C7  UNL     1      20.367   4.339  48.992  1.00  0.00     0.125 A 
HETATM    5  C9  UNL     1      20.657   5.193  50.014  1.00  0.00     0.025 A 
HETATM    6  C10 UNL     1      21.723   4.378  49.803  1.00  0.00     0.121 A 
HETATM    7  N2  UNL     1      22.282   4.762  51.093  1.00  0.00    -0.258 N 
HETATM    8  N3  UNL     1      21.617   3.898  52.063  1.00  0.00     0.008 NA
HETATM    9  N4  UNL     1      21.011   2.963  51.821  1.00  0.00    -0.183 NA
HETATM   10  N5  UNL     1      20.316   1.905  51.638  1.00  0.00    -0.156 N 
HETATM   11  C16 UNL     1      20.142   1.006  52.636  1.00  0.00     0.051 A 
HETATM   12  C19 UNL     1      19.373  -0.087  52.335  1.00  0.00     0.032 A 
HETATM   13  C20 UNL     1      19.014   0.119  51.001  1.00  0.00     0.053 A 
HETATM   14  C21 UNL     1      19.592   1.305  50.635  1.00  0.00     0.137 A 
HETATM   15  N6  UNL     1      19.544   1.939  49.405  1.00  0.00    -0.373 N 
HETATM   16  C22 UNL     1      20.017   2.417  48.080  1.00  0.00     0.143 C 
HETATM   17  H28 UNL     1      18.545   2.347  49.385  1.00  0.00     0.161 HD
ENDROOT
BRANCH   1  18
HETATM   18  N1  UNL     1      23.839   3.146  49.821  1.00  0.00    -0.341 N 
HETATM   19  C3  UNL     1      24.964   2.761  50.499  1.00  0.00     0.241 C 
HETATM   20  O1  UNL     1      24.663   2.081  51.541  1.00  0.00    -0.269 OA
HETATM   21  H4  UNL     1      24.170   3.765  49.014  1.00  0.00     0.164 HD
BRANCH  19  22
HETATM   22  C2  UNL     1      26.335   3.066  50.126  1.00  0.00     0.064 C 
HETATM   23  C1  UNL     1      26.673   3.991  49.266  1.00  0.00     0.017 C 
ENDBRANCH  19  22
ENDBRANCH   1  18
BRANCH   7  24
HETATM   24  C11 UNL     1      23.264   5.740  51.420  1.00  0.00     0.153 C 
BRANCH  24  25
HETATM   25  C12 UNL     1      23.737   6.635  50.316  1.00  0.00     0.001 C 
HETATM   26  C13 UNL     1      25.191   6.997  50.706  1.00  0.00     0.011 C 
BRANCH  25  27
HETATM   27  C14 UNL     1      23.025   8.001  50.384  1.00  0.00     0.001 C 
HETATM   28  C15 UNL     1      23.237   8.722  49.072  1.00  0.00     0.005 C 
ENDBRANCH  25  27
ENDBRANCH  24  25
ENDBRANCH   7  24
BRANCH   4  29
HETATM   29  O2  UNL     1      19.120   4.603  48.524  1.00  0.00    -0.377 OA
HETATM   30  C8  UNL     1      18.449   5.783  48.285  1.00  0.00     0.203 C 
ENDBRANCH   4  29
BRANCH  11  31
HETATM   31  C17 UNL     1      20.735   1.118  54.021  1.00  0.00     0.056 C 
HETATM   32  C18 UNL     1      21.226  -0.189  54.525  1.00  0.00     0.011 C 
ENDBRANCH  11  31
TORSDOF 7
ENDMDL
MODEL 7
REMARK VINA RESULT:      -6.3      6.555     10.838
REMARK  7 active torsions:
REMARK  status: ('A' for Active; 'I' for Inactive)
REMARK    1  A    between atoms: C2_2  and  C3_3 
REMARK       I    between atoms: C3_3  and  N1_5 
REMARK    2  A    between atoms: N1_5  and  C4_6 
REMARK    3  A    between atoms: C7_9  and  O2_10 
REMARK    4  A    between atoms: N2_14  and  C11_15 
REMARK    5  A    between atoms: C11_15  and  C12_16 
REMARK    6  A    between atoms: C12_16  and  C14_18 
REMARK    7  A    between atoms: C16_23  and  C17_24 
ROOT
HETATM    1  C4  UNL     1      30.024   8.525  48.902  1.00  0.00     0.098 A 
HETATM    2  C5  UNL     1      30.926   9.259  49.684  1.00  0.00     0.001 A 
HETATM    3  C6  UNL     1      29.913  10.049  49.340  1.00  0.00     0.076 A 
HETATM    4  C7  UNL     1      28.759  10.528  48.813  1.00  0.00     0.125 A 
HETATM    5  C9  UNL     1      27.857   9.848  48.049  1.00  0.00     0.025 A 
HETATM    6  C10 UNL     1      28.878   9.013  48.377  1.00  0.00     0.121 A 
HETATM    7  N2  UNL     1      28.452   8.076  47.347  1.00  0.00    -0.258 N 
HETATM    8  N3  UNL     1      29.052   8.576  46.113  1.00  0.00     0.008 NA
HETATM    9  N4  UNL     1      29.879   9.358  46.041  1.00  0.00    -0.183 NA
HETATM   10  N5  UNL     1      30.801  10.227  45.870  1.00  0.00    -0.156 N 
HETATM   11  C16 UNL     1      31.524  10.257  44.725  1.00  0.00     0.051 A 
HETATM   12  C19 UNL     1      32.481  11.234  44.643  1.00  0.00     0.032 A 
HETATM   13  C20 UNL     1      32.375  11.905  45.863  1.00  0.00     0.053 A 
HETATM   14  C21 UNL     1      31.372  11.276  46.551  1.00  0.00     0.137 A 
HETATM   15  N6  UNL     1      30.893  11.558  47.819  1.00  0.00    -0.373 N 
HETATM   16  C22 UNL     1      30.676  11.395  49.280  1.00  0.00     0.143 C 
HETATM   17  H28 UNL     1      30.311  12.453  47.661  1.00  0.00     0.161 HD
ENDROOT
BRANCH   1  18
HETATM   18  N1  UNL     1      30.474   7.180  48.675  1.00  0.00    -0.341 N 
HETATM   19  C3  UNL     1      30.980   5.909  48.693  1.00  0.00     0.241 C 
HETATM   20  O1  UNL     1      31.498   5.637  49.832  1.00  0.00    -0.269 OA
HETATM   21  H4  UNL     1      30.130   7.355  47.676  1.00  0.00     0.164 HD
BRANCH  19  22
HETATM   22  C2  UNL     1      30.960   4.963  47.590  1.00  0.00     0.064 C 
HETATM   23  C1  UNL     1      31.935   4.136  47.314  1.00  0.00     0.017 C 
ENDBRANCH  19  22
ENDBRANCH   1  18
BRANCH   7  24
HETATM   24  C11 UNL     1      27.644   6.907  47.437  1.00  0.00     0.153 C 
BRANCH  24  25
HETATM   25  C12 UNL     1      27.211   6.474  48.804  1.00  0.00     0.001 C 
HETATM   26  C13 UNL     1      27.317   4.929  48.774  1.00  0.00     0.011 C 
BRANCH  25  27
HETATM   27  C14 UNL     1      25.698   6.700  48.990  1.00  0.00     0.001 C 
HETATM   28  C15 UNL     1      25.461   7.269  50.371  1.00  0.00     0.005 C 
ENDBRANCH  25  27
ENDBRANCH  24  25
ENDBRANCH   7  24
BRANCH   4  29
HETATM   29  O2  UNL     1      28.323  11.800  48.998  1.00  0.00    -0.377 OA
HETATM   30  C8  UNL     1      27.399  12.572  48.328  1.00  0.00     0.203 C 
ENDBRANCH   4  29
BRANCH  11  31
HETATM   31  C17 UNL     1      31.359   9.303  43.566  1.00  0.00     0.056 C 
HETATM   32  C18 UNL     1      32.551   9.288  42.681  1.00  0.00     0.011 C 
ENDBRANCH  11  31
TORSDOF 7
ENDMDL
MODEL 8
REMARK VINA RESULT:      -6.3      2.949      5.978
REMARK  7 active torsions:
REMARK  status: ('A' for Active; 'I' for Inactive)
REMARK    1  A    between atoms: C2_2  and  C3_3 
REMARK       I    between atoms: C3_3  and  N1_5 
REMARK    2  A    between atoms: N1_5  and  C4_6 
REMARK    3  A    between atoms: C7_9  and  O2_10 
REMARK    4  A    between atoms: N2_14  and  C11_15 
REMARK    5  A    between atoms: C11_15  and  C12_16 
REMARK    6  A    between atoms: C12_16  and  C14_18 
REMARK    7  A    between atoms: C16_23  and  C17_24 
ROOT
HETATM    1  C4  UNL     1      20.809   3.516  51.257  1.00  0.00     0.098 A 
HETATM    2  C5  UNL     1      19.502   3.976  51.468  1.00  0.00     0.001 A 
HETATM    3  C6  UNL     1      19.467   2.666  51.239  1.00  0.00     0.076 A 
HETATM    4  C7  UNL     1      19.817   1.381  50.981  1.00  0.00     0.125 A 
HETATM    5  C9  UNL     1      21.073   0.896  50.770  1.00  0.00     0.025 A 
HETATM    6  C10 UNL     1      21.147   2.234  50.995  1.00  0.00     0.121 A 
HETATM    7  N2  UNL     1      22.507   2.254  50.472  1.00  0.00    -0.258 N 
HETATM    8  N3  UNL     1      22.350   2.350  49.024  1.00  0.00     0.008 NA
HETATM    9  N4  UNL     1      21.390   2.621  48.472  1.00  0.00    -0.183 NA
HETATM   10  N5  UNL     1      20.359   2.915  47.775  1.00  0.00    -0.156 N 
HETATM   11  C16 UNL     1      20.484   3.373  46.506  1.00  0.00     0.051 A 
HETATM   12  C19 UNL     1      19.315   3.649  45.847  1.00  0.00     0.032 A 
HETATM   13  C20 UNL     1      18.327   3.345  46.786  1.00  0.00     0.053 A 
HETATM   14  C21 UNL     1      18.990   2.917  47.904  1.00  0.00     0.137 A 
HETATM   15  N6  UNL     1      18.456   2.512  49.116  1.00  0.00    -0.373 N 
HETATM   16  C22 UNL     1      18.081   2.586  50.552  1.00  0.00     0.143 C 
HETATM   17  H28 UNL     1      18.069   1.530  48.891  1.00  0.00     0.161 HD
ENDROOT
BRANCH   1  18
HETATM   18  N1  UNL     1      21.772   4.582  51.307  1.00  0.00    -0.341 N 
HETATM   19  C3  UNL     1      22.492   5.744  51.330  1.00  0.00     0.241 C 
HETATM   20  O1  UNL     1      21.728   6.762  51.192  1.00  0.00    -0.269 OA
HETATM   21  H4  UNL     1      22.483   3.784  51.353  1.00  0.00     0.164 HD
BRANCH  19  22
HETATM   22  C2  UNL     1      23.933   5.856  51.480  1.00  0.00     0.064 C 
HETATM   23  C1  UNL     1      24.782   5.790  50.488  1.00  0.00     0.017 C 
ENDBRANCH  19  22
ENDBRANCH   1  18
BRANCH   7  24
HETATM   24  C11 UNL     1      23.759   2.207  51.148  1.00  0.00     0.153 C 
BRANCH  24  25
HETATM   25  C12 UNL     1      23.745   1.809  52.592  1.00  0.00     0.001 C 
HETATM   26  C13 UNL     1      24.780   2.746  53.262  1.00  0.00     0.011 C 
BRANCH  25  27
HETATM   27  C14 UNL     1      24.385   0.419  52.778  1.00  0.00     0.001 C 
HETATM   28  C15 UNL     1      25.795   0.460  52.233  1.00  0.00     0.005 C 
ENDBRANCH  25  27
ENDBRANCH  24  25
ENDBRANCH   7  24
BRANCH   4  29
HETATM   29  O2  UNL     1      18.923   0.362  50.909  1.00  0.00    -0.377 OA
HETATM   30  C8  UNL     1      18.430  -0.509  51.857  1.00  0.00     0.203 C 
ENDBRANCH   4  29
BRANCH  11  31
HETATM   31  C17 UNL     1      21.794   3.606  45.791  1.00  0.00     0.056 C 
HETATM   32  C18 UNL     1      21.941   5.013  45.341  1.00  0.00     0.011 C 
ENDBRANCH  11  31
TORSDOF 7
ENDMDL
MODEL 9
REMARK VINA RESULT:      -6.3      2.460      5.169
REMARK  7 active torsions:
REMARK  status: ('A' for Active; 'I' for Inactive)
REMARK    1  A    between atoms: C2_2  and  C3_3 
REMARK       I    between atoms: C3_3  and  N1_5 
REMARK    2  A    between atoms: N1_5  and  C4_6 
REMARK    3  A    between atoms: C7_9  and  O2_10 
REMARK    4  A    between atoms: N2_14  and  C11_15 
REMARK    5  A    between atoms: C11_15  and  C12_16 
REMARK    6  A    between atoms: C12_16  and  C14_18 
REMARK    7  A    between atoms: C16_23  and  C17_24 
ROOT
HETATM    1  C4  UNL     1      22.560   4.619  50.869  1.00  0.00     0.098 A 
HETATM    2  C5  UNL     1      22.881   4.900  52.204  1.00  0.00     0.001 A 
HETATM    3  C6  UNL     1      23.721   3.978  51.744  1.00  0.00     0.076 A 
HETATM    4  C7  UNL     1      24.368   3.089  50.951  1.00  0.00     0.125 A 
HETATM    5  C9  UNL     1      24.087   2.788  49.651  1.00  0.00     0.025 A 
HETATM    6  C10 UNL     1      23.208   3.727  50.088  1.00  0.00     0.121 A 
HETATM    7  N2  UNL     1      22.345   3.463  48.944  1.00  0.00    -0.258 N 
HETATM    8  N3  UNL     1      21.544   2.308  49.338  1.00  0.00     0.008 NA
HETATM    9  N4  UNL     1      21.440   1.896  50.396  1.00  0.00    -0.183 NA
HETATM   10  N5  UNL     1      21.268   1.370  51.549  1.00  0.00    -0.156 N 
HETATM   11  C16 UNL     1      20.186   0.596  51.806  1.00  0.00     0.051 A 
HETATM   12  C19 UNL     1      20.105   0.076  53.071  1.00  0.00     0.032 A 
HETATM   13  C20 UNL     1      21.249   0.566  53.704  1.00  0.00     0.053 A 
HETATM   14  C21 UNL     1      21.902   1.322  52.768  1.00  0.00     0.137 A 
HETATM   15  N6  UNL     1      23.082   2.032  52.909  1.00  0.00    -0.373 N 
HETATM   16  C22 UNL     1      23.973   3.211  53.067  1.00  0.00     0.143 C 
HETATM   17  H28 UNL     1      23.831   1.255  52.898  1.00  0.00     0.161 HD
ENDROOT
BRANCH   1  18
HETATM   18  N1  UNL     1      21.417   5.364  50.420  1.00  0.00    -0.341 N 
HETATM   19  C3  UNL     1      20.198   5.880  50.072  1.00  0.00     0.241 C 
HETATM   20  O1  UNL     1      19.255   5.065  50.361  1.00  0.00    -0.269 OA
HETATM   21  H4  UNL     1      22.150   6.067  50.081  1.00  0.00     0.164 HD
BRANCH  19  22
HETATM   22  C2  UNL     1      19.961   7.172  49.451  1.00  0.00     0.064 C 
HETATM   23  C1  UNL     1      20.713   7.685  48.512  1.00  0.00     0.017 C 
ENDBRANCH  19  22
ENDBRANCH   1  18
BRANCH   7  24
HETATM   24  C11 UNL     1      22.236   4.134  47.694  1.00  0.00     0.153 C 
BRANCH  24  25
HETATM   25  C12 UNL     1      21.266   3.576  46.697  1.00  0.00     0.001 C 
HETATM   26  C13 UNL     1      21.874   3.941  45.319  1.00  0.00     0.011 C 
BRANCH  25  27
HETATM   27  C14 UNL     1      19.954   4.385  46.706  1.00  0.00     0.001 C 
HETATM   28  C15 UNL     1      18.842   3.494  47.212  1.00  0.00     0.005 C 
ENDBRANCH  25  27
ENDBRANCH  24  25
ENDBRANCH   7  24
BRANCH   4  29
HETATM   29  O2  UNL     1      25.438   2.360  51.361  1.00  0.00    -0.377 OA
HETATM   30  C8  UNL     1      26.794   2.513  51.169  1.00  0.00     0.203 C 
ENDBRANCH   4  29
BRANCH  11  31
HETATM   31  C17 UNL     1      19.084   0.287  50.821  1.00  0.00     0.056 C 
HETATM   32  C18 UNL     1      17.903  -0.326  51.480  1.00  0.00     0.011 C 
ENDBRANCH  11  31
TORSDOF 7
ENDMDL
