MODEL 1
REMARK VINA RESULT:      -7.1      0.000      0.000
REMARK  5 active torsions:
REMARK  status: ('A' for Active; 'I' for Inactive)
REMARK    1  A    between atoms: O1_2  and  C2_3 
REMARK    2  A    between atoms: C5_6  and  N1_7 
REMARK    3  A    between atoms: N1_7  and  C6_8 
REMARK    4  A    between atoms: N2_9  and  C7_10 
REMARK    5  A    between atoms: C14_18  and  O2_19 
ROOT
HETATM    1  N1  UNL     1      26.456   2.018  50.781  1.00  0.00    -0.351 N 
HETATM    2  H6  UNL     1      26.976   1.433  50.051  1.00  0.00     0.166 HD
ENDROOT
BRANCH   1   3
HETATM    3  C5  UNL     1      26.031   1.217  51.867  1.00  0.00     0.035 A 
HETATM    4  C4  UNL     1      24.693   1.066  52.166  1.00  0.00     0.032 A 
HETATM    5  C3  UNL     1      24.418   0.272  53.284  1.00  0.00     0.042 A 
HETATM    6  C2  UNL     1      25.413  -0.315  54.032  1.00  0.00     0.101 A 
HETATM    7  C14 UNL     1      26.755  -0.124  53.680  1.00  0.00     0.103 A 
HETATM    8  C13 UNL     1      27.068   0.645  52.593  1.00  0.00     0.069 A 
BRANCH   6   9
HETATM    9  O1  UNL     1      25.149  -1.099  55.135  1.00  0.00    -0.353 OA
HETATM   10  C1  UNL     1      23.880  -1.387  55.663  1.00  0.00     0.210 C 
ENDBRANCH   6   9
BRANCH   7  11
HETATM   11  O2  UNL     1      27.716  -0.758  54.499  1.00  0.00    -0.353 OA
HETATM   12  C15 UNL     1      28.983  -0.072  54.494  1.00  0.00     0.210 C 
ENDBRANCH   7  11
ENDBRANCH   1   3
BRANCH   1  13
HETATM   13  C6  UNL     1      26.340   3.411  50.464  1.00  0.00     0.209 C 
HETATM   14  N2  UNL     1      27.077   3.647  49.396  1.00  0.00    -0.225 NA
BRANCH  14  15
HETATM   15  C7  UNL     1      27.023   5.035  48.997  1.00  0.00     0.146 A 
HETATM   16  N3  UNL     1      26.162   5.984  49.070  1.00  0.00    -0.257 NA
HETATM   17  C8  UNL     1      26.721   7.154  48.481  1.00  0.00     0.066 A 
HETATM   18  C9  UNL     1      25.849   7.675  47.374  1.00  0.00     0.045 C 
HETATM   19  C10 UNL     1      26.798   8.195  49.608  1.00  0.00     0.045 C 
HETATM   20  C11 UNL     1      28.056   6.755  48.036  1.00  0.00     0.009 A 
HETATM   21  C12 UNL     1      28.247   5.475  48.346  1.00  0.00     0.050 A 
ENDBRANCH  14  15
ENDBRANCH   1  13
TORSDOF 5
ENDMDL
MODEL 2
REMARK VINA RESULT:      -6.9      5.770      7.888
REMARK  5 active torsions:
REMARK  status: ('A' for Active; 'I' for Inactive)
REMARK    1  A    between atoms: O1_2  and  C2_3 
REMARK    2  A    between atoms: C5_6  and  N1_7 
REMARK    3  A    between atoms: N1_7  and  C6_8 
REMARK    4  A    between atoms: N2_9  and  C7_10 
REMARK    5  A    between atoms: C14_18  and  O2_19 
ROOT
HETATM    1  N1  UNL     1      22.578  -0.727  53.541  1.00  0.00    -0.351 N 
HETATM    2  H6  UNL     1      22.448  -1.254  54.463  1.00  0.00     0.166 HD
ENDROOT
BRANCH   1   3
HETATM    3  C5  UNL     1      21.330  -0.440  52.938  1.00  0.00     0.035 A 
HETATM    4  C4  UNL     1      21.247   0.305  51.780  1.00  0.00     0.032 A 
HETATM    5  C3  UNL     1      19.950   0.538  51.313  1.00  0.00     0.042 A 
HETATM    6  C2  UNL     1      18.837   0.059  51.964  1.00  0.00     0.101 A 
HETATM    7  C14 UNL     1      18.982  -0.691  53.137  1.00  0.00     0.103 A 
HETATM    8  C13 UNL     1      20.234  -0.944  53.628  1.00  0.00     0.069 A 
BRANCH   6   9
HETATM    9  O1  UNL     1      17.555   0.284  51.508  1.00  0.00    -0.353 OA
HETATM   10  C1  UNL     1      16.958  -0.308  50.383  1.00  0.00     0.210 C 
ENDBRANCH   6   9
BRANCH   7  11
HETATM   11  O2  UNL     1      17.791  -1.145  53.746  1.00  0.00    -0.353 OA
HETATM   12  C15 UNL     1      17.615  -2.569  53.617  1.00  0.00     0.210 C 
ENDBRANCH   7  11
ENDBRANCH   1   3
BRANCH   1  13
HETATM   13  C6  UNL     1      23.941  -0.464  53.184  1.00  0.00     0.209 C 
HETATM   14  N2  UNL     1      24.663  -0.498  54.287  1.00  0.00    -0.225 NA
BRANCH  14  15
HETATM   15  C7  UNL     1      26.061  -0.243  54.027  1.00  0.00     0.146 A 
HETATM   16  N3  UNL     1      27.170  -0.479  54.630  1.00  0.00    -0.257 NA
HETATM   17  C8  UNL     1      28.237   0.035  53.839  1.00  0.00     0.066 A 
HETATM   18  C9  UNL     1      29.070   1.012  54.618  1.00  0.00     0.045 C 
HETATM   19  C10 UNL     1      29.095  -1.180  53.454  1.00  0.00     0.045 C 
HETATM   20  C11 UNL     1      27.592   0.622  52.665  1.00  0.00     0.009 A 
HETATM   21  C12 UNL     1      26.276   0.457  52.770  1.00  0.00     0.050 A 
ENDBRANCH  14  15
ENDBRANCH   1  13
TORSDOF 5
ENDMDL
MODEL 3
REMARK VINA RESULT:      -6.8      5.613      7.427
REMARK  5 active torsions:
REMARK  status: ('A' for Active; 'I' for Inactive)
REMARK    1  A    between atoms: O1_2  and  C2_3 
REMARK    2  A    between atoms: C5_6  and  N1_7 
REMARK    3  A    between atoms: N1_7  and  C6_8 
REMARK    4  A    between atoms: N2_9  and  C7_10 
REMARK    5  A    between atoms: C14_18  and  O2_19 
ROOT
HETATM    1  N1  UNL     1      23.037  -0.851  53.890  1.00  0.00    -0.351 N 
HETATM    2  H6  UNL     1      23.007  -1.453  54.774  1.00  0.00     0.166 HD
ENDROOT
BRANCH   1   3
HETATM    3  C5  UNL     1      21.735  -0.609  53.392  1.00  0.00     0.035 A 
HETATM    4  C4  UNL     1      20.615  -0.982  54.106  1.00  0.00     0.032 A 
HETATM    5  C3  UNL     1      19.393  -0.710  53.482  1.00  0.00     0.042 A 
HETATM    6  C2  UNL     1      19.317  -0.113  52.244  1.00  0.00     0.101 A 
HETATM    7  C14 UNL     1      20.489   0.243  51.566  1.00  0.00     0.103 A 
HETATM    8  C13 UNL     1      21.706  -0.005  52.142  1.00  0.00     0.069 A 
BRANCH   6   9
HETATM    9  O1  UNL     1      18.116   0.158  51.623  1.00  0.00    -0.353 OA
HETATM   10  C1  UNL     1      16.844  -0.243  52.065  1.00  0.00     0.210 C 
ENDBRANCH   6   9
BRANCH   7  11
HETATM   11  O2  UNL     1      20.325   0.848  50.301  1.00  0.00    -0.353 OA
HETATM   12  C15 UNL     1      21.571   0.980  49.588  1.00  0.00     0.210 C 
ENDBRANCH   7  11
ENDBRANCH   1   3
BRANCH   1  13
HETATM   13  C6  UNL     1      24.353  -0.466  53.470  1.00  0.00     0.209 C 
HETATM   14  N2  UNL     1      25.163  -0.594  54.502  1.00  0.00    -0.225 NA
BRANCH  14  15
HETATM   15  C7  UNL     1      26.521  -0.227  54.173  1.00  0.00     0.146 A 
HETATM   16  N3  UNL     1      27.656  -0.256  54.773  1.00  0.00    -0.257 NA
HETATM   17  C8  UNL     1      28.650   0.257  53.892  1.00  0.00     0.066 A 
HETATM   18  C9  UNL     1      29.379   1.416  54.510  1.00  0.00     0.045 C 
HETATM   19  C10 UNL     1      29.633  -0.899  53.652  1.00  0.00     0.045 C 
HETATM   20  C11 UNL     1      27.931   0.604  52.667  1.00  0.00     0.009 A 
HETATM   21  C12 UNL     1      26.643   0.313  52.828  1.00  0.00     0.050 A 
ENDBRANCH  14  15
ENDBRANCH   1  13
TORSDOF 5
ENDMDL
MODEL 4
REMARK VINA RESULT:      -6.7      3.923      8.389
REMARK  5 active torsions:
REMARK  status: ('A' for Active; 'I' for Inactive)
REMARK    1  A    between atoms: O1_2  and  C2_3 
REMARK    2  A    between atoms: C5_6  and  N1_7 
REMARK    3  A    between atoms: N1_7  and  C6_8 
REMARK    4  A    between atoms: N2_9  and  C7_10 
REMARK    5  A    between atoms: C14_18  and  O2_19 
ROOT
HETATM    1  N1  UNL     1      26.068   3.791  49.407  1.00  0.00    -0.351 N 
HETATM    2  H6  UNL     1      25.033   3.855  49.141  1.00  0.00     0.166 HD
ENDROOT
BRANCH   1   3
HETATM    3  C5  UNL     1      26.780   4.929  48.960  1.00  0.00     0.035 A 
HETATM    4  C4  UNL     1      28.089   4.835  48.536  1.00  0.00     0.032 A 
HETATM    5  C3  UNL     1      28.679   6.043  48.151  1.00  0.00     0.042 A 
HETATM    6  C2  UNL     1      27.999   7.240  48.194  1.00  0.00     0.101 A 
HETATM    7  C14 UNL     1      26.671   7.273  48.635  1.00  0.00     0.103 A 
HETATM    8  C13 UNL     1      26.055   6.113  49.020  1.00  0.00     0.069 A 
BRANCH   6   9
HETATM    9  O1  UNL     1      28.575   8.434  47.816  1.00  0.00    -0.353 OA
HETATM   10  C1  UNL     1      29.515   9.173  48.553  1.00  0.00     0.210 C 
ENDBRANCH   6   9
BRANCH   7  11
HETATM   11  O2  UNL     1      26.045   8.540  48.651  1.00  0.00    -0.353 OA
HETATM   12  C15 UNL     1      25.935   9.082  49.982  1.00  0.00     0.210 C 
ENDBRANCH   7  11
ENDBRANCH   1   3
BRANCH   1  13
HETATM   13  C6  UNL     1      26.433   2.604  50.123  1.00  0.00     0.209 C 
HETATM   14  N2  UNL     1      26.816   2.962  51.333  1.00  0.00    -0.225 NA
BRANCH  14  15
HETATM   15  C7  UNL     1      27.206   1.826  52.136  1.00  0.00     0.146 A 
HETATM   16  N3  UNL     1      27.986   1.626  53.136  1.00  0.00    -0.257 NA
HETATM   17  C8  UNL     1      27.937   0.246  53.484  1.00  0.00     0.066 A 
HETATM   18  C9  UNL     1      29.306  -0.371  53.457  1.00  0.00     0.045 C 
HETATM   19  C10 UNL     1      27.379   0.195  54.915  1.00  0.00     0.045 C 
HETATM   20  C11 UNL     1      27.005  -0.354  52.530  1.00  0.00     0.009 A 
HETATM   21  C12 UNL     1      26.557   0.595  51.712  1.00  0.00     0.050 A 
ENDBRANCH  14  15
ENDBRANCH   1  13
TORSDOF 5
ENDMDL
MODEL 5
REMARK VINA RESULT:      -6.7      3.698      7.952
REMARK  5 active torsions:
REMARK  status: ('A' for Active; 'I' for Inactive)
REMARK    1  A    between atoms: O1_2  and  C2_3 
REMARK    2  A    between atoms: C5_6  and  N1_7 
REMARK    3  A    between atoms: N1_7  and  C6_8 
REMARK    4  A    between atoms: N2_9  and  C7_10 
REMARK    5  A    between atoms: C14_18  and  O2_19 
ROOT
HETATM    1  N1  UNL     1      25.641   3.496  49.587  1.00  0.00    -0.351 N 
HETATM    2  H6  UNL     1      25.147   3.158  48.700  1.00  0.00     0.166 HD
ENDROOT
BRANCH   1   3
HETATM    3  C5  UNL     1      26.086   4.832  49.443  1.00  0.00     0.035 A 
HETATM    4  C4  UNL     1      25.397   5.882  50.015  1.00  0.00     0.032 A 
HETATM    5  C3  UNL     1      25.931   7.150  49.767  1.00  0.00     0.042 A 
HETATM    6  C2  UNL     1      27.063   7.336  49.006  1.00  0.00     0.101 A 
HETATM    7  C14 UNL     1      27.720   6.231  48.451  1.00  0.00     0.103 A 
HETATM    8  C13 UNL     1      27.231   4.972  48.669  1.00  0.00     0.069 A 
BRANCH   6   9
HETATM    9  O1  UNL     1      27.595   8.583  48.759  1.00  0.00    -0.353 OA
HETATM   10  C1  UNL     1      28.261   9.400  49.688  1.00  0.00     0.210 C 
ENDBRANCH   6   9
BRANCH   7  11
HETATM   11  O2  UNL     1      28.872   6.506  47.682  1.00  0.00    -0.353 OA
HETATM   12  C15 UNL     1      29.985   5.661  48.036  1.00  0.00     0.210 C 
ENDBRANCH   7  11
ENDBRANCH   1   3
BRANCH   1  13
HETATM   13  C6  UNL     1      25.710   2.531  50.643  1.00  0.00     0.209 C 
HETATM   14  N2  UNL     1      26.933   2.554  51.136  1.00  0.00    -0.225 NA
BRANCH  14  15
HETATM   15  C7  UNL     1      27.101   1.608  52.215  1.00  0.00     0.146 A 
HETATM   16  N3  UNL     1      27.444   1.668  53.450  1.00  0.00    -0.257 NA
HETATM   17  C8  UNL     1      27.418   0.353  53.996  1.00  0.00     0.066 A 
HETATM   18  C9  UNL     1      28.748  -0.018  54.586  1.00  0.00     0.045 C 
HETATM   19  C10 UNL     1      26.353   0.380  55.103  1.00  0.00     0.045 C 
HETATM   20  C11 UNL     1      27.008  -0.510  52.888  1.00  0.00     0.009 A 
HETATM   21  C12 UNL     1      26.814   0.242  51.807  1.00  0.00     0.050 A 
ENDBRANCH  14  15
ENDBRANCH   1  13
TORSDOF 5
ENDMDL
MODEL 6
REMARK VINA RESULT:      -6.4      2.982      3.824
REMARK  5 active torsions:
REMARK  status: ('A' for Active; 'I' for Inactive)
REMARK    1  A    between atoms: O1_2  and  C2_3 
REMARK    2  A    between atoms: C5_6  and  N1_7 
REMARK    3  A    between atoms: N1_7  and  C6_8 
REMARK    4  A    between atoms: N2_9  and  C7_10 
REMARK    5  A    between atoms: C14_18  and  O2_19 
ROOT
HETATM    1  N1  UNL     1      23.764   1.762  53.004  1.00  0.00    -0.351 N 
HETATM    2  H6  UNL     1      22.975   1.519  53.684  1.00  0.00     0.166 HD
ENDROOT
BRANCH   1   3
HETATM    3  C5  UNL     1      24.918   0.985  53.264  1.00  0.00     0.035 A 
HETATM    4  C4  UNL     1      24.941  -0.371  53.013  1.00  0.00     0.032 A 
HETATM    5  C3  UNL     1      26.135  -1.019  53.346  1.00  0.00     0.042 A 
HETATM    6  C2  UNL     1      27.209  -0.349  53.886  1.00  0.00     0.101 A 
HETATM    7  C14 UNL     1      27.127   1.030  54.119  1.00  0.00     0.103 A 
HETATM    8  C13 UNL     1      25.977   1.702  53.807  1.00  0.00     0.069 A 
BRANCH   6   9
HETATM    9  O1  UNL     1      28.389  -0.981  54.216  1.00  0.00    -0.353 OA
HETATM   10  C1  UNL     1      29.414  -1.341  53.326  1.00  0.00     0.210 C 
ENDBRANCH   6   9
BRANCH   7  11
HETATM   11  O2  UNL     1      28.271   1.642  54.677  1.00  0.00    -0.353 OA
HETATM   12  C15 UNL     1      28.976   2.463  53.725  1.00  0.00     0.210 C 
ENDBRANCH   7  11
ENDBRANCH   1   3
BRANCH   1  13
HETATM   13  C6  UNL     1      23.441   2.776  52.043  1.00  0.00     0.209 C 
HETATM   14  N2  UNL     1      23.755   3.945  52.565  1.00  0.00    -0.225 NA
BRANCH  14  15
HETATM   15  C7  UNL     1      23.463   5.036  51.664  1.00  0.00     0.146 A 
HETATM   16  N3  UNL     1      24.135   5.762  50.846  1.00  0.00    -0.257 NA
HETATM   17  C8  UNL     1      23.251   6.696  50.234  1.00  0.00     0.066 A 
HETATM   18  C9  UNL     1      23.719   8.108  50.448  1.00  0.00     0.045 C 
HETATM   19  C10 UNL     1      23.271   6.370  48.733  1.00  0.00     0.045 C 
HETATM   20  C11 UNL     1      21.940   6.419  50.819  1.00  0.00     0.009 A 
HETATM   21  C12 UNL     1      22.059   5.415  51.684  1.00  0.00     0.050 A 
ENDBRANCH  14  15
ENDBRANCH   1  13
TORSDOF 5
ENDMDL
MODEL 7
REMARK VINA RESULT:      -6.4      1.605      2.795
REMARK  5 active torsions:
REMARK  status: ('A' for Active; 'I' for Inactive)
REMARK    1  A    between atoms: O1_2  and  C2_3 
REMARK    2  A    between atoms: C5_6  and  N1_7 
REMARK    3  A    between atoms: N1_7  and  C6_8 
REMARK    4  A    between atoms: N2_9  and  C7_10 
REMARK    5  A    between atoms: C14_18  and  O2_19 
ROOT
HETATM    1  N1  UNL     1      26.179   2.116  50.970  1.00  0.00    -0.351 N 
HETATM    2  H6  UNL     1      26.912   1.508  50.482  1.00  0.00     0.166 HD
ENDROOT
BRANCH   1   3
HETATM    3  C5  UNL     1      25.373   1.344  51.840  1.00  0.00     0.035 A 
HETATM    4  C4  UNL     1      25.933   0.485  52.763  1.00  0.00     0.032 A 
HETATM    5  C3  UNL     1      25.018  -0.237  53.535  1.00  0.00     0.042 A 
HETATM    6  C2  UNL     1      23.657  -0.100  53.383  1.00  0.00     0.101 A 
HETATM    7  C14 UNL     1      23.147   0.787  52.428  1.00  0.00     0.103 A 
HETATM    8  C13 UNL     1      24.007   1.515  51.651  1.00  0.00     0.069 A 
BRANCH   6   9
HETATM    9  O1  UNL     1      22.750  -0.809  54.141  1.00  0.00    -0.353 OA
HETATM   10  C1  UNL     1      23.010  -1.445  55.367  1.00  0.00     0.210 C 
ENDBRANCH   6   9
BRANCH   7  11
HETATM   11  O2  UNL     1      21.740   0.868  52.332  1.00  0.00    -0.353 OA
HETATM   12  C15 UNL     1      21.240   0.325  51.094  1.00  0.00     0.210 C 
ENDBRANCH   7  11
ENDBRANCH   1   3
BRANCH   1  13
HETATM   13  C6  UNL     1      26.220   3.505  50.618  1.00  0.00     0.209 C 
HETATM   14  N2  UNL     1      26.833   3.612  49.456  1.00  0.00    -0.225 NA
BRANCH  14  15
HETATM   15  C7  UNL     1      26.922   4.986  49.015  1.00  0.00     0.146 A 
HETATM   16  N3  UNL     1      26.142   6.005  49.006  1.00  0.00    -0.257 NA
HETATM   17  C8  UNL     1      26.835   7.104  48.422  1.00  0.00     0.066 A 
HETATM   18  C9  UNL     1      26.081   7.658  47.246  1.00  0.00     0.045 C 
HETATM   19  C10 UNL     1      26.929   8.172  49.521  1.00  0.00     0.045 C 
HETATM   20  C11 UNL     1      28.156   6.580  48.076  1.00  0.00     0.009 A 
HETATM   21  C12 UNL     1      28.218   5.300  48.433  1.00  0.00     0.050 A 
ENDBRANCH  14  15
ENDBRANCH   1  13
TORSDOF 5
ENDMDL
MODEL 8
REMARK VINA RESULT:      -6.3      2.035      3.047
REMARK  5 active torsions:
REMARK  status: ('A' for Active; 'I' for Inactive)
REMARK    1  A    between atoms: O1_2  and  C2_3 
REMARK    2  A    between atoms: C5_6  and  N1_7 
REMARK    3  A    between atoms: N1_7  and  C6_8 
REMARK    4  A    between atoms: N2_9  and  C7_10 
REMARK    5  A    between atoms: C14_18  and  O2_19 
ROOT
HETATM    1  N1  UNL     1      25.755   4.135  49.298  1.00  0.00    -0.351 N 
HETATM    2  H6  UNL     1      25.020   4.087  48.522  1.00  0.00     0.166 HD
ENDROOT
BRANCH   1   3
HETATM    3  C5  UNL     1      25.508   3.162  50.295  1.00  0.00     0.035 A 
HETATM    4  C4  UNL     1      24.227   2.734  50.577  1.00  0.00     0.032 A 
HETATM    5  C3  UNL     1      24.127   1.793  51.606  1.00  0.00     0.042 A 
HETATM    6  C2  UNL     1      25.229   1.329  52.289  1.00  0.00     0.101 A 
HETATM    7  C14 UNL     1      26.505   1.801  51.958  1.00  0.00     0.103 A 
HETATM    8  C13 UNL     1      26.648   2.722  50.956  1.00  0.00     0.069 A 
BRANCH   6   9
HETATM    9  O1  UNL     1      25.137   0.401  53.304  1.00  0.00    -0.353 OA
HETATM   10  C1  UNL     1      24.068  -0.484  53.525  1.00  0.00     0.210 C 
ENDBRANCH   6   9
BRANCH   7  11
HETATM   11  O2  UNL     1      27.583   1.277  52.706  1.00  0.00    -0.353 OA
HETATM   12  C15 UNL     1      28.275   2.293  53.459  1.00  0.00     0.210 C 
ENDBRANCH   7  11
ENDBRANCH   1   3
BRANCH   1  13
HETATM   13  C6  UNL     1      26.759   5.142  49.114  1.00  0.00     0.209 C 
HETATM   14  N2  UNL     1      27.819   4.566  48.583  1.00  0.00    -0.225 NA
BRANCH  14  15
HETATM   15  C7  UNL     1      28.892   5.508  48.358  1.00  0.00     0.146 A 
HETATM   16  N3  UNL     1      30.156   5.536  48.577  1.00  0.00    -0.257 NA
HETATM   17  C8  UNL     1      30.672   6.779  48.113  1.00  0.00     0.066 A 
HETATM   18  C9  UNL     1      31.386   7.516  49.210  1.00  0.00     0.045 C 
HETATM   19  C10 UNL     1      31.668   6.430  46.996  1.00  0.00     0.045 C 
HETATM   20  C11 UNL     1      29.513   7.498  47.583  1.00  0.00     0.009 A 
HETATM   21  C12 UNL     1      28.433   6.735  47.726  1.00  0.00     0.050 A 
ENDBRANCH  14  15
ENDBRANCH   1  13
TORSDOF 5
ENDMDL
MODEL 9
REMARK VINA RESULT:      -6.3      3.635      8.374
REMARK  5 active torsions:
REMARK  status: ('A' for Active; 'I' for Inactive)
REMARK    1  A    between atoms: O1_2  and  C2_3 
REMARK    2  A    between atoms: C5_6  and  N1_7 
REMARK    3  A    between atoms: N1_7  and  C6_8 
REMARK    4  A    between atoms: N2_9  and  C7_10 
REMARK    5  A    between atoms: C14_18  and  O2_19 
ROOT
HETATM    1  N1  UNL     1      26.108   4.211  49.390  1.00  0.00    -0.351 N 
HETATM    2  H6  UNL     1      25.061   4.318  49.196  1.00  0.00     0.166 HD
ENDROOT
BRANCH   1   3
HETATM    3  C5  UNL     1      26.846   5.263  48.797  1.00  0.00     0.035 A 
HETATM    4  C4  UNL     1      26.241   6.451  48.442  1.00  0.00     0.032 A 
HETATM    5  C3  UNL     1      27.082   7.391  47.839  1.00  0.00     0.042 A 
HETATM    6  C2  UNL     1      28.418   7.146  47.616  1.00  0.00     0.101 A 
HETATM    7  C14 UNL     1      28.977   5.921  47.999  1.00  0.00     0.103 A 
HETATM    8  C13 UNL     1      28.189   4.973  48.593  1.00  0.00     0.069 A 
BRANCH   6   9
HETATM    9  O1  UNL     1      29.253   8.069  47.023  1.00  0.00    -0.353 OA
HETATM   10  C1  UNL     1      29.167   8.538  45.702  1.00  0.00     0.210 C 
ENDBRANCH   6   9
BRANCH   7  11
HETATM   11  O2  UNL     1      30.353   5.747  47.734  1.00  0.00    -0.353 OA
HETATM   12  C15 UNL     1      31.162   5.872  48.921  1.00  0.00     0.210 C 
ENDBRANCH   7  11
ENDBRANCH   1   3
BRANCH   1  13
HETATM   13  C6  UNL     1      26.461   3.065  50.176  1.00  0.00     0.209 C 
HETATM   14  N2  UNL     1      25.445   2.790  50.970  1.00  0.00    -0.225 NA
BRANCH  14  15
HETATM   15  C7  UNL     1      25.708   1.641  51.807  1.00  0.00     0.146 A 
HETATM   16  N3  UNL     1      26.748   0.985  52.173  1.00  0.00    -0.257 NA
HETATM   17  C8  UNL     1      26.340  -0.076  53.031  1.00  0.00     0.066 A 
HETATM   18  C9  UNL     1      26.803  -1.407  52.508  1.00  0.00     0.045 C 
HETATM   19  C10 UNL     1      27.004   0.202  54.388  1.00  0.00     0.045 C 
HETATM   20  C11 UNL     1      24.885   0.044  53.118  1.00  0.00     0.009 A 
HETATM   21  C12 UNL     1      24.495   1.082  52.382  1.00  0.00     0.050 A 
ENDBRANCH  14  15
ENDBRANCH   1  13
TORSDOF 5
ENDMDL
