MODEL 1
REMARK VINA RESULT:      -9.2      0.000      0.000
REMARK  2 active torsions:
REMARK  status: ('A' for Active; 'I' for Inactive)
REMARK    1  A    between atoms: C7_7  and  N1_8 
REMARK    2  A    between atoms: N1_8  and  C8_9 
ROOT
HETATM    1  C8  UNL     1      24.897   0.804  52.817  1.00  0.00     0.157 A 
HETATM    2  N2  UNL     1      24.313  -0.066  53.690  1.00  0.00    -0.227 NA
HETATM    3  C9  UNL     1      23.024  -0.344  53.680  1.00  0.00     0.086 A 
HETATM    4  C10 UNL     1      22.490  -1.231  54.592  1.00  0.00     0.037 A 
HETATM    5  C11 UNL     1      21.137  -1.495  54.549  1.00  0.00     0.045 A 
HETATM    6  C12 UNL     1      20.332  -0.878  53.608  1.00  0.00     0.118 A 
HETATM    7  F1  UNL     1      19.017  -1.143  53.577  1.00  0.00    -0.206 F 
HETATM    8  C13 UNL     1      20.886   0.008  52.705  1.00  0.00     0.074 A 
HETATM    9  C14 UNL     1      22.238   0.276  52.741  1.00  0.00     0.072 A 
HETATM   10  N3  UNL     1      22.738   1.145  51.848  1.00  0.00    -0.299 N 
HETATM   11  C15 UNL     1      22.166   1.847  50.857  1.00  0.00     0.215 A 
HETATM   12  N4  UNL     1      23.156   2.564  50.262  1.00  0.00    -0.253 NA
HETATM   13  C16 UNL     1      24.304   2.273  50.913  1.00  0.00     0.151 A 
HETATM   14  C17 UNL     1      24.060   1.374  51.923  1.00  0.00     0.104 A 
ENDROOT
BRANCH   1  15
HETATM   15  N1  UNL     1      26.266   0.999  52.936  1.00  0.00    -0.339 N 
HETATM   16  H8  UNL     1      26.667   1.970  52.889  1.00  0.00     0.167 HD
BRANCH  15  17
HETATM   17  C7  UNL     1      27.457   0.280  53.116  1.00  0.00     0.039 A 
HETATM   18  C2  UNL     1      28.657   0.909  53.478  1.00  0.00    -0.035 A 
HETATM   19  C1  UNL     1      28.696   2.390  53.669  1.00  0.00     0.050 C 
HETATM   20  C3  UNL     1      29.845   0.238  53.677  1.00  0.00     0.009 A 
HETATM   21  C4  UNL     1      29.825  -1.116  53.505  1.00  0.00     0.001 A 
HETATM   22  C5  UNL     1      28.731  -1.840  53.157  1.00  0.00     0.002 A 
HETATM   23  C6  UNL     1      27.584  -1.107  52.976  1.00  0.00     0.030 A 
ENDBRANCH  15  17
ENDBRANCH   1  15
TORSDOF 2
ENDMDL
MODEL 2
REMARK VINA RESULT:      -9.1      1.185      2.856
REMARK  2 active torsions:
REMARK  status: ('A' for Active; 'I' for Inactive)
REMARK    1  A    between atoms: C7_7  and  N1_8 
REMARK    2  A    between atoms: N1_8  and  C8_9 
ROOT
HETATM    1  C8  UNL     1      24.750   0.470  53.082  1.00  0.00     0.157 A 
HETATM    2  N2  UNL     1      24.076   0.987  52.016  1.00  0.00    -0.227 NA
HETATM    3  C9  UNL     1      22.787   0.793  51.811  1.00  0.00     0.086 A 
HETATM    4  C10 UNL     1      22.161   1.341  50.711  1.00  0.00     0.037 A 
HETATM    5  C11 UNL     1      20.812   1.114  50.532  1.00  0.00     0.045 A 
HETATM    6  C12 UNL     1      20.103   0.349  51.441  1.00  0.00     0.118 A 
HETATM    7  F1  UNL     1      18.792   0.136  51.256  1.00  0.00    -0.206 F 
HETATM    8  C13 UNL     1      20.749  -0.192  52.535  1.00  0.00     0.074 A 
HETATM    9  C14 UNL     1      22.098   0.032  52.721  1.00  0.00     0.072 A 
HETATM   10  N3  UNL     1      22.690  -0.513  53.796  1.00  0.00    -0.299 N 
HETATM   11  C15 UNL     1      22.216  -1.272  54.798  1.00  0.00     0.215 A 
HETATM   12  N4  UNL     1      23.266  -1.532  55.623  1.00  0.00    -0.253 NA
HETATM   13  C16 UNL     1      24.348  -0.920  55.094  1.00  0.00     0.151 A 
HETATM   14  C17 UNL     1      24.004  -0.268  53.934  1.00  0.00     0.104 A 
ENDROOT
BRANCH   1  15
HETATM   15  N1  UNL     1      26.104   0.757  53.178  1.00  0.00    -0.339 N 
HETATM   16  H8  UNL     1      26.431   1.756  53.214  1.00  0.00     0.167 HD
BRANCH  15  17
HETATM   17  C7  UNL     1      27.350   0.117  53.251  1.00  0.00     0.039 A 
HETATM   18  C2  UNL     1      28.534   0.824  53.510  1.00  0.00    -0.035 A 
HETATM   19  C1  UNL     1      28.493   2.305  53.702  1.00  0.00     0.050 C 
HETATM   20  C3  UNL     1      29.776   0.232  53.601  1.00  0.00     0.009 A 
HETATM   21  C4  UNL     1      29.829  -1.121  53.427  1.00  0.00     0.001 A 
HETATM   22  C5  UNL     1      28.758  -1.915  53.173  1.00  0.00     0.002 A 
HETATM   23  C6  UNL     1      27.554  -1.259  53.095  1.00  0.00     0.030 A 
ENDBRANCH  15  17
ENDBRANCH   1  15
TORSDOF 2
ENDMDL
MODEL 3
REMARK VINA RESULT:      -8.6      1.691      3.553
REMARK  2 active torsions:
REMARK  status: ('A' for Active; 'I' for Inactive)
REMARK    1  A    between atoms: C7_7  and  N1_8 
REMARK    2  A    between atoms: N1_8  and  C8_9 
ROOT
HETATM    1  C8  UNL     1      24.402  -0.178  53.606  1.00  0.00     0.157 A 
HETATM    2  N2  UNL     1      24.447   0.672  52.541  1.00  0.00    -0.227 NA
HETATM    3  C9  UNL     1      23.372   1.078  51.893  1.00  0.00     0.086 A 
HETATM    4  C10 UNL     1      23.482   1.938  50.820  1.00  0.00     0.037 A 
HETATM    5  C11 UNL     1      22.333   2.337  50.168  1.00  0.00     0.045 A 
HETATM    6  C12 UNL     1      21.095   1.881  50.585  1.00  0.00     0.118 A 
HETATM    7  F1  UNL     1      19.987   2.277  49.943  1.00  0.00    -0.206 F 
HETATM    8  C13 UNL     1      21.008   1.019  51.660  1.00  0.00     0.074 A 
HETATM    9  C14 UNL     1      22.151   0.616  52.317  1.00  0.00     0.072 A 
HETATM   10  N3  UNL     1      22.024  -0.224  53.357  1.00  0.00    -0.299 N 
HETATM   11  C15 UNL     1      20.950  -0.786  53.936  1.00  0.00     0.215 A 
HETATM   12  N4  UNL     1      21.412  -1.548  54.963  1.00  0.00    -0.253 NA
HETATM   13  C16 UNL     1      22.757  -1.425  54.976  1.00  0.00     0.151 A 
HETATM   14  C17 UNL     1      23.166  -0.590  53.965  1.00  0.00     0.104 A 
ENDROOT
BRANCH   1  15
HETATM   15  N1  UNL     1      25.610  -0.518  54.198  1.00  0.00    -0.339 N 
HETATM   16  H8  UNL     1      25.625  -1.118  55.062  1.00  0.00     0.167 HD
BRANCH  15  17
HETATM   17  C7  UNL     1      26.991  -0.325  54.043  1.00  0.00     0.039 A 
HETATM   18  C2  UNL     1      27.776  -1.176  53.252  1.00  0.00    -0.035 A 
HETATM   19  C1  UNL     1      27.147  -2.338  52.554  1.00  0.00     0.050 C 
HETATM   20  C3  UNL     1      29.132  -1.014  53.064  1.00  0.00     0.009 A 
HETATM   21  C4  UNL     1      29.720   0.044  53.696  1.00  0.00     0.001 A 
HETATM   22  C5  UNL     1      29.072   0.936  54.486  1.00  0.00     0.002 A 
HETATM   23  C6  UNL     1      27.724   0.714  54.629  1.00  0.00     0.030 A 
ENDBRANCH  15  17
ENDBRANCH   1  15
TORSDOF 2
ENDMDL
MODEL 4
REMARK VINA RESULT:      -8.3      2.550      4.766
REMARK  2 active torsions:
REMARK  status: ('A' for Active; 'I' for Inactive)
REMARK    1  A    between atoms: C7_7  and  N1_8 
REMARK    2  A    between atoms: N1_8  and  C8_9 
ROOT
HETATM    1  C8  UNL     1      24.323   2.745  52.277  1.00  0.00     0.157 A 
HETATM    2  N2  UNL     1      23.027   2.324  52.224  1.00  0.00    -0.227 NA
HETATM    3  C9  UNL     1      22.609   1.197  52.766  1.00  0.00     0.086 A 
HETATM    4  C10 UNL     1      21.285   0.824  52.677  1.00  0.00     0.037 A 
HETATM    5  C11 UNL     1      20.888  -0.364  53.258  1.00  0.00     0.045 A 
HETATM    6  C12 UNL     1      21.805  -1.163  53.916  1.00  0.00     0.118 A 
HETATM    7  F1  UNL     1      21.407  -2.315  54.475  1.00  0.00    -0.206 F 
HETATM    8  C13 UNL     1      23.127  -0.772  53.992  1.00  0.00     0.074 A 
HETATM    9  C14 UNL     1      23.531   0.414  53.415  1.00  0.00     0.072 A 
HETATM   10  N3  UNL     1      24.826   0.759  53.510  1.00  0.00    -0.299 N 
HETATM   11  C15 UNL     1      25.877   0.160  54.091  1.00  0.00     0.215 A 
HETATM   12  N4  UNL     1      26.952   0.966  53.884  1.00  0.00    -0.253 NA
HETATM   13  C16 UNL     1      26.518   2.034  53.179  1.00  0.00     0.151 A 
HETATM   14  C17 UNL     1      25.171   1.922  52.932  1.00  0.00     0.104 A 
ENDROOT
BRANCH   1  15
HETATM   15  N1  UNL     1      24.623   3.955  51.668  1.00  0.00    -0.339 N 
HETATM   16  H8  UNL     1      24.162   4.842  51.996  1.00  0.00     0.167 HD
BRANCH  15  17
HETATM   17  C7  UNL     1      25.417   4.490  50.642  1.00  0.00     0.039 A 
HETATM   18  C2  UNL     1      25.309   5.830  50.241  1.00  0.00    -0.035 A 
HETATM   19  C1  UNL     1      24.315   6.729  50.901  1.00  0.00     0.050 C 
HETATM   20  C3  UNL     1      26.078   6.397  49.247  1.00  0.00     0.009 A 
HETATM   21  C4  UNL     1      26.990   5.587  48.635  1.00  0.00     0.001 A 
HETATM   22  C5  UNL     1      27.191   4.278  48.932  1.00  0.00     0.002 A 
HETATM   23  C6  UNL     1      26.391   3.780  49.930  1.00  0.00     0.030 A 
ENDBRANCH  15  17
ENDBRANCH   1  15
TORSDOF 2
ENDMDL
MODEL 5
REMARK VINA RESULT:      -8.2      3.877      6.168
REMARK  2 active torsions:
REMARK  status: ('A' for Active; 'I' for Inactive)
REMARK    1  A    between atoms: C7_7  and  N1_8 
REMARK    2  A    between atoms: N1_8  and  C8_9 
ROOT
HETATM    1  C8  UNL     1      26.316   3.160  50.373  1.00  0.00     0.157 A 
HETATM    2  N2  UNL     1      27.228   2.740  51.295  1.00  0.00    -0.227 NA
HETATM    3  C9  UNL     1      26.921   1.964  52.316  1.00  0.00     0.086 A 
HETATM    4  C10 UNL     1      27.889   1.574  53.218  1.00  0.00     0.037 A 
HETATM    5  C11 UNL     1      27.526   0.763  54.273  1.00  0.00     0.045 A 
HETATM    6  C12 UNL     1      26.214   0.350  54.421  1.00  0.00     0.118 A 
HETATM    7  F1  UNL     1      25.875  -0.439  55.452  1.00  0.00    -0.206 F 
HETATM    8  C13 UNL     1      25.260   0.753  53.508  1.00  0.00     0.074 A 
HETATM    9  C14 UNL     1      25.615   1.563  52.450  1.00  0.00     0.072 A 
HETATM   10  N3  UNL     1      24.658   1.935  51.585  1.00  0.00    -0.299 N 
HETATM   11  C15 UNL     1      23.345   1.661  51.522  1.00  0.00     0.215 A 
HETATM   12  N4  UNL     1      22.864   2.299  50.421  1.00  0.00    -0.253 NA
HETATM   13  C16 UNL     1      23.904   2.943  49.848  1.00  0.00     0.151 A 
HETATM   14  C17 UNL     1      25.052   2.725  50.572  1.00  0.00     0.104 A 
ENDROOT
BRANCH   1  15
HETATM   15  N1  UNL     1      26.778   3.970  49.345  1.00  0.00    -0.339 N 
HETATM   16  H8  UNL     1      27.454   3.590  48.635  1.00  0.00     0.167 HD
BRANCH  15  17
HETATM   17  C7  UNL     1      26.656   5.278  48.851  1.00  0.00     0.039 A 
HETATM   18  C2  UNL     1      27.750   5.976  48.319  1.00  0.00    -0.035 A 
HETATM   19  C1  UNL     1      29.098   5.334  48.281  1.00  0.00     0.050 C 
HETATM   20  C3  UNL     1      27.670   7.256  47.813  1.00  0.00     0.009 A 
HETATM   21  C4  UNL     1      26.444   7.856  47.843  1.00  0.00     0.001 A 
HETATM   22  C5  UNL     1      25.312   7.287  48.329  1.00  0.00     0.002 A 
HETATM   23  C6  UNL     1      25.465   6.013  48.817  1.00  0.00     0.030 A 
ENDBRANCH  15  17
ENDBRANCH   1  15
TORSDOF 2
ENDMDL
MODEL 6
REMARK VINA RESULT:      -8.1      3.211      7.224
REMARK  2 active torsions:
REMARK  status: ('A' for Active; 'I' for Inactive)
REMARK    1  A    between atoms: C7_7  and  N1_8 
REMARK    2  A    between atoms: N1_8  and  C8_9 
ROOT
HETATM    1  C8  UNL     1      23.132   1.998  52.143  1.00  0.00     0.157 A 
HETATM    2  N2  UNL     1      23.193   3.068  51.301  1.00  0.00    -0.227 NA
HETATM    3  C9  UNL     1      24.287   3.420  50.655  1.00  0.00     0.086 A 
HETATM    4  C10 UNL     1      24.286   4.516  49.818  1.00  0.00     0.037 A 
HETATM    5  C11 UNL     1      25.452   4.852  49.161  1.00  0.00     0.045 A 
HETATM    6  C12 UNL     1      26.600   4.101  49.341  1.00  0.00     0.118 A 
HETATM    7  F1  UNL     1      27.727   4.438  48.696  1.00  0.00    -0.206 F 
HETATM    8  C13 UNL     1      26.580   3.008  50.184  1.00  0.00     0.074 A 
HETATM    9  C14 UNL     1      25.418   2.666  50.844  1.00  0.00     0.072 A 
HETATM   10  N3  UNL     1      25.439   1.597  51.657  1.00  0.00    -0.299 N 
HETATM   11  C15 UNL     1      26.413   0.730  51.979  1.00  0.00     0.215 A 
HETATM   12  N4  UNL     1      25.869  -0.166  52.846  1.00  0.00    -0.253 NA
HETATM   13  C16 UNL     1      24.577   0.188  53.024  1.00  0.00     0.151 A 
HETATM   14  C17 UNL     1      24.284   1.304  52.278  1.00  0.00     0.104 A 
ENDROOT
BRANCH   1  15
HETATM   15  N1  UNL     1      21.914   1.738  52.754  1.00  0.00    -0.339 N 
HETATM   16  H8  UNL     1      21.651   2.234  53.643  1.00  0.00     0.167 HD
BRANCH  15  17
HETATM   17  C7  UNL     1      20.763   0.952  52.595  1.00  0.00     0.039 A 
HETATM   18  C2  UNL     1      20.406  -0.038  53.523  1.00  0.00    -0.035 A 
HETATM   19  C1  UNL     1      21.270  -0.291  54.715  1.00  0.00     0.050 C 
HETATM   20  C3  UNL     1      19.278  -0.823  53.411  1.00  0.00     0.009 A 
HETATM   21  C4  UNL     1      18.479  -0.604  52.325  1.00  0.00     0.001 A 
HETATM   22  C5  UNL     1      18.714   0.321  51.361  1.00  0.00     0.002 A 
HETATM   23  C6  UNL     1      19.855   1.066  51.536  1.00  0.00     0.030 A 
ENDBRANCH  15  17
ENDBRANCH   1  15
TORSDOF 2
ENDMDL
MODEL 7
REMARK VINA RESULT:      -8.0      2.831      7.376
REMARK  2 active torsions:
REMARK  status: ('A' for Active; 'I' for Inactive)
REMARK    1  A    between atoms: C7_7  and  N1_8 
REMARK    2  A    between atoms: N1_8  and  C8_9 
ROOT
HETATM    1  C8  UNL     1      21.994   0.664  52.889  1.00  0.00     0.157 A 
HETATM    2  N2  UNL     1      23.003   1.209  52.150  1.00  0.00    -0.227 NA
HETATM    3  C9  UNL     1      24.276   0.927  52.345  1.00  0.00     0.086 A 
HETATM    4  C10 UNL     1      25.252   1.513  51.566  1.00  0.00     0.037 A 
HETATM    5  C11 UNL     1      26.573   1.192  51.802  1.00  0.00     0.045 A 
HETATM    6  C12 UNL     1      26.909   0.299  52.803  1.00  0.00     0.118 A 
HETATM    7  F1  UNL     1      28.197  -0.005  53.022  1.00  0.00    -0.206 F 
HETATM    8  C13 UNL     1      25.917  -0.276  53.572  1.00  0.00     0.074 A 
HETATM    9  C14 UNL     1      24.594   0.039  53.342  1.00  0.00     0.072 A 
HETATM   10  N3  UNL     1      23.659  -0.539  54.113  1.00  0.00    -0.299 N 
HETATM   11  C15 UNL     1      23.743  -1.423  55.120  1.00  0.00     0.215 A 
HETATM   12  N4  UNL     1      22.471  -1.670  55.532  1.00  0.00    -0.253 NA
HETATM   13  C16 UNL     1      21.651  -0.925  54.758  1.00  0.00     0.151 A 
HETATM   14  C17 UNL     1      22.385  -0.200  53.851  1.00  0.00     0.104 A 
ENDROOT
BRANCH   1  15
HETATM   15  N1  UNL     1      20.698   1.045  52.573  1.00  0.00    -0.339 N 
HETATM   16  H8  UNL     1      20.384   2.037  52.731  1.00  0.00     0.167 HD
BRANCH  15  17
HETATM   17  C7  UNL     1      19.504   0.519  52.057  1.00  0.00     0.039 A 
HETATM   18  C2  UNL     1      19.049   0.836  50.769  1.00  0.00    -0.035 A 
HETATM   19  C1  UNL     1      19.834   1.769  49.907  1.00  0.00     0.050 C 
HETATM   20  C3  UNL     1      17.888   0.331  50.220  1.00  0.00     0.009 A 
HETATM   21  C4  UNL     1      17.160  -0.523  50.996  1.00  0.00     0.001 A 
HETATM   22  C5  UNL     1      17.493  -0.907  52.254  1.00  0.00     0.002 A 
HETATM   23  C6  UNL     1      18.659  -0.366  52.737  1.00  0.00     0.030 A 
ENDBRANCH  15  17
ENDBRANCH   1  15
TORSDOF 2
ENDMDL
MODEL 8
REMARK VINA RESULT:      -8.0      3.871      6.399
REMARK  2 active torsions:
REMARK  status: ('A' for Active; 'I' for Inactive)
REMARK    1  A    between atoms: C7_7  and  N1_8 
REMARK    2  A    between atoms: N1_8  and  C8_9 
ROOT
HETATM    1  C8  UNL     1      23.472   2.363  51.418  1.00  0.00     0.157 A 
HETATM    2  N2  UNL     1      24.680   2.276  50.792  1.00  0.00    -0.227 NA
HETATM    3  C9  UNL     1      25.286   3.309  50.241  1.00  0.00     0.086 A 
HETATM    4  C10 UNL     1      26.507   3.157  49.618  1.00  0.00     0.037 A 
HETATM    5  C11 UNL     1      27.108   4.263  49.053  1.00  0.00     0.045 A 
HETATM    6  C12 UNL     1      26.494   5.502  49.112  1.00  0.00     0.118 A 
HETATM    7  F1  UNL     1      27.088   6.569  48.558  1.00  0.00    -0.206 F 
HETATM    8  C13 UNL     1      25.270   5.632  49.738  1.00  0.00     0.074 A 
HETATM    9  C14 UNL     1      24.664   4.531  50.306  1.00  0.00     0.072 A 
HETATM   10  N3  UNL     1      23.474   4.699  50.905  1.00  0.00    -0.299 N 
HETATM   11  C15 UNL     1      22.702   5.782  51.087  1.00  0.00     0.215 A 
HETATM   12  N4  UNL     1      21.602   5.369  51.773  1.00  0.00    -0.253 NA
HETATM   13  C16 UNL     1      21.741   4.042  51.985  1.00  0.00     0.151 A 
HETATM   14  C17 UNL     1      22.922   3.597  51.442  1.00  0.00     0.104 A 
ENDROOT
BRANCH   1  15
HETATM   15  N1  UNL     1      22.952   1.196  51.959  1.00  0.00    -0.339 N 
HETATM   16  H8  UNL     1      22.218   0.652  51.437  1.00  0.00     0.167 HD
BRANCH  15  17
HETATM   17  C7  UNL     1      23.061   0.379  53.095  1.00  0.00     0.039 A 
HETATM   18  C2  UNL     1      21.937  -0.036  53.823  1.00  0.00    -0.035 A 
HETATM   19  C1  UNL     1      20.572   0.404  53.404  1.00  0.00     0.050 C 
HETATM   20  C3  UNL     1      22.000  -0.847  54.936  1.00  0.00     0.009 A 
HETATM   21  C4  UNL     1      23.241  -1.257  55.331  1.00  0.00     0.001 A 
HETATM   22  C5  UNL     1      24.403  -0.925  54.712  1.00  0.00     0.002 A 
HETATM   23  C6  UNL     1      24.265  -0.115  53.612  1.00  0.00     0.030 A 
ENDBRANCH  15  17
ENDBRANCH   1  15
TORSDOF 2
ENDMDL
MODEL 9
REMARK VINA RESULT:      -7.9      8.343     11.563
REMARK  2 active torsions:
REMARK  status: ('A' for Active; 'I' for Inactive)
REMARK    1  A    between atoms: C7_7  and  N1_8 
REMARK    2  A    between atoms: N1_8  and  C8_9 
ROOT
HETATM    1  C8  UNL     1      30.048   5.818  48.367  1.00  0.00     0.157 A 
HETATM    2  N2  UNL     1      30.492   4.652  47.816  1.00  0.00    -0.227 NA
HETATM    3  C9  UNL     1      31.691   4.512  47.285  1.00  0.00     0.086 A 
HETATM    4  C10 UNL     1      32.081   3.307  46.740  1.00  0.00     0.037 A 
HETATM    5  C11 UNL     1      33.343   3.202  46.194  1.00  0.00     0.045 A 
HETATM    6  C12 UNL     1      34.200   4.288  46.194  1.00  0.00     0.118 A 
HETATM    7  F1  UNL     1      35.425   4.173  45.660  1.00  0.00    -0.206 F 
HETATM    8  C13 UNL     1      33.789   5.486  46.743  1.00  0.00     0.074 A 
HETATM    9  C14 UNL     1      32.529   5.599  47.292  1.00  0.00     0.072 A 
HETATM   10  N3  UNL     1      32.167   6.781  47.816  1.00  0.00    -0.299 N 
HETATM   11  C15 UNL     1      32.815   7.951  47.933  1.00  0.00     0.215 A 
HETATM   12  N4  UNL     1      31.965   8.810  48.557  1.00  0.00    -0.253 NA
HETATM   13  C16 UNL     1      30.822   8.131  48.800  1.00  0.00     0.151 A 
HETATM   14  C17 UNL     1      30.929   6.842  48.337  1.00  0.00     0.104 A 
ENDROOT
BRANCH   1  15
HETATM   15  N1  UNL     1      28.766   5.823  48.896  1.00  0.00    -0.339 N 
HETATM   16  H8  UNL     1      28.586   5.428  49.854  1.00  0.00     0.167 HD
BRANCH  15  17
HETATM   17  C7  UNL     1      27.457   6.212  48.572  1.00  0.00     0.039 A 
HETATM   18  C2  UNL     1      26.345   5.420  48.895  1.00  0.00    -0.035 A 
HETATM   19  C1  UNL     1      26.537   4.112  49.591  1.00  0.00     0.050 C 
HETATM   20  C3  UNL     1      25.043   5.770  48.606  1.00  0.00     0.009 A 
HETATM   21  C4  UNL     1      24.853   6.963  47.969  1.00  0.00     0.001 A 
HETATM   22  C5  UNL     1      25.842   7.817  47.605  1.00  0.00     0.002 A 
HETATM   23  C6  UNL     1      27.113   7.404  47.923  1.00  0.00     0.030 A 
ENDBRANCH  15  17
ENDBRANCH   1  15
TORSDOF 2
ENDMDL
