MODEL 1
REMARK VINA RESULT:      -7.4      0.000      0.000
REMARK  7 active torsions:
REMARK  status: ('A' for Active; 'I' for Inactive)
REMARK    1  A    between atoms: C2_2  and  O1_3 
REMARK    2  A    between atoms: O1_3  and  C3_4 
REMARK       I    between atoms: C3_4  and  N1_6 
REMARK    3  A    between atoms: N1_6  and  C4_7 
REMARK    4  A    between atoms: C7_10  and  N2_11 
REMARK    5  A    between atoms: N2_11  and  C8_12 
REMARK    6  A    between atoms: C11_15  and  O3_16 
REMARK    7  A    between atoms: C13_18  and  O4_19 
ROOT
HETATM    1  N2  UNL     1      23.579   3.827  50.497  1.00  0.00    -0.341 N 
HETATM    2  H9  UNL     1      23.687   4.816  50.190  1.00  0.00     0.167 HD
ENDROOT
BRANCH   1   3
HETATM    3  C7  UNL     1      24.573   3.191  51.291  1.00  0.00     0.033 A 
HETATM    4  C6  UNL     1      24.352   2.993  52.637  1.00  0.00     0.032 A 
HETATM    5  C5  UNL     1      25.299   2.375  53.442  1.00  0.00     0.032 A 
HETATM    6  C4  UNL     1      26.471   1.964  52.852  1.00  0.00     0.036 A 
HETATM    7  C19 UNL     1      26.706   2.158  51.492  1.00  0.00     0.032 A 
HETATM    8  C18 UNL     1      25.745   2.781  50.694  1.00  0.00     0.032 A 
BRANCH   6   9
HETATM    9  N1  UNL     1      27.587   1.312  53.463  1.00  0.00    -0.303 N 
HETATM   10  C3  UNL     1      27.635   0.280  54.413  1.00  0.00     0.365 C 
HETATM   11  O2  UNL     1      26.686  -0.332  54.970  1.00  0.00    -0.238 OA
HETATM   12  H6  UNL     1      28.467   1.728  53.085  1.00  0.00     0.171 HD
BRANCH  10  13
HETATM   13  O1  UNL     1      28.869  -0.174  54.840  1.00  0.00    -0.304 OA
BRANCH  13  14
HETATM   14  C2  UNL     1      29.817  -0.599  53.907  1.00  0.00     0.176 C 
HETATM   15  C1  UNL     1      29.350  -1.901  53.290  1.00  0.00     0.034 C 
ENDBRANCH  13  14
ENDBRANCH  10  13
ENDBRANCH   6   9
ENDBRANCH   1   3
BRANCH   1  16
HETATM   16  C8  UNL     1      22.400   3.137  50.095  1.00  0.00     0.129 C 
HETATM   17  C9  UNL     1      21.467   4.108  50.401  1.00  0.00     0.053 C 
HETATM   18  C10 UNL     1      20.686   3.893  51.493  1.00  0.00     0.043 C 
HETATM   19  C11 UNL     1      19.753   2.975  51.931  1.00  0.00     0.101 C 
HETATM   20  C13 UNL     1      18.554   2.829  51.222  1.00  0.00     0.102 C 
HETATM   21  C15 UNL     1      18.282   1.926  50.215  1.00  0.00     0.059 C 
HETATM   22  C16 UNL     1      19.436   1.361  49.714  1.00  0.00     0.121 C 
HETATM   23  N3  UNL     1      20.236   2.086  48.893  1.00  0.00    -0.254 NA
HETATM   24  C17 UNL     1      21.449   1.577  48.601  1.00  0.00     0.234 C 
HETATM   25  N4  UNL     1      22.304   1.886  49.571  1.00  0.00    -0.225 NA
BRANCH  19  26
HETATM   26  O3  UNL     1      19.877   2.145  53.040  1.00  0.00    -0.353 OA
HETATM   27  C12 UNL     1      20.965   1.240  53.056  1.00  0.00     0.210 C 
ENDBRANCH  19  26
BRANCH  20  28
HETATM   28  O4  UNL     1      17.960   3.859  51.941  1.00  0.00    -0.353 OA
HETATM   29  C14 UNL     1      16.559   3.989  51.856  1.00  0.00     0.210 C 
ENDBRANCH  20  28
ENDBRANCH   1  16
TORSDOF 7
ENDMDL
MODEL 2
REMARK VINA RESULT:      -7.2      2.652      3.942
REMARK  7 active torsions:
REMARK  status: ('A' for Active; 'I' for Inactive)
REMARK    1  A    between atoms: C2_2  and  O1_3 
REMARK    2  A    between atoms: O1_3  and  C3_4 
REMARK       I    between atoms: C3_4  and  N1_6 
REMARK    3  A    between atoms: N1_6  and  C4_7 
REMARK    4  A    between atoms: C7_10  and  N2_11 
REMARK    5  A    between atoms: N2_11  and  C8_12 
REMARK    6  A    between atoms: C11_15  and  O3_16 
REMARK    7  A    between atoms: C13_18  and  O4_19 
ROOT
HETATM    1  N2  UNL     1      20.787   0.465  51.897  1.00  0.00    -0.341 N 
HETATM    2  H9  UNL     1      20.014  -0.228  51.813  1.00  0.00     0.167 HD
ENDROOT
BRANCH   1   3
HETATM    3  C7  UNL     1      22.000   0.138  52.564  1.00  0.00     0.033 A 
HETATM    4  C6  UNL     1      21.969  -0.648  53.695  1.00  0.00     0.032 A 
HETATM    5  C5  UNL     1      23.132  -0.988  54.371  1.00  0.00     0.032 A 
HETATM    6  C4  UNL     1      24.324  -0.514  53.875  1.00  0.00     0.036 A 
HETATM    7  C19 UNL     1      24.368   0.281  52.730  1.00  0.00     0.032 A 
HETATM    8  C18 UNL     1      23.190   0.616  52.061  1.00  0.00     0.032 A 
BRANCH   6   9
HETATM    9  N1  UNL     1      25.642  -0.723  54.387  1.00  0.00    -0.303 N 
HETATM   10  C3  UNL     1      26.632   0.197  54.762  1.00  0.00     0.365 C 
HETATM   11  O2  UNL     1      26.599   1.455  54.737  1.00  0.00    -0.238 OA
HETATM   12  H6  UNL     1      25.814  -1.751  54.465  1.00  0.00     0.171 HD
BRANCH  10  13
HETATM   13  O1  UNL     1      27.841  -0.283  55.236  1.00  0.00    -0.304 OA
BRANCH  13  14
HETATM   14  C2  UNL     1      29.036   0.142  54.652  1.00  0.00     0.176 C 
HETATM   15  C1  UNL     1      29.516  -0.920  53.684  1.00  0.00     0.034 C 
ENDBRANCH  13  14
ENDBRANCH  10  13
ENDBRANCH   6   9
ENDBRANCH   1   3
BRANCH   1  16
HETATM   16  C8  UNL     1      20.584   1.750  51.317  1.00  0.00     0.129 C 
HETATM   17  C9  UNL     1      20.463   1.374  49.994  1.00  0.00     0.053 C 
HETATM   18  C10 UNL     1      21.508   1.657  49.172  1.00  0.00     0.043 C 
HETATM   19  C11 UNL     1      22.185   2.767  48.708  1.00  0.00     0.101 C 
HETATM   20  C13 UNL     1      21.501   3.708  47.928  1.00  0.00     0.102 C 
HETATM   21  C15 UNL     1      20.869   4.854  48.363  1.00  0.00     0.059 C 
HETATM   22  C16 UNL     1      20.678   4.841  49.730  1.00  0.00     0.121 C 
HETATM   23  N3  UNL     1      19.704   4.062  50.263  1.00  0.00    -0.254 NA
HETATM   24  C17 UNL     1      19.692   3.916  51.603  1.00  0.00     0.234 C 
HETATM   25  N4  UNL     1      20.539   2.952  51.951  1.00  0.00    -0.225 NA
BRANCH  19  26
HETATM   26  O3  UNL     1      23.523   3.067  48.939  1.00  0.00    -0.353 OA
HETATM   27  C12 UNL     1      23.868   3.552  50.223  1.00  0.00     0.210 C 
ENDBRANCH  19  26
BRANCH  20  28
HETATM   28  O4  UNL     1      21.764   2.993  46.766  1.00  0.00    -0.353 OA
HETATM   29  C14 UNL     1      21.832   3.715  45.558  1.00  0.00     0.210 C 
ENDBRANCH  20  28
ENDBRANCH   1  16
TORSDOF 7
ENDMDL
MODEL 3
REMARK VINA RESULT:      -6.9      2.468      3.613
REMARK  7 active torsions:
REMARK  status: ('A' for Active; 'I' for Inactive)
REMARK    1  A    between atoms: C2_2  and  O1_3 
REMARK    2  A    between atoms: O1_3  and  C3_4 
REMARK       I    between atoms: C3_4  and  N1_6 
REMARK    3  A    between atoms: N1_6  and  C4_7 
REMARK    4  A    between atoms: C7_10  and  N2_11 
REMARK    5  A    between atoms: N2_11  and  C8_12 
REMARK    6  A    between atoms: C11_15  and  O3_16 
REMARK    7  A    between atoms: C13_18  and  O4_19 
ROOT
HETATM    1  N2  UNL     1      20.731   0.357  51.123  1.00  0.00    -0.341 N 
HETATM    2  H9  UNL     1      20.504  -0.457  50.515  1.00  0.00     0.167 HD
ENDROOT
BRANCH   1   3
HETATM    3  C7  UNL     1      21.994   0.464  51.769  1.00  0.00     0.033 A 
HETATM    4  C6  UNL     1      22.323  -0.411  52.780  1.00  0.00     0.032 A 
HETATM    5  C5  UNL     1      23.547  -0.338  53.431  1.00  0.00     0.032 A 
HETATM    6  C4  UNL     1      24.426   0.642  53.034  1.00  0.00     0.036 A 
HETATM    7  C19 UNL     1      24.104   1.534  52.011  1.00  0.00     0.032 A 
HETATM    8  C18 UNL     1      22.870   1.448  51.366  1.00  0.00     0.032 A 
BRANCH   6   9
HETATM    9  N1  UNL     1      25.732   0.919  53.545  1.00  0.00    -0.303 N 
HETATM   10  C3  UNL     1      26.417   0.377  54.642  1.00  0.00     0.365 C 
HETATM   11  O2  UNL     1      26.040  -0.504  55.459  1.00  0.00    -0.238 OA
HETATM   12  H6  UNL     1      26.178   1.652  52.949  1.00  0.00     0.171 HD
BRANCH  10  13
HETATM   13  O1  UNL     1      27.694   0.831  54.919  1.00  0.00    -0.304 OA
BRANCH  13  14
HETATM   14  C2  UNL     1      28.777  -0.048  54.852  1.00  0.00     0.176 C 
HETATM   15  C1  UNL     1      29.546   0.215  53.574  1.00  0.00     0.034 C 
ENDBRANCH  13  14
ENDBRANCH  10  13
ENDBRANCH   6   9
ENDBRANCH   1   3
BRANCH   1  16
HETATM   16  C8  UNL     1      19.732   1.359  51.282  1.00  0.00     0.129 C 
HETATM   17  C9  UNL     1      18.876   0.679  52.125  1.00  0.00     0.053 C 
HETATM   18  C10 UNL     1      17.710   0.228  51.590  1.00  0.00     0.043 C 
HETATM   19  C11 UNL     1      16.578   0.748  50.995  1.00  0.00     0.101 C 
HETATM   20  C13 UNL     1      15.745   1.595  51.736  1.00  0.00     0.102 C 
HETATM   21  C15 UNL     1      15.785   2.974  51.785  1.00  0.00     0.059 C 
HETATM   22  C16 UNL     1      16.967   3.466  51.272  1.00  0.00     0.121 C 
HETATM   23  N3  UNL     1      18.105   3.374  52.005  1.00  0.00    -0.254 NA
HETATM   24  C17 UNL     1      19.266   3.670  51.387  1.00  0.00     0.234 C 
HETATM   25  N4  UNL     1      19.701   2.601  50.729  1.00  0.00    -0.225 NA
BRANCH  19  26
HETATM   26  O3  UNL     1      16.157   0.515  49.690  1.00  0.00    -0.353 OA
HETATM   27  C12 UNL     1      16.233  -0.814  49.210  1.00  0.00     0.210 C 
ENDBRANCH  19  26
BRANCH  20  28
HETATM   28  O4  UNL     1      15.043   0.515  52.255  1.00  0.00    -0.353 OA
HETATM   29  C14 UNL     1      14.045   0.786  53.213  1.00  0.00     0.210 C 
ENDBRANCH  20  28
ENDBRANCH   1  16
TORSDOF 7
ENDMDL
MODEL 4
REMARK VINA RESULT:      -6.9      3.673      5.172
REMARK  7 active torsions:
REMARK  status: ('A' for Active; 'I' for Inactive)
REMARK    1  A    between atoms: C2_2  and  O1_3 
REMARK    2  A    between atoms: O1_3  and  C3_4 
REMARK       I    between atoms: C3_4  and  N1_6 
REMARK    3  A    between atoms: N1_6  and  C4_7 
REMARK    4  A    between atoms: C7_10  and  N2_11 
REMARK    5  A    between atoms: N2_11  and  C8_12 
REMARK    6  A    between atoms: C11_15  and  O3_16 
REMARK    7  A    between atoms: C13_18  and  O4_19 
ROOT
HETATM    1  N2  UNL     1      23.111   3.075  50.085  1.00  0.00    -0.341 N 
HETATM    2  H9  UNL     1      22.511   2.535  49.427  1.00  0.00     0.167 HD
ENDROOT
BRANCH   1   3
HETATM    3  C7  UNL     1      24.108   2.431  50.869  1.00  0.00     0.033 A 
HETATM    4  C6  UNL     1      23.748   1.439  51.755  1.00  0.00     0.032 A 
HETATM    5  C5  UNL     1      24.694   0.789  52.536  1.00  0.00     0.032 A 
HETATM    6  C4  UNL     1      26.008   1.167  52.397  1.00  0.00     0.036 A 
HETATM    7  C19 UNL     1      26.385   2.169  51.503  1.00  0.00     0.032 A 
HETATM    8  C18 UNL     1      25.423   2.814  50.725  1.00  0.00     0.032 A 
BRANCH   6   9
HETATM    9  N1  UNL     1      27.153   0.653  53.081  1.00  0.00    -0.303 N 
HETATM   10  C3  UNL     1      27.263   0.014  54.325  1.00  0.00     0.365 C 
HETATM   11  O2  UNL     1      26.361  -0.268  55.157  1.00  0.00    -0.238 OA
HETATM   12  H6  UNL     1      28.000   0.820  52.493  1.00  0.00     0.171 HD
BRANCH  10  13
HETATM   13  O1  UNL     1      28.514  -0.390  54.757  1.00  0.00    -0.304 OA
BRANCH  13  14
HETATM   14  C2  UNL     1      29.537  -0.601  53.831  1.00  0.00     0.176 C 
HETATM   15  C1  UNL     1      29.483  -2.038  53.356  1.00  0.00     0.034 C 
ENDBRANCH  13  14
ENDBRANCH  10  13
ENDBRANCH   6   9
ENDBRANCH   1   3
BRANCH   1  16
HETATM   16  C8  UNL     1      22.898   4.481  50.167  1.00  0.00     0.129 C 
HETATM   17  C9  UNL     1      22.991   4.793  48.826  1.00  0.00     0.053 C 
HETATM   18  C10 UNL     1      24.117   5.435  48.417  1.00  0.00     0.043 C 
HETATM   19  C11 UNL     1      24.770   6.628  48.655  1.00  0.00     0.101 C 
HETATM   20  C13 UNL     1      24.134   7.832  48.323  1.00  0.00     0.102 C 
HETATM   21  C15 UNL     1      23.364   8.626  49.148  1.00  0.00     0.059 C 
HETATM   22  C16 UNL     1      22.985   7.954  50.291  1.00  0.00     0.121 C 
HETATM   23  N3  UNL     1      22.006   7.017  50.225  1.00  0.00    -0.254 NA
HETATM   24  C17 UNL     1      21.816   6.240  51.310  1.00  0.00     0.234 C 
HETATM   25  N4  UNL     1      22.675   5.226  51.283  1.00  0.00    -0.225 NA
BRANCH  19  26
HETATM   26  O3  UNL     1      26.036   6.774  49.210  1.00  0.00    -0.353 OA
HETATM   27  C12 UNL     1      27.069   5.954  48.696  1.00  0.00     0.210 C 
ENDBRANCH  19  26
BRANCH  20  28
HETATM   28  O4  UNL     1      24.610   7.768  47.019  1.00  0.00    -0.353 OA
HETATM   29  C14 UNL     1      25.262   8.908  46.508  1.00  0.00     0.210 C 
ENDBRANCH  20  28
ENDBRANCH   1  16
TORSDOF 7
ENDMDL
MODEL 5
REMARK VINA RESULT:      -6.9      2.625      3.604
REMARK  7 active torsions:
REMARK  status: ('A' for Active; 'I' for Inactive)
REMARK    1  A    between atoms: C2_2  and  O1_3 
REMARK    2  A    between atoms: O1_3  and  C3_4 
REMARK       I    between atoms: C3_4  and  N1_6 
REMARK    3  A    between atoms: N1_6  and  C4_7 
REMARK    4  A    between atoms: C7_10  and  N2_11 
REMARK    5  A    between atoms: N2_11  and  C8_12 
REMARK    6  A    between atoms: C11_15  and  O3_16 
REMARK    7  A    between atoms: C13_18  and  O4_19 
ROOT
HETATM    1  N2  UNL     1      21.323   2.060  51.161  1.00  0.00    -0.341 N 
HETATM    2  H9  UNL     1      21.138   2.592  50.285  1.00  0.00     0.167 HD
ENDROOT
BRANCH   1   3
HETATM    3  C7  UNL     1      22.548   2.211  51.868  1.00  0.00     0.033 A 
HETATM    4  C6  UNL     1      22.981   3.469  52.228  1.00  0.00     0.032 A 
HETATM    5  C5  UNL     1      24.170   3.654  52.920  1.00  0.00     0.032 A 
HETATM    6  C4  UNL     1      24.907   2.538  53.236  1.00  0.00     0.036 A 
HETATM    7  C19 UNL     1      24.480   1.260  52.878  1.00  0.00     0.032 A 
HETATM    8  C18 UNL     1      23.283   1.089  52.182  1.00  0.00     0.032 A 
BRANCH   6   9
HETATM    9  N1  UNL     1      26.152   2.469  53.936  1.00  0.00    -0.303 N 
HETATM   10  C3  UNL     1      27.470   2.439  53.454  1.00  0.00     0.365 C 
HETATM   11  O2  UNL     1      27.882   2.466  52.265  1.00  0.00    -0.238 OA
HETATM   12  H6  UNL     1      25.961   2.441  54.962  1.00  0.00     0.171 HD
BRANCH  10  13
HETATM   13  O1  UNL     1      28.509   2.371  54.364  1.00  0.00    -0.304 OA
BRANCH  13  14
HETATM   14  C2  UNL     1      29.350   1.256  54.379  1.00  0.00     0.176 C 
HETATM   15  C1  UNL     1      28.553   0.045  54.818  1.00  0.00     0.034 C 
ENDBRANCH  13  14
ENDBRANCH  10  13
ENDBRANCH   6   9
ENDBRANCH   1   3
BRANCH   1  16
HETATM   16  C8  UNL     1      20.306   1.177  51.623  1.00  0.00     0.129 C 
HETATM   17  C9  UNL     1      19.875   0.688  50.406  1.00  0.00     0.053 C 
HETATM   18  C10 UNL     1      18.671   1.127  49.954  1.00  0.00     0.043 C 
HETATM   19  C11 UNL     1      17.346   1.093  50.343  1.00  0.00     0.101 C 
HETATM   20  C13 UNL     1      16.696  -0.143  50.445  1.00  0.00     0.102 C 
HETATM   21  C15 UNL     1      16.563  -0.927  51.573  1.00  0.00     0.059 C 
HETATM   22  C16 UNL     1      17.433  -0.536  52.570  1.00  0.00     0.121 C 
HETATM   23  N3  UNL     1      18.750  -0.846  52.469  1.00  0.00    -0.254 NA
HETATM   24  C17 UNL     1      19.592  -0.266  53.348  1.00  0.00     0.234 C 
HETATM   25  N4  UNL     1      19.927   0.943  52.908  1.00  0.00    -0.225 NA
BRANCH  19  26
HETATM   26  O3  UNL     1      16.555   2.193  50.658  1.00  0.00    -0.353 OA
HETATM   27  C12 UNL     1      17.091   3.139  51.564  1.00  0.00     0.210 C 
ENDBRANCH  19  26
BRANCH  20  28
HETATM   28  O4  UNL     1      16.357  -0.120  49.098  1.00  0.00    -0.353 OA
HETATM   29  C14 UNL     1      15.742  -1.269  48.562  1.00  0.00     0.210 C 
ENDBRANCH  20  28
ENDBRANCH   1  16
TORSDOF 7
ENDMDL
MODEL 6
REMARK VINA RESULT:      -6.7      6.181      9.242
REMARK  7 active torsions:
REMARK  status: ('A' for Active; 'I' for Inactive)
REMARK    1  A    between atoms: C2_2  and  O1_3 
REMARK    2  A    between atoms: O1_3  and  C3_4 
REMARK       I    between atoms: C3_4  and  N1_6 
REMARK    3  A    between atoms: N1_6  and  C4_7 
REMARK    4  A    between atoms: C7_10  and  N2_11 
REMARK    5  A    between atoms: N2_11  and  C8_12 
REMARK    6  A    between atoms: C11_15  and  O3_16 
REMARK    7  A    between atoms: C13_18  and  O4_19 
ROOT
HETATM    1  N2  UNL     1      26.215   6.969  48.232  1.00  0.00    -0.341 N 
HETATM    2  H9  UNL     1      25.578   7.196  47.440  1.00  0.00     0.167 HD
ENDROOT
BRANCH   1   3
HETATM    3  C7  UNL     1      26.051   5.778  48.993  1.00  0.00     0.033 A 
HETATM    4  C6  UNL     1      24.977   5.654  49.847  1.00  0.00     0.032 A 
HETATM    5  C5  UNL     1      24.784   4.507  50.603  1.00  0.00     0.032 A 
HETATM    6  C4  UNL     1      25.702   3.492  50.474  1.00  0.00     0.036 A 
HETATM    7  C19 UNL     1      26.793   3.606  49.612  1.00  0.00     0.032 A 
HETATM    8  C18 UNL     1      26.974   4.766  48.858  1.00  0.00     0.032 A 
BRANCH   6   9
HETATM    9  N1  UNL     1      25.722   2.226  51.138  1.00  0.00    -0.303 N 
HETATM   10  C3  UNL     1      26.693   1.646  51.969  1.00  0.00     0.365 C 
HETATM   11  O2  UNL     1      27.804   2.109  52.336  1.00  0.00    -0.238 OA
HETATM   12  H6  UNL     1      24.837   1.717  50.919  1.00  0.00     0.171 HD
BRANCH  10  13
HETATM   13  O1  UNL     1      26.455   0.387  52.490  1.00  0.00    -0.304 OA
BRANCH  13  14
HETATM   14  C2  UNL     1      27.526  -0.412  52.897  1.00  0.00     0.176 C 
HETATM   15  C1  UNL     1      27.153  -1.868  52.707  1.00  0.00     0.034 C 
ENDBRANCH  13  14
ENDBRANCH  10  13
ENDBRANCH   6   9
ENDBRANCH   1   3
BRANCH   1  16
HETATM   16  C8  UNL     1      27.259   7.895  48.522  1.00  0.00     0.129 C 
HETATM   17  C9  UNL     1      27.854   7.946  47.278  1.00  0.00     0.053 C 
HETATM   18  C10 UNL     1      29.052   7.318  47.139  1.00  0.00     0.043 C 
HETATM   19  C11 UNL     1      30.328   7.400  47.662  1.00  0.00     0.101 C 
HETATM   20  C13 UNL     1      31.076   8.567  47.457  1.00  0.00     0.102 C 
HETATM   21  C15 UNL     1      31.166   9.661  48.293  1.00  0.00     0.059 C 
HETATM   22  C16 UNL     1      30.166   9.657  49.244  1.00  0.00     0.121 C 
HETATM   23  N3  UNL     1      28.901   9.992  48.888  1.00  0.00    -0.254 NA
HETATM   24  C17 UNL     1      27.924   9.770  49.790  1.00  0.00     0.234 C 
HETATM   25  N4  UNL     1      27.525   8.505  49.707  1.00  0.00    -0.225 NA
BRANCH  19  26
HETATM   26  O3  UNL     1      30.977   6.416  48.399  1.00  0.00    -0.353 OA
HETATM   27  C12 UNL     1      31.049   5.121  47.833  1.00  0.00     0.210 C 
ENDBRANCH  19  26
BRANCH  20  28
HETATM   28  O4  UNL     1      31.546   8.096  46.237  1.00  0.00    -0.353 OA
HETATM   29  C14 UNL     1      32.934   8.167  46.004  1.00  0.00     0.210 C 
ENDBRANCH  20  28
ENDBRANCH   1  16
TORSDOF 7
ENDMDL
MODEL 7
REMARK VINA RESULT:      -6.6      4.362      5.860
REMARK  7 active torsions:
REMARK  status: ('A' for Active; 'I' for Inactive)
REMARK    1  A    between atoms: C2_2  and  O1_3 
REMARK    2  A    between atoms: O1_3  and  C3_4 
REMARK       I    between atoms: C3_4  and  N1_6 
REMARK    3  A    between atoms: N1_6  and  C4_7 
REMARK    4  A    between atoms: C7_10  and  N2_11 
REMARK    5  A    between atoms: N2_11  and  C8_12 
REMARK    6  A    between atoms: C11_15  and  O3_16 
REMARK    7  A    between atoms: C13_18  and  O4_19 
ROOT
HETATM    1  N2  UNL     1      24.130   5.120  50.807  1.00  0.00    -0.341 N 
HETATM    2  H9  UNL     1      23.853   5.800  51.545  1.00  0.00     0.167 HD
ENDROOT
BRANCH   1   3
HETATM    3  C7  UNL     1      25.317   5.305  50.045  1.00  0.00     0.033 A 
HETATM    4  C6  UNL     1      26.112   4.221  49.742  1.00  0.00     0.032 A 
HETATM    5  C5  UNL     1      27.277   4.363  49.001  1.00  0.00     0.032 A 
HETATM    6  C4  UNL     1      27.615   5.625  48.575  1.00  0.00     0.036 A 
HETATM    7  C19 UNL     1      26.818   6.730  48.875  1.00  0.00     0.032 A 
HETATM    8  C18 UNL     1      25.650   6.572  49.622  1.00  0.00     0.032 A 
BRANCH   6   9
HETATM    9  N1  UNL     1      28.752   6.025  47.806  1.00  0.00    -0.303 N 
HETATM   10  C3  UNL     1      30.124   5.893  48.068  1.00  0.00     0.365 C 
HETATM   11  O2  UNL     1      30.697   5.379  49.064  1.00  0.00    -0.238 OA
HETATM   12  H6  UNL     1      28.420   6.479  46.925  1.00  0.00     0.171 HD
BRANCH  10  13
HETATM   13  O1  UNL     1      31.028   6.374  47.138  1.00  0.00    -0.304 OA
BRANCH  13  14
HETATM   14  C2  UNL     1      30.919   7.688  46.676  1.00  0.00     0.176 C 
HETATM   15  C1  UNL     1      31.360   8.634  47.774  1.00  0.00     0.034 C 
ENDBRANCH  13  14
ENDBRANCH  10  13
ENDBRANCH   6   9
ENDBRANCH   1   3
BRANCH   1  16
HETATM   16  C8  UNL     1      23.279   3.999  50.592  1.00  0.00     0.129 C 
HETATM   17  C9  UNL     1      22.863   3.790  51.891  1.00  0.00     0.053 C 
HETATM   18  C10 UNL     1      23.379   2.713  52.540  1.00  0.00     0.043 C 
HETATM   19  C11 UNL     1      23.392   1.338  52.411  1.00  0.00     0.101 C 
HETATM   20  C13 UNL     1      22.184   0.633  52.497  1.00  0.00     0.102 C 
HETATM   21  C15 UNL     1      21.360   0.256  51.456  1.00  0.00     0.059 C 
HETATM   22  C16 UNL     1      21.666   0.934  50.294  1.00  0.00     0.121 C 
HETATM   23  N3  UNL     1      21.298   2.233  50.159  1.00  0.00    -0.254 NA
HETATM   24  C17 UNL     1      21.798   2.913  49.109  1.00  0.00     0.234 C 
HETATM   25  N4  UNL     1      23.008   3.373  49.415  1.00  0.00    -0.225 NA
BRANCH  19  26
HETATM   26  O3  UNL     1      24.513   0.545  52.195  1.00  0.00    -0.353 OA
HETATM   27  C12 UNL     1      25.749   1.207  51.999  1.00  0.00     0.210 C 
ENDBRANCH  19  26
BRANCH  20  28
HETATM   28  O4  UNL     1      22.282   0.559  53.880  1.00  0.00    -0.353 OA
HETATM   29  C14 UNL     1      21.415  -0.330  54.548  1.00  0.00     0.210 C 
ENDBRANCH  20  28
ENDBRANCH   1  16
TORSDOF 7
ENDMDL
MODEL 8
REMARK VINA RESULT:      -6.5      4.191      5.889
REMARK  7 active torsions:
REMARK  status: ('A' for Active; 'I' for Inactive)
REMARK    1  A    between atoms: C2_2  and  O1_3 
REMARK    2  A    between atoms: O1_3  and  C3_4 
REMARK       I    between atoms: C3_4  and  N1_6 
REMARK    3  A    between atoms: N1_6  and  C4_7 
REMARK    4  A    between atoms: C7_10  and  N2_11 
REMARK    5  A    between atoms: N2_11  and  C8_12 
REMARK    6  A    between atoms: C11_15  and  O3_16 
REMARK    7  A    between atoms: C13_18  and  O4_19 
ROOT
HETATM    1  N2  UNL     1      23.266   2.535  49.701  1.00  0.00    -0.341 N 
HETATM    2  H9  UNL     1      22.941   2.223  48.763  1.00  0.00     0.167 HD
ENDROOT
BRANCH   1   3
HETATM    3  C7  UNL     1      24.048   3.713  49.855  1.00  0.00     0.033 A 
HETATM    4  C6  UNL     1      25.340   3.745  49.376  1.00  0.00     0.032 A 
HETATM    5  C5  UNL     1      26.132   4.877  49.508  1.00  0.00     0.032 A 
HETATM    6  C4  UNL     1      25.585   5.972  50.133  1.00  0.00     0.036 A 
HETATM    7  C19 UNL     1      24.279   5.952  50.622  1.00  0.00     0.032 A 
HETATM    8  C18 UNL     1      23.495   4.807  50.483  1.00  0.00     0.032 A 
BRANCH   6   9
HETATM    9  N1  UNL     1      26.193   7.241  50.388  1.00  0.00    -0.303 N 
HETATM   10  C3  UNL     1      26.128   8.445  49.670  1.00  0.00     0.365 C 
HETATM   11  O2  UNL     1      25.507   8.704  48.606  1.00  0.00    -0.238 OA
HETATM   12  H6  UNL     1      26.756   7.175  51.265  1.00  0.00     0.171 HD
BRANCH  10  13
HETATM   13  O1  UNL     1      26.824   9.542  50.147  1.00  0.00    -0.304 OA
BRANCH  13  14
HETATM   14  C2  UNL     1      27.805  10.142  49.356  1.00  0.00     0.176 C 
HETATM   15  C1  UNL     1      29.071   9.313  49.429  1.00  0.00     0.034 C 
ENDBRANCH  13  14
ENDBRANCH  10  13
ENDBRANCH   6   9
ENDBRANCH   1   3
BRANCH   1  16
HETATM   16  C8  UNL     1      22.896   1.741  50.824  1.00  0.00     0.129 C 
HETATM   17  C9  UNL     1      21.906   0.981  50.234  1.00  0.00     0.053 C 
HETATM   18  C10 UNL     1      20.621   1.268  50.573  1.00  0.00     0.043 C 
HETATM   19  C11 UNL     1      19.828   1.273  51.704  1.00  0.00     0.101 C 
HETATM   20  C13 UNL     1      19.586   0.067  52.374  1.00  0.00     0.102 C 
HETATM   21  C15 UNL     1      20.292  -0.454  53.439  1.00  0.00     0.059 C 
HETATM   22  C16 UNL     1      21.508   0.177  53.601  1.00  0.00     0.121 C 
HETATM   23  N3  UNL     1      22.526  -0.101  52.748  1.00  0.00    -0.254 NA
HETATM   24  C17 UNL     1      23.618   0.687  52.809  1.00  0.00     0.234 C 
HETATM   25  N4  UNL     1      23.415   1.781  52.080  1.00  0.00    -0.225 NA
BRANCH  19  26
HETATM   26  O3  UNL     1      19.221   2.386  52.274  1.00  0.00    -0.353 OA
HETATM   27  C12 UNL     1      19.735   3.658  51.924  1.00  0.00     0.210 C 
ENDBRANCH  19  26
BRANCH  20  28
HETATM   28  O4  UNL     1      18.505  -0.218  51.550  1.00  0.00    -0.353 OA
HETATM   29  C14 UNL     1      17.327  -0.691  52.162  1.00  0.00     0.210 C 
ENDBRANCH  20  28
ENDBRANCH   1  16
TORSDOF 7
ENDMDL
MODEL 9
REMARK VINA RESULT:      -6.4      4.019      5.603
REMARK  7 active torsions:
REMARK  status: ('A' for Active; 'I' for Inactive)
REMARK    1  A    between atoms: C2_2  and  O1_3 
REMARK    2  A    between atoms: O1_3  and  C3_4 
REMARK       I    between atoms: C3_4  and  N1_6 
REMARK    3  A    between atoms: N1_6  and  C4_7 
REMARK    4  A    between atoms: C7_10  and  N2_11 
REMARK    5  A    between atoms: N2_11  and  C8_12 
REMARK    6  A    between atoms: C11_15  and  O3_16 
REMARK    7  A    between atoms: C13_18  and  O4_19 
ROOT
HETATM    1  N2  UNL     1      21.981   6.272  51.326  1.00  0.00    -0.341 N 
HETATM    2  H9  UNL     1      21.567   7.125  51.755  1.00  0.00     0.167 HD
ENDROOT
BRANCH   1   3
HETATM    3  C7  UNL     1      23.191   6.336  50.580  1.00  0.00     0.033 A 
HETATM    4  C6  UNL     1      23.235   5.824  49.301  1.00  0.00     0.032 A 
HETATM    5  C5  UNL     1      24.397   5.870  48.544  1.00  0.00     0.032 A 
HETATM    6  C4  UNL     1      25.509   6.446  49.111  1.00  0.00     0.036 A 
HETATM    7  C19 UNL     1      25.476   6.969  50.404  1.00  0.00     0.032 A 
HETATM    8  C18 UNL     1      24.301   6.915  51.154  1.00  0.00     0.032 A 
BRANCH   6   9
HETATM    9  N1  UNL     1      26.809   6.611  48.540  1.00  0.00    -0.303 N 
HETATM   10  C3  UNL     1      27.864   5.697  48.391  1.00  0.00     0.365 C 
HETATM   11  O2  UNL     1      27.921   4.487  48.732  1.00  0.00    -0.238 OA
HETATM   12  H6  UNL     1      26.907   7.595  48.204  1.00  0.00     0.171 HD
BRANCH  10  13
HETATM   13  O1  UNL     1      29.035   6.126  47.792  1.00  0.00    -0.304 OA
BRANCH  13  14
HETATM   14  C2  UNL     1      30.256   5.955  48.447  1.00  0.00     0.176 C 
HETATM   15  C1  UNL     1      31.255   5.357  47.478  1.00  0.00     0.034 C 
ENDBRANCH  13  14
ENDBRANCH  10  13
ENDBRANCH   6   9
ENDBRANCH   1   3
BRANCH   1  16
HETATM   16  C8  UNL     1      21.293   5.040  51.516  1.00  0.00     0.129 C 
HETATM   17  C9  UNL     1      22.012   4.555  52.591  1.00  0.00     0.053 C 
HETATM   18  C10 UNL     1      22.870   3.529  52.349  1.00  0.00     0.043 C 
HETATM   19  C11 UNL     1      22.819   2.224  51.901  1.00  0.00     0.101 C 
HETATM   20  C13 UNL     1      22.115   1.272  52.650  1.00  0.00     0.102 C 
HETATM   21  C15 UNL     1      20.800   0.886  52.489  1.00  0.00     0.059 C 
HETATM   22  C16 UNL     1      20.101   1.780  51.703  1.00  0.00     0.121 C 
HETATM   23  N3  UNL     1      19.723   2.975  52.222  1.00  0.00    -0.254 NA
HETATM   24  C17 UNL     1      19.235   3.895  51.366  1.00  0.00     0.234 C 
HETATM   25  N4  UNL     1      20.244   4.553  50.802  1.00  0.00    -0.225 NA
BRANCH  19  26
HETATM   26  O3  UNL     1      23.410   1.731  50.743  1.00  0.00    -0.353 OA
HETATM   27  C12 UNL     1      24.496   2.462  50.206  1.00  0.00     0.210 C 
ENDBRANCH  19  26
BRANCH  20  28
HETATM   28  O4  UNL     1      23.228   1.015  53.440  1.00  0.00    -0.353 OA
HETATM   29  C14 UNL     1      23.525  -0.333  53.729  1.00  0.00     0.210 C 
ENDBRANCH  20  28
ENDBRANCH   1  16
TORSDOF 7
ENDMDL
