MODEL 1
REMARK VINA RESULT:      -8.4      0.000      0.000
REMARK  10 active torsions:
REMARK  status: ('A' for Active; 'I' for Inactive)
REMARK    1  A    between atoms: N1_2  and  C3_4 
REMARK    2  A    between atoms: C3_4  and  C4_5 
REMARK    3  A    between atoms: C5_6  and  C6_7 
REMARK    4  A    between atoms: C6_7  and  C7_9 
REMARK    5  A    between atoms: C12_17  and  N4_18 
REMARK    6  A    between atoms: N4_18  and  C13_19 
REMARK    7  A    between atoms: C13_19  and  C14_20 
REMARK    8  A    between atoms: C13_19  and  C15_22 
REMARK    9  A    between atoms: C14_20  and  O2_21 
REMARK   10  A    between atoms: C15_22  and  C16_23 
ROOT
HETATM    1  C7  UNL     1      21.232  -0.582  53.221  1.00  0.00     0.069 C 
HETATM    2  C8  UNL     1      21.518  -0.676  54.706  1.00  0.00     0.059 C 
HETATM    3  C9  UNL     1      23.025  -0.646  54.622  1.00  0.00    -0.007 A 
HETATM    4  S1  UNL     1      24.543  -1.219  55.414  1.00  0.00    -0.073 SA
HETATM    5  C10 UNL     1      25.633  -0.455  54.235  1.00  0.00     0.114 A 
HETATM    6  N2  UNL     1      26.970  -0.502  54.253  1.00  0.00    -0.234 NA
HETATM    7  C11 UNL     1      27.661   0.124  53.300  1.00  0.00     0.236 A 
HETATM    8  N3  UNL     1      26.891   0.732  52.428  1.00  0.00    -0.224 NA
HETATM    9  C12 UNL     1      25.558   0.792  52.392  1.00  0.00     0.139 A 
HETATM   10  C22 UNL     1      24.805   0.160  53.355  1.00  0.00     0.053 A 
HETATM   11  C23 UNL     1      23.439   0.102  53.492  1.00  0.00    -0.027 A 
HETATM   12  C24 UNL     1      22.171   0.549  52.874  1.00  0.00     0.053 C 
ENDROOT
BRANCH   9  13
HETATM   13  N4  UNL     1      25.101   1.569  51.307  1.00  0.00    -0.367 N 
HETATM   14  H15 UNL     1      24.742   1.059  50.504  1.00  0.00     0.161 HD
BRANCH  13  15
HETATM   15  C13 UNL     1      25.075   3.040  51.216  1.00  0.00     0.111 C 
BRANCH  15  16
HETATM   16  C14 UNL     1      24.051   3.630  52.117  1.00  0.00     0.189 C 
BRANCH  16  17
HETATM   17  O2  UNL     1      24.550   3.774  53.404  1.00  0.00    -0.399 OA
HETATM   18  H19 UNL     1      25.399   3.277  53.537  1.00  0.00     0.209 HD
ENDBRANCH  16  17
ENDBRANCH  15  16
BRANCH  15  19
HETATM   19  C15 UNL     1      24.880   3.483  49.809  1.00  0.00     0.065 C 
BRANCH  19  20
HETATM   20  C16 UNL     1      25.821   4.492  49.291  1.00  0.00    -0.056 A 
HETATM   21  C17 UNL     1      27.172   4.281  49.007  1.00  0.00     0.007 A 
HETATM   22  C18 UNL     1      28.077   5.191  48.524  1.00  0.00     0.001 A 
HETATM   23  C19 UNL     1      27.589   6.451  48.298  1.00  0.00     0.000 A 
HETATM   24  C20 UNL     1      26.282   6.745  48.547  1.00  0.00     0.001 A 
HETATM   25  C21 UNL     1      25.403   5.804  49.033  1.00  0.00     0.007 A 
ENDBRANCH  19  20
ENDBRANCH  15  19
ENDBRANCH  13  15
ENDBRANCH   9  13
BRANCH   1  26
HETATM   26  C6  UNL     1      19.833  -0.373  52.886  1.00  0.00     0.153 C 
HETATM   27  O1  UNL     1      18.707  -0.886  53.101  1.00  0.00    -0.293 OA
BRANCH  26  28
HETATM   28  C5  UNL     1      19.712   0.820  52.020  1.00  0.00     0.048 C 
HETATM   29  C4  UNL     1      19.318   0.632  50.750  1.00  0.00     0.007 C 
BRANCH  29  30
HETATM   30  C3  UNL     1      19.135   1.689  49.723  1.00  0.00     0.299 C 
BRANCH  30  31
HETATM   31  N1  UNL     1      20.366   2.124  49.108  1.00  0.00     0.083 N 
HETATM   32  C1  UNL     1      21.342   1.052  49.024  1.00  0.00     0.309 C 
HETATM   33  C2  UNL     1      20.916   3.301  49.751  1.00  0.00     0.309 C 
ENDBRANCH  30  31
ENDBRANCH  29  30
ENDBRANCH  26  28
ENDBRANCH   1  26
TORSDOF 10
ENDMDL
MODEL 2
REMARK VINA RESULT:      -8.4      2.821      6.254
REMARK  10 active torsions:
REMARK  status: ('A' for Active; 'I' for Inactive)
REMARK    1  A    between atoms: N1_2  and  C3_4 
REMARK    2  A    between atoms: C3_4  and  C4_5 
REMARK    3  A    between atoms: C5_6  and  C6_7 
REMARK    4  A    between atoms: C6_7  and  C7_9 
REMARK    5  A    between atoms: C12_17  and  N4_18 
REMARK    6  A    between atoms: N4_18  and  C13_19 
REMARK    7  A    between atoms: C13_19  and  C14_20 
REMARK    8  A    between atoms: C13_19  and  C15_22 
REMARK    9  A    between atoms: C14_20  and  O2_21 
REMARK   10  A    between atoms: C15_22  and  C16_23 
ROOT
HETATM    1  C7  UNL     1      23.097  -0.468  54.109  1.00  0.00     0.069 C 
HETATM    2  C8  UNL     1      21.989  -1.470  54.364  1.00  0.00     0.059 C 
HETATM    3  C9  UNL     1      20.947  -0.850  53.464  1.00  0.00    -0.007 A 
HETATM    4  S1  UNL     1      19.173  -0.608  53.237  1.00  0.00    -0.073 SA
HETATM    5  C10 UNL     1      19.334   0.341  51.741  1.00  0.00     0.114 A 
HETATM    6  N2  UNL     1      18.329   0.855  51.023  1.00  0.00    -0.234 NA
HETATM    7  C11 UNL     1      18.603   1.546  49.915  1.00  0.00     0.236 A 
HETATM    8  N3  UNL     1      19.889   1.630  49.671  1.00  0.00    -0.224 NA
HETATM    9  C12 UNL     1      20.906   1.124  50.373  1.00  0.00     0.139 A 
HETATM   10  C22 UNL     1      20.671   0.406  51.523  1.00  0.00     0.053 A 
HETATM   11  C23 UNL     1      21.568  -0.188  52.377  1.00  0.00    -0.027 A 
HETATM   12  C24 UNL     1      23.015  -0.408  52.602  1.00  0.00     0.053 C 
ENDROOT
BRANCH   9  13
HETATM   13  N4  UNL     1      22.148   1.409  49.768  1.00  0.00    -0.367 N 
HETATM   14  H15 UNL     1      22.871   0.701  49.863  1.00  0.00     0.161 HD
BRANCH  13  15
HETATM   15  C13 UNL     1      22.507   2.616  49.001  1.00  0.00     0.111 C 
BRANCH  15  16
HETATM   16  C14 UNL     1      22.346   2.408  47.538  1.00  0.00     0.189 C 
BRANCH  16  17
HETATM   17  O2  UNL     1      21.155   2.960  47.089  1.00  0.00    -0.399 OA
HETATM   18  H19 UNL     1      21.292   3.827  46.625  1.00  0.00     0.209 HD
ENDBRANCH  16  17
ENDBRANCH  15  16
BRANCH  15  19
HETATM   19  C15 UNL     1      23.883   3.071  49.336  1.00  0.00     0.065 C 
BRANCH  19  20
HETATM   20  C16 UNL     1      24.289   2.983  50.750  1.00  0.00    -0.056 A 
HETATM   21  C17 UNL     1      23.563   3.465  51.842  1.00  0.00     0.007 A 
HETATM   22  C18 UNL     1      23.905   3.401  53.168  1.00  0.00     0.001 A 
HETATM   23  C19 UNL     1      25.100   2.791  53.444  1.00  0.00     0.000 A 
HETATM   24  C20 UNL     1      25.873   2.292  52.440  1.00  0.00     0.001 A 
HETATM   25  C21 UNL     1      25.496   2.375  51.119  1.00  0.00     0.007 A 
ENDBRANCH  19  20
ENDBRANCH  15  19
ENDBRANCH  13  15
ENDBRANCH   9  13
BRANCH   1  26
HETATM   26  C6  UNL     1      24.388  -0.839  54.661  1.00  0.00     0.153 C 
HETATM   27  O1  UNL     1      24.909  -1.154  55.761  1.00  0.00    -0.293 OA
BRANCH  26  28
HETATM   28  C5  UNL     1      25.398  -0.846  53.580  1.00  0.00     0.048 C 
HETATM   29  C4  UNL     1      26.691  -0.791  53.934  1.00  0.00     0.007 C 
BRANCH  29  30
HETATM   30  C3  UNL     1      27.855  -0.787  53.010  1.00  0.00     0.299 C 
BRANCH  30  31
HETATM   31  N1  UNL     1      28.969   0.002  53.479  1.00  0.00     0.083 N 
HETATM   32  C1  UNL     1      30.199  -0.768  53.528  1.00  0.00     0.309 C 
HETATM   33  C2  UNL     1      28.691   0.649  54.745  1.00  0.00     0.309 C 
ENDBRANCH  30  31
ENDBRANCH  29  30
ENDBRANCH  26  28
ENDBRANCH   1  26
TORSDOF 10
ENDMDL
MODEL 3
REMARK VINA RESULT:      -8.3      2.951      7.192
REMARK  10 active torsions:
REMARK  status: ('A' for Active; 'I' for Inactive)
REMARK    1  A    between atoms: N1_2  and  C3_4 
REMARK    2  A    between atoms: C3_4  and  C4_5 
REMARK    3  A    between atoms: C5_6  and  C6_7 
REMARK    4  A    between atoms: C6_7  and  C7_9 
REMARK    5  A    between atoms: C12_17  and  N4_18 
REMARK    6  A    between atoms: N4_18  and  C13_19 
REMARK    7  A    between atoms: C13_19  and  C14_20 
REMARK    8  A    between atoms: C13_19  and  C15_22 
REMARK    9  A    between atoms: C14_20  and  O2_21 
REMARK   10  A    between atoms: C15_22  and  C16_23 
ROOT
HETATM    1  C7  UNL     1      25.122   3.459  49.574  1.00  0.00     0.069 C 
HETATM    2  C8  UNL     1      23.837   4.222  49.325  1.00  0.00     0.059 C 
HETATM    3  C9  UNL     1      22.890   3.229  49.956  1.00  0.00    -0.007 A 
HETATM    4  S1  UNL     1      21.214   2.562  49.885  1.00  0.00    -0.073 SA
HETATM    5  C10 UNL     1      21.447   1.408  51.218  1.00  0.00     0.114 A 
HETATM    6  N2  UNL     1      20.529   0.559  51.693  1.00  0.00    -0.234 NA
HETATM    7  C11 UNL     1      20.847  -0.250  52.705  1.00  0.00     0.236 A 
HETATM    8  N3  UNL     1      22.083  -0.093  53.115  1.00  0.00    -0.224 NA
HETATM    9  C12 UNL     1      23.013   0.748  52.655  1.00  0.00     0.139 A 
HETATM   10  C22 UNL     1      22.730   1.600  51.612  1.00  0.00     0.053 A 
HETATM   11  C23 UNL     1      23.539   2.527  51.002  1.00  0.00    -0.027 A 
HETATM   12  C24 UNL     1      24.904   3.100  51.025  1.00  0.00     0.053 C 
ENDROOT
BRANCH   9  13
HETATM   13  N4  UNL     1      24.219   0.636  53.379  1.00  0.00    -0.367 N 
HETATM   14  H15 UNL     1      24.622   1.502  53.724  1.00  0.00     0.161 HD
BRANCH  13  15
HETATM   15  C13 UNL     1      24.949  -0.604  53.703  1.00  0.00     0.111 C 
BRANCH  15  16
HETATM   16  C14 UNL     1      25.533  -0.559  55.069  1.00  0.00     0.189 C 
BRANCH  16  17
HETATM   17  O2  UNL     1      24.976  -1.540  55.877  1.00  0.00    -0.399 OA
HETATM   18  H19 UNL     1      24.903  -2.415  55.412  1.00  0.00     0.209 HD
ENDBRANCH  16  17
ENDBRANCH  15  16
BRANCH  15  19
HETATM   19  C15 UNL     1      25.988  -0.894  52.678  1.00  0.00     0.065 C 
BRANCH  19  20
HETATM   20  C16 UNL     1      27.376  -0.532  53.015  1.00  0.00    -0.056 A 
HETATM   21  C17 UNL     1      28.426  -1.426  53.231  1.00  0.00     0.007 A 
HETATM   22  C18 UNL     1      29.728  -1.129  53.544  1.00  0.00     0.001 A 
HETATM   23  C19 UNL     1      30.022   0.205  53.656  1.00  0.00     0.000 A 
HETATM   24  C20 UNL     1      29.058   1.147  53.461  1.00  0.00     0.001 A 
HETATM   25  C21 UNL     1      27.760   0.809  53.148  1.00  0.00     0.007 A 
ENDBRANCH  19  20
ENDBRANCH  15  19
ENDBRANCH  13  15
ENDBRANCH   9  13
BRANCH   1  26
HETATM   26  C6  UNL     1      26.335   4.204  49.279  1.00  0.00     0.153 C 
HETATM   27  O1  UNL     1      27.577   4.030  49.214  1.00  0.00    -0.293 OA
BRANCH  26  28
HETATM   28  C5  UNL     1      25.981   5.603  48.954  1.00  0.00     0.048 C 
HETATM   29  C4  UNL     1      26.958   6.404  48.501  1.00  0.00     0.007 C 
BRANCH  29  30
HETATM   30  C3  UNL     1      26.815   7.833  48.120  1.00  0.00     0.299 C 
BRANCH  30  31
HETATM   31  N1  UNL     1      27.841   8.687  48.667  1.00  0.00     0.083 N 
HETATM   32  C1  UNL     1      29.147   8.052  48.645  1.00  0.00     0.309 C 
HETATM   33  C2  UNL     1      27.506   9.175  49.990  1.00  0.00     0.309 C 
ENDBRANCH  30  31
ENDBRANCH  29  30
ENDBRANCH  26  28
ENDBRANCH   1  26
TORSDOF 10
ENDMDL
MODEL 4
REMARK VINA RESULT:      -8.3      1.983      3.413
REMARK  10 active torsions:
REMARK  status: ('A' for Active; 'I' for Inactive)
REMARK    1  A    between atoms: N1_2  and  C3_4 
REMARK    2  A    between atoms: C3_4  and  C4_5 
REMARK    3  A    between atoms: C5_6  and  C6_7 
REMARK    4  A    between atoms: C6_7  and  C7_9 
REMARK    5  A    between atoms: C12_17  and  N4_18 
REMARK    6  A    between atoms: N4_18  and  C13_19 
REMARK    7  A    between atoms: C13_19  and  C14_20 
REMARK    8  A    between atoms: C13_19  and  C15_22 
REMARK    9  A    between atoms: C14_20  and  O2_21 
REMARK   10  A    between atoms: C15_22  and  C16_23 
ROOT
HETATM    1  C7  UNL     1      21.989   0.405  52.223  1.00  0.00     0.069 C 
HETATM    2  C8  UNL     1      22.200  -0.188  53.602  1.00  0.00     0.059 C 
HETATM    3  C9  UNL     1      23.700  -0.023  53.662  1.00  0.00    -0.007 A 
HETATM    4  S1  UNL     1      25.220  -0.730  54.332  1.00  0.00    -0.073 SA
HETATM    5  C10 UNL     1      26.295   0.478  53.590  1.00  0.00     0.114 A 
HETATM    6  N2  UNL     1      27.627   0.522  53.706  1.00  0.00    -0.234 NA
HETATM    7  C11 UNL     1      28.305   1.493  53.092  1.00  0.00     0.236 A 
HETATM    8  N3  UNL     1      27.529   2.314  52.425  1.00  0.00    -0.224 NA
HETATM    9  C12 UNL     1      26.201   2.287  52.298  1.00  0.00     0.139 A 
HETATM   10  C22 UNL     1      25.460   1.303  52.912  1.00  0.00     0.053 A 
HETATM   11  C23 UNL     1      24.101   1.104  52.904  1.00  0.00    -0.027 A 
HETATM   12  C24 UNL     1      22.832   1.650  52.373  1.00  0.00     0.053 C 
ENDROOT
BRANCH   9  13
HETATM   13  N4  UNL     1      25.732   3.364  51.516  1.00  0.00    -0.367 N 
HETATM   14  H15 UNL     1      25.553   4.236  52.007  1.00  0.00     0.161 HD
BRANCH  13  15
HETATM   15  C13 UNL     1      25.487   3.366  50.062  1.00  0.00     0.111 C 
BRANCH  15  16
HETATM   16  C14 UNL     1      26.705   3.742  49.298  1.00  0.00     0.189 C 
BRANCH  16  17
HETATM   17  O2  UNL     1      27.152   5.003  49.670  1.00  0.00    -0.399 OA
HETATM   18  H19 UNL     1      28.129   5.020  49.844  1.00  0.00     0.209 HD
ENDBRANCH  16  17
ENDBRANCH  15  16
BRANCH  15  19
HETATM   19  C15 UNL     1      24.338   4.245  49.716  1.00  0.00     0.065 C 
BRANCH  19  20
HETATM   20  C16 UNL     1      23.131   3.586  49.186  1.00  0.00    -0.056 A 
HETATM   21  C17 UNL     1      23.003   2.228  48.888  1.00  0.00     0.007 A 
HETATM   22  C18 UNL     1      21.900   1.579  48.396  1.00  0.00     0.001 A 
HETATM   23  C19 UNL     1      20.799   2.365  48.175  1.00  0.00     0.000 A 
HETATM   24  C20 UNL     1      20.835   3.700  48.439  1.00  0.00     0.001 A 
HETATM   25  C21 UNL     1      21.962   4.316  48.933  1.00  0.00     0.007 A 
ENDBRANCH  19  20
ENDBRANCH  15  19
ENDBRANCH  13  15
ENDBRANCH   9  13
BRANCH   1  26
HETATM   26  C6  UNL     1      20.597   0.619  51.864  1.00  0.00     0.153 C 
HETATM   27  O1  UNL     1      19.573  -0.039  51.553  1.00  0.00    -0.293 OA
BRANCH  26  28
HETATM   28  C5  UNL     1      20.309   2.070  51.870  1.00  0.00     0.048 C 
HETATM   29  C4  UNL     1      19.090   2.466  51.470  1.00  0.00     0.007 C 
BRANCH  29  30
HETATM   30  C3  UNL     1      18.601   3.867  51.402  1.00  0.00     0.299 C 
BRANCH  30  31
HETATM   31  N1  UNL     1      17.295   4.000  50.802  1.00  0.00     0.083 N 
HETATM   32  C1  UNL     1      16.268   4.277  51.790  1.00  0.00     0.309 C 
HETATM   33  C2  UNL     1      16.950   2.861  49.975  1.00  0.00     0.309 C 
ENDBRANCH  30  31
ENDBRANCH  29  30
ENDBRANCH  26  28
ENDBRANCH   1  26
TORSDOF 10
ENDMDL
MODEL 5
REMARK VINA RESULT:      -8.3      2.365      4.077
REMARK  10 active torsions:
REMARK  status: ('A' for Active; 'I' for Inactive)
REMARK    1  A    between atoms: N1_2  and  C3_4 
REMARK    2  A    between atoms: C3_4  and  C4_5 
REMARK    3  A    between atoms: C5_6  and  C6_7 
REMARK    4  A    between atoms: C6_7  and  C7_9 
REMARK    5  A    between atoms: C12_17  and  N4_18 
REMARK    6  A    between atoms: N4_18  and  C13_19 
REMARK    7  A    between atoms: C13_19  and  C14_20 
REMARK    8  A    between atoms: C13_19  and  C15_22 
REMARK    9  A    between atoms: C14_20  and  O2_21 
REMARK   10  A    between atoms: C15_22  and  C16_23 
ROOT
HETATM    1  C7  UNL     1      21.145   1.518  52.079  1.00  0.00     0.069 C 
HETATM    2  C8  UNL     1      21.379   0.740  53.359  1.00  0.00     0.059 C 
HETATM    3  C9  UNL     1      22.881   0.630  53.254  1.00  0.00    -0.007 A 
HETATM    4  S1  UNL     1      24.301  -0.405  53.664  1.00  0.00    -0.073 SA
HETATM    5  C10 UNL     1      25.503   0.672  52.919  1.00  0.00     0.114 A 
HETATM    6  N2  UNL     1      26.825   0.468  52.876  1.00  0.00    -0.234 NA
HETATM    7  C11 UNL     1      27.608   1.369  52.282  1.00  0.00     0.236 A 
HETATM    8  N3  UNL     1      26.937   2.386  51.794  1.00  0.00    -0.224 NA
HETATM    9  C12 UNL     1      25.621   2.608  51.827  1.00  0.00     0.139 A 
HETATM   10  C22 UNL     1      24.774   1.705  52.428  1.00  0.00     0.053 A 
HETATM   11  C23 UNL     1      23.409   1.750  52.564  1.00  0.00    -0.027 A 
HETATM   12  C24 UNL     1      22.217   2.568  52.245  1.00  0.00     0.053 C 
ENDROOT
BRANCH   9  13
HETATM   13  N4  UNL     1      25.286   3.834  51.214  1.00  0.00    -0.367 N 
HETATM   14  H15 UNL     1      25.103   4.617  51.836  1.00  0.00     0.161 HD
BRANCH  13  15
HETATM   15  C13 UNL     1      25.186   4.107  49.768  1.00  0.00     0.111 C 
BRANCH  15  16
HETATM   16  C14 UNL     1      26.328   4.923  49.281  1.00  0.00     0.189 C 
BRANCH  16  17
HETATM   17  O2  UNL     1      27.537   4.306  49.574  1.00  0.00    -0.399 OA
HETATM   18  H19 UNL     1      28.182   4.364  48.821  1.00  0.00     0.209 HD
ENDBRANCH  16  17
ENDBRANCH  15  16
BRANCH  15  19
HETATM   19  C15 UNL     1      23.883   4.743  49.435  1.00  0.00     0.065 C 
BRANCH  19  20
HETATM   20  C16 UNL     1      22.786   3.845  49.032  1.00  0.00    -0.056 A 
HETATM   21  C17 UNL     1      21.436   4.190  48.946  1.00  0.00     0.007 A 
HETATM   22  C18 UNL     1      20.389   3.385  48.574  1.00  0.00     0.001 A 
HETATM   23  C19 UNL     1      20.718   2.095  48.251  1.00  0.00     0.000 A 
HETATM   24  C20 UNL     1      22.012   1.673  48.307  1.00  0.00     0.001 A 
HETATM   25  C21 UNL     1      23.036   2.511  48.685  1.00  0.00     0.007 A 
ENDBRANCH  19  20
ENDBRANCH  15  19
ENDBRANCH  13  15
ENDBRANCH   9  13
BRANCH   1  26
HETATM   26  C6  UNL     1      19.789   2.013  51.912  1.00  0.00     0.153 C 
HETATM   27  O1  UNL     1      19.112   3.051  52.122  1.00  0.00    -0.293 OA
BRANCH  26  28
HETATM   28  C5  UNL     1      18.954   0.955  51.302  1.00  0.00     0.048 C 
HETATM   29  C4  UNL     1      17.901   0.509  52.004  1.00  0.00     0.007 C 
BRANCH  29  30
HETATM   30  C3  UNL     1      16.942  -0.542  51.575  1.00  0.00     0.299 C 
BRANCH  30  31
HETATM   31  N1  UNL     1      16.502  -1.401  52.648  1.00  0.00     0.083 N 
HETATM   32  C1  UNL     1      17.616  -2.024  53.339  1.00  0.00     0.309 C 
HETATM   33  C2  UNL     1      15.530  -2.381  52.206  1.00  0.00     0.309 C 
ENDBRANCH  30  31
ENDBRANCH  29  30
ENDBRANCH  26  28
ENDBRANCH   1  26
TORSDOF 10
ENDMDL
MODEL 6
REMARK VINA RESULT:      -8.3      2.178      6.227
REMARK  10 active torsions:
REMARK  status: ('A' for Active; 'I' for Inactive)
REMARK    1  A    between atoms: N1_2  and  C3_4 
REMARK    2  A    between atoms: C3_4  and  C4_5 
REMARK    3  A    between atoms: C5_6  and  C6_7 
REMARK    4  A    between atoms: C6_7  and  C7_9 
REMARK    5  A    between atoms: C12_17  and  N4_18 
REMARK    6  A    between atoms: N4_18  and  C13_19 
REMARK    7  A    between atoms: C13_19  and  C14_20 
REMARK    8  A    between atoms: C13_19  and  C15_22 
REMARK    9  A    between atoms: C14_20  and  O2_21 
REMARK   10  A    between atoms: C15_22  and  C16_23 
ROOT
HETATM    1  C7  UNL     1      25.448   2.871  51.248  1.00  0.00     0.069 C 
HETATM    2  C8  UNL     1      26.819   2.293  51.538  1.00  0.00     0.059 C 
HETATM    3  C9  UNL     1      26.416   1.384  52.674  1.00  0.00    -0.007 A 
HETATM    4  S1  UNL     1      26.986   0.628  54.211  1.00  0.00    -0.073 SA
HETATM    5  C10 UNL     1      25.457  -0.215  54.548  1.00  0.00     0.114 A 
HETATM    6  N2  UNL     1      25.206  -0.998  55.603  1.00  0.00    -0.234 NA
HETATM    7  C11 UNL     1      24.007  -1.570  55.724  1.00  0.00     0.236 A 
HETATM    8  N3  UNL     1      23.196  -1.268  54.737  1.00  0.00    -0.224 NA
HETATM    9  C12 UNL     1      23.427  -0.492  53.676  1.00  0.00     0.139 A 
HETATM   10  C22 UNL     1      24.649   0.120  53.512  1.00  0.00     0.053 A 
HETATM   11  C23 UNL     1      25.079   0.947  52.503  1.00  0.00    -0.027 A 
HETATM   12  C24 UNL     1      24.651   1.588  51.239  1.00  0.00     0.053 C 
ENDROOT
BRANCH   9  13
HETATM   13  N4  UNL     1      22.308  -0.435  52.820  1.00  0.00    -0.367 N 
HETATM   14  H15 UNL     1      22.170  -1.230  52.201  1.00  0.00     0.161 HD
BRANCH  13  15
HETATM   15  C13 UNL     1      21.307   0.644  52.735  1.00  0.00     0.111 C 
BRANCH  15  16
HETATM   16  C14 UNL     1      20.436   0.684  53.939  1.00  0.00     0.189 C 
BRANCH  16  17
HETATM   17  O2  UNL     1      20.119  -0.599  54.362  1.00  0.00    -0.399 OA
HETATM   18  H19 UNL     1      20.095  -0.675  55.352  1.00  0.00     0.209 HD
ENDBRANCH  16  17
ENDBRANCH  15  16
BRANCH  15  19
HETATM   19  C15 UNL     1      20.504   0.530  51.488  1.00  0.00     0.065 C 
BRANCH  19  20
HETATM   20  C16 UNL     1      20.928   1.357  50.344  1.00  0.00    -0.056 A 
HETATM   21  C17 UNL     1      21.537   0.890  49.177  1.00  0.00     0.007 A 
HETATM   22  C18 UNL     1      21.943   1.625  48.093  1.00  0.00     0.001 A 
HETATM   23  C19 UNL     1      21.721   2.975  48.175  1.00  0.00     0.000 A 
HETATM   24  C20 UNL     1      21.132   3.516  49.278  1.00  0.00     0.001 A 
HETATM   25  C21 UNL     1      20.738   2.745  50.347  1.00  0.00     0.007 A 
ENDBRANCH  19  20
ENDBRANCH  15  19
ENDBRANCH  13  15
ENDBRANCH   9  13
BRANCH   1  26
HETATM   26  C6  UNL     1      25.373   3.674  50.039  1.00  0.00     0.153 C 
HETATM   27  O1  UNL     1      24.527   4.297  49.350  1.00  0.00    -0.293 OA
BRANCH  26  28
HETATM   28  C5  UNL     1      26.723   3.787  49.444  1.00  0.00     0.048 C 
HETATM   29  C4  UNL     1      27.092   4.982  48.957  1.00  0.00     0.007 C 
BRANCH  29  30
HETATM   30  C3  UNL     1      28.396   5.306  48.322  1.00  0.00     0.299 C 
BRANCH  30  31
HETATM   31  N1  UNL     1      28.539   6.697  47.963  1.00  0.00     0.083 N 
HETATM   32  C1  UNL     1      29.886   7.185  48.203  1.00  0.00     0.309 C 
HETATM   33  C2  UNL     1      27.544   7.536  48.600  1.00  0.00     0.309 C 
ENDBRANCH  30  31
ENDBRANCH  29  30
ENDBRANCH  26  28
ENDBRANCH   1  26
TORSDOF 10
ENDMDL
MODEL 7
REMARK VINA RESULT:      -8.2      2.681      3.940
REMARK  10 active torsions:
REMARK  status: ('A' for Active; 'I' for Inactive)
REMARK    1  A    between atoms: N1_2  and  C3_4 
REMARK    2  A    between atoms: C3_4  and  C4_5 
REMARK    3  A    between atoms: C5_6  and  C6_7 
REMARK    4  A    between atoms: C6_7  and  C7_9 
REMARK    5  A    between atoms: C12_17  and  N4_18 
REMARK    6  A    between atoms: N4_18  and  C13_19 
REMARK    7  A    between atoms: C13_19  and  C14_20 
REMARK    8  A    between atoms: C13_19  and  C15_22 
REMARK    9  A    between atoms: C14_20  and  O2_21 
REMARK   10  A    between atoms: C15_22  and  C16_23 
ROOT
HETATM    1  C7  UNL     1      21.038   2.513  51.901  1.00  0.00     0.069 C 
HETATM    2  C8  UNL     1      20.885   1.645  53.134  1.00  0.00     0.059 C 
HETATM    3  C9  UNL     1      22.246   0.993  53.089  1.00  0.00    -0.007 A 
HETATM    4  S1  UNL     1      23.157  -0.512  53.491  1.00  0.00    -0.073 SA
HETATM    5  C10 UNL     1      24.717   0.079  52.875  1.00  0.00     0.114 A 
HETATM    6  N2  UNL     1      25.872  -0.597  52.878  1.00  0.00    -0.234 NA
HETATM    7  C11 UNL     1      26.968  -0.022  52.382  1.00  0.00     0.236 A 
HETATM    8  N3  UNL     1      26.750   1.193  51.936  1.00  0.00    -0.224 NA
HETATM    9  C12 UNL     1      25.608   1.884  51.925  1.00  0.00     0.139 A 
HETATM   10  C22 UNL     1      24.452   1.330  52.424  1.00  0.00     0.053 A 
HETATM   11  C23 UNL     1      23.191   1.870  52.502  1.00  0.00    -0.027 A 
HETATM   12  C24 UNL     1      22.406   3.085  52.187  1.00  0.00     0.053 C 
ENDROOT
BRANCH   9  13
HETATM   13  N4  UNL     1      25.787   3.174  51.383  1.00  0.00    -0.367 N 
HETATM   14  H15 UNL     1      26.029   3.911  52.039  1.00  0.00     0.161 HD
BRANCH  13  15
HETATM   15  C13 UNL     1      25.676   3.566  49.966  1.00  0.00     0.111 C 
BRANCH  15  16
HETATM   16  C14 UNL     1      26.948   4.135  49.449  1.00  0.00     0.189 C 
BRANCH  16  17
HETATM   17  O2  UNL     1      26.964   5.516  49.587  1.00  0.00    -0.399 OA
HETATM   18  H19 UNL     1      26.150   5.942  49.208  1.00  0.00     0.209 HD
ENDBRANCH  16  17
ENDBRANCH  15  16
BRANCH  15  19
HETATM   19  C15 UNL     1      24.540   4.504  49.760  1.00  0.00     0.065 C 
BRANCH  19  20
HETATM   20  C16 UNL     1      23.521   4.111  48.770  1.00  0.00    -0.056 A 
HETATM   21  C17 UNL     1      22.939   4.950  47.817  1.00  0.00     0.007 A 
HETATM   22  C18 UNL     1      21.992   4.622  46.881  1.00  0.00     0.001 A 
HETATM   23  C19 UNL     1      21.577   3.316  46.889  1.00  0.00     0.000 A 
HETATM   24  C20 UNL     1      22.093   2.429  47.784  1.00  0.00     0.001 A 
HETATM   25  C21 UNL     1      23.043   2.796  48.710  1.00  0.00     0.007 A 
ENDBRANCH  19  20
ENDBRANCH  15  19
ENDBRANCH  13  15
ENDBRANCH   9  13
BRANCH   1  26
HETATM   26  C6  UNL     1      19.972   3.482  51.708  1.00  0.00     0.153 C 
HETATM   27  O1  UNL     1      18.746   3.623  51.945  1.00  0.00    -0.293 OA
BRANCH  26  28
HETATM   28  C5  UNL     1      20.513   4.671  51.014  1.00  0.00     0.048 C 
HETATM   29  C4  UNL     1      19.728   5.277  50.109  1.00  0.00     0.007 C 
BRANCH  29  30
HETATM   30  C3  UNL     1      20.079   6.477  49.307  1.00  0.00     0.299 C 
BRANCH  30  31
HETATM   31  N1  UNL     1      20.532   7.596  50.099  1.00  0.00     0.083 N 
HETATM   32  C1  UNL     1      19.727   8.784  49.873  1.00  0.00     0.309 C 
HETATM   33  C2  UNL     1      21.944   7.863  49.918  1.00  0.00     0.309 C 
ENDBRANCH  30  31
ENDBRANCH  29  30
ENDBRANCH  26  28
ENDBRANCH   1  26
TORSDOF 10
ENDMDL
MODEL 8
REMARK VINA RESULT:      -8.2      2.382      5.309
REMARK  10 active torsions:
REMARK  status: ('A' for Active; 'I' for Inactive)
REMARK    1  A    between atoms: N1_2  and  C3_4 
REMARK    2  A    between atoms: C3_4  and  C4_5 
REMARK    3  A    between atoms: C5_6  and  C6_7 
REMARK    4  A    between atoms: C6_7  and  C7_9 
REMARK    5  A    between atoms: C12_17  and  N4_18 
REMARK    6  A    between atoms: N4_18  and  C13_19 
REMARK    7  A    between atoms: C13_19  and  C14_20 
REMARK    8  A    between atoms: C13_19  and  C15_22 
REMARK    9  A    between atoms: C14_20  and  O2_21 
REMARK   10  A    between atoms: C15_22  and  C16_23 
ROOT
HETATM    1  C7  UNL     1      24.912   3.133  50.794  1.00  0.00     0.069 C 
HETATM    2  C8  UNL     1      26.378   2.754  50.733  1.00  0.00     0.059 C 
HETATM    3  C9  UNL     1      26.415   1.896  51.975  1.00  0.00    -0.007 A 
HETATM    4  S1  UNL     1      27.462   1.343  53.336  1.00  0.00    -0.073 SA
HETATM    5  C10 UNL     1      26.206   0.347  54.107  1.00  0.00     0.114 A 
HETATM    6  N2  UNL     1      26.349  -0.373  55.225  1.00  0.00    -0.234 NA
HETATM    7  C11 UNL     1      25.315  -1.077  55.687  1.00  0.00     0.236 A 
HETATM    8  N3  UNL     1      24.242  -0.958  54.940  1.00  0.00    -0.224 NA
HETATM    9  C12 UNL     1      24.080  -0.246  53.822  1.00  0.00     0.139 A 
HETATM   10  C22 UNL     1      25.120   0.496  53.310  1.00  0.00     0.053 A 
HETATM   11  C23 UNL     1      25.154   1.286  52.187  1.00  0.00    -0.027 A 
HETATM   12  C24 UNL     1      24.328   1.766  51.056  1.00  0.00     0.053 C 
ENDROOT
BRANCH   9  13
HETATM   13  N4  UNL     1      22.781  -0.397  53.294  1.00  0.00    -0.367 N 
HETATM   14  H15 UNL     1      22.618  -1.219  52.718  1.00  0.00     0.161 HD
BRANCH  13  15
HETATM   15  C13 UNL     1      21.628   0.499  53.499  1.00  0.00     0.111 C 
BRANCH  15  16
HETATM   16  C14 UNL     1      20.751   0.027  54.602  1.00  0.00     0.189 C 
BRANCH  16  17
HETATM   17  O2  UNL     1      21.102  -1.257  54.997  1.00  0.00    -0.399 OA
HETATM   18  H19 UNL     1      20.373  -1.913  54.839  1.00  0.00     0.209 HD
ENDBRANCH  16  17
ENDBRANCH  15  16
BRANCH  15  19
HETATM   19  C15 UNL     1      20.862   0.680  52.237  1.00  0.00     0.065 C 
BRANCH  19  20
HETATM   20  C16 UNL     1      20.689   2.062  51.755  1.00  0.00    -0.056 A 
HETATM   21  C17 UNL     1      21.393   3.180  52.204  1.00  0.00     0.007 A 
HETATM   22  C18 UNL     1      21.262   4.478  51.780  1.00  0.00     0.001 A 
HETATM   23  C19 UNL     1      20.327   4.691  50.801  1.00  0.00     0.000 A 
HETATM   24  C20 UNL     1      19.594   3.656  50.304  1.00  0.00     0.001 A 
HETATM   25  C21 UNL     1      19.755   2.365  50.756  1.00  0.00     0.007 A 
ENDBRANCH  19  20
ENDBRANCH  15  19
ENDBRANCH  13  15
ENDBRANCH   9  13
BRANCH   1  26
HETATM   26  C6  UNL     1      24.416   3.822  49.614  1.00  0.00     0.153 C 
HETATM   27  O1  UNL     1      24.627   4.869  48.952  1.00  0.00    -0.293 OA
BRANCH  26  28
HETATM   28  C5  UNL     1      23.319   3.031  49.013  1.00  0.00     0.048 C 
HETATM   29  C4  UNL     1      22.626   3.589  48.008  1.00  0.00     0.007 C 
BRANCH  29  30
HETATM   30  C3  UNL     1      21.494   2.969  47.272  1.00  0.00     0.299 C 
BRANCH  30  31
HETATM   31  N1  UNL     1      20.910   3.829  46.271  1.00  0.00     0.083 N 
HETATM   32  C1  UNL     1      21.878   4.233  45.268  1.00  0.00     0.309 C 
HETATM   33  C2  UNL     1      20.231   4.970  46.852  1.00  0.00     0.309 C 
ENDBRANCH  30  31
ENDBRANCH  29  30
ENDBRANCH  26  28
ENDBRANCH   1  26
TORSDOF 10
ENDMDL
MODEL 9
REMARK VINA RESULT:      -8.2      2.261      5.642
REMARK  10 active torsions:
REMARK  status: ('A' for Active; 'I' for Inactive)
REMARK    1  A    between atoms: N1_2  and  C3_4 
REMARK    2  A    between atoms: C3_4  and  C4_5 
REMARK    3  A    between atoms: C5_6  and  C6_7 
REMARK    4  A    between atoms: C6_7  and  C7_9 
REMARK    5  A    between atoms: C12_17  and  N4_18 
REMARK    6  A    between atoms: N4_18  and  C13_19 
REMARK    7  A    between atoms: C13_19  and  C14_20 
REMARK    8  A    between atoms: C13_19  and  C15_22 
REMARK    9  A    between atoms: C14_20  and  O2_21 
REMARK   10  A    between atoms: C15_22  and  C16_23 
ROOT
HETATM    1  C7  UNL     1      22.846  -0.428  54.084  1.00  0.00     0.069 C 
HETATM    2  C8  UNL     1      21.862  -1.576  54.179  1.00  0.00     0.059 C 
HETATM    3  C9  UNL     1      20.720  -0.923  53.438  1.00  0.00    -0.007 A 
HETATM    4  S1  UNL     1      18.922  -0.841  53.306  1.00  0.00    -0.073 SA
HETATM    5  C10 UNL     1      18.914   0.373  52.007  1.00  0.00     0.114 A 
HETATM    6  N2  UNL     1      17.829   0.894  51.423  1.00  0.00    -0.234 NA
HETATM    7  C11 UNL     1      17.978   1.799  50.454  1.00  0.00     0.236 A 
HETATM    8  N3  UNL     1      19.236   2.067  50.196  1.00  0.00    -0.224 NA
HETATM    9  C12 UNL     1      20.331   1.559  50.765  1.00  0.00     0.139 A 
HETATM   10  C22 UNL     1      20.225   0.624  51.769  1.00  0.00     0.053 A 
HETATM   11  C23 UNL     1      21.218  -0.011  52.474  1.00  0.00    -0.027 A 
HETATM   12  C24 UNL     1      22.689  -0.107  52.616  1.00  0.00     0.053 C 
ENDROOT
BRANCH   9  13
HETATM   13  N4  UNL     1      21.507   2.084  50.190  1.00  0.00    -0.367 N 
HETATM   14  H15 UNL     1      21.808   1.666  49.314  1.00  0.00     0.161 HD
BRANCH  13  15
HETATM   15  C13 UNL     1      22.339   3.182  50.715  1.00  0.00     0.111 C 
BRANCH  15  16
HETATM   16  C14 UNL     1      21.636   3.948  51.777  1.00  0.00     0.189 C 
BRANCH  16  17
HETATM   17  O2  UNL     1      20.693   4.805  51.227  1.00  0.00    -0.399 OA
HETATM   18  H19 UNL     1      20.287   4.436  50.399  1.00  0.00     0.209 HD
ENDBRANCH  16  17
ENDBRANCH  15  16
BRANCH  15  19
HETATM   19  C15 UNL     1      22.798   4.075  49.616  1.00  0.00     0.065 C 
BRANCH  19  20
HETATM   20  C16 UNL     1      24.253   4.220  49.439  1.00  0.00    -0.056 A 
HETATM   21  C17 UNL     1      25.209   3.230  49.673  1.00  0.00     0.007 A 
HETATM   22  C18 UNL     1      26.569   3.326  49.519  1.00  0.00     0.001 A 
HETATM   23  C19 UNL     1      27.032   4.539  49.083  1.00  0.00     0.000 A 
HETATM   24  C20 UNL     1      26.169   5.562  48.830  1.00  0.00     0.001 A 
HETATM   25  C21 UNL     1      24.810   5.427  48.997  1.00  0.00     0.007 A 
ENDBRANCH  19  20
ENDBRANCH  15  19
ENDBRANCH  13  15
ENDBRANCH   9  13
BRANCH   1  26
HETATM   26  C6  UNL     1      24.194  -0.748  54.524  1.00  0.00     0.153 C 
HETATM   27  O1  UNL     1      24.783  -1.339  55.463  1.00  0.00    -0.293 OA
BRANCH  26  28
HETATM   28  C5  UNL     1      25.167  -0.202  53.552  1.00  0.00     0.048 C 
HETATM   29  C4  UNL     1      26.452  -0.566  53.686  1.00  0.00     0.007 C 
BRANCH  29  30
HETATM   30  C3  UNL     1      27.580  -0.133  52.821  1.00  0.00     0.299 C 
BRANCH  30  31
HETATM   31  N1  UNL     1      28.551   0.692  53.500  1.00  0.00     0.083 N 
HETATM   32  C1  UNL     1      28.709   0.313  54.893  1.00  0.00     0.309 C 
HETATM   33  C2  UNL     1      28.268   2.106  53.357  1.00  0.00     0.309 C 
ENDBRANCH  30  31
ENDBRANCH  29  30
ENDBRANCH  26  28
ENDBRANCH   1  26
TORSDOF 10
ENDMDL
