MODEL 1
REMARK VINA RESULT:      -8.1      0.000      0.000
REMARK  2 active torsions:
REMARK  status: ('A' for Active; 'I' for Inactive)
REMARK    1  A    between atoms: C2_2  and  N1_4 
REMARK    2  A    between atoms: N1_4  and  C4_5 
ROOT
HETATM    1  C4  UNL     1      26.585   2.838  50.989  1.00  0.00     0.113 C 
HETATM    2  C5  UNL     1      25.808   2.489  51.997  1.00  0.00     0.090 C 
HETATM    3  N2  UNL     1      24.364   2.724  51.869  1.00  0.00    -0.064 NA
HETATM    4  C6  UNL     1      23.521   1.862  52.419  1.00  0.00     0.729 A 
HETATM    5  N3  UNL     1      22.088   2.053  52.329  1.00  0.00    -0.075 NA
HETATM    6  C7  UNL     1      21.280   1.209  52.876  1.00  0.00     0.138 A 
HETATM    7  C8  UNL     1      21.762   0.020  53.611  1.00  0.00     0.038 A 
HETATM    8  C9  UNL     1      23.063  -0.223  53.733  1.00  0.00     0.111 A 
HETATM    9  N4  UNL     1      23.955   0.677  53.149  1.00  0.00    -0.179 N 
HETATM   10  C10 UNL     1      25.334   0.484  53.134  1.00  0.00     0.156 C 
HETATM   11  C11 UNL     1      26.017  -0.525  53.964  1.00  0.00     0.011 C 
HETATM   12  C12 UNL     1      27.245  -0.054  54.228  1.00  0.00    -0.026 C 
HETATM   13  C13 UNL     1      28.507   0.298  55.005  1.00  0.00     0.140 C 
HETATM   14  N5  UNL     1      28.641   1.574  54.386  1.00  0.00    -0.210 NA
HETATM   15  N6  UNL     1      27.283   1.831  53.912  1.00  0.00    -0.192 NA
HETATM   16  C14 UNL     1      27.793   0.736  53.016  1.00  0.00     0.156 C 
HETATM   17  C15 UNL     1      25.941   1.903  53.287  1.00  0.00     0.163 C 
ENDROOT
BRANCH   1  18
HETATM   18  N1  UNL     1      26.036   3.424  49.822  1.00  0.00    -0.393 N 
HETATM   19  H8  UNL     1      25.414   2.807  49.220  1.00  0.00     0.159 HD
BRANCH  18  20
HETATM   20  C2  UNL     1      26.332   4.792  49.504  1.00  0.00     0.072 C 
HETATM   21  C1  UNL     1      27.526   4.964  48.622  1.00  0.00     0.031 C 
HETATM   22  C3  UNL     1      25.065   5.416  48.931  1.00  0.00     0.031 C 
ENDBRANCH  18  20
ENDBRANCH   1  18
TORSDOF 2
ENDMDL
MODEL 2
REMARK VINA RESULT:      -7.6      1.626      5.045
REMARK  2 active torsions:
REMARK  status: ('A' for Active; 'I' for Inactive)
REMARK    1  A    between atoms: C2_2  and  N1_4 
REMARK    2  A    between atoms: N1_4  and  C4_5 
ROOT
HETATM    1  C4  UNL     1      23.418   0.257  53.649  1.00  0.00     0.113 C 
HETATM    2  C5  UNL     1      24.128   0.626  52.599  1.00  0.00     0.090 C 
HETATM    3  N2  UNL     1      23.447   1.370  51.533  1.00  0.00    -0.064 NA
HETATM    4  C6  UNL     1      24.115   2.306  50.874  1.00  0.00     0.729 A 
HETATM    5  N3  UNL     1      23.492   3.063  49.807  1.00  0.00    -0.075 NA
HETATM    6  C7  UNL     1      24.158   3.966  49.171  1.00  0.00     0.138 A 
HETATM    7  C8  UNL     1      25.569   4.276  49.489  1.00  0.00     0.038 A 
HETATM    8  C9  UNL     1      26.206   3.624  50.457  1.00  0.00     0.111 A 
HETATM    9  N4  UNL     1      25.505   2.643  51.158  1.00  0.00    -0.179 N 
HETATM   10  C10 UNL     1      26.036   1.957  52.248  1.00  0.00     0.156 C 
HETATM   11  C11 UNL     1      27.467   1.983  52.598  1.00  0.00     0.011 C 
HETATM   12  C12 UNL     1      27.751   0.813  53.192  1.00  0.00    -0.026 C 
HETATM   13  C13 UNL     1      28.491  -0.469  53.547  1.00  0.00     0.140 C 
HETATM   14  N5  UNL     1      27.302  -1.252  53.586  1.00  0.00    -0.210 NA
HETATM   15  N6  UNL     1      26.381  -0.454  52.778  1.00  0.00    -0.192 NA
HETATM   16  C14 UNL     1      26.552   0.336  54.046  1.00  0.00     0.156 C 
HETATM   17  C15 UNL     1      25.468   0.519  52.133  1.00  0.00     0.163 C 
ENDROOT
BRANCH   1  18
HETATM   18  N1  UNL     1      22.040   0.572  53.737  1.00  0.00    -0.393 N 
HETATM   19  H8  UNL     1      21.735   1.514  53.352  1.00  0.00     0.159 HD
BRANCH  18  20
HETATM   20  C2  UNL     1      21.130  -0.369  54.325  1.00  0.00     0.072 C 
HETATM   21  C1  UNL     1      19.901  -0.615  53.509  1.00  0.00     0.031 C 
HETATM   22  C3  UNL     1      21.914  -1.640  54.629  1.00  0.00     0.031 C 
ENDBRANCH  18  20
ENDBRANCH   1  18
TORSDOF 2
ENDMDL
MODEL 3
REMARK VINA RESULT:      -7.6      1.600      5.912
REMARK  2 active torsions:
REMARK  status: ('A' for Active; 'I' for Inactive)
REMARK    1  A    between atoms: C2_2  and  N1_4 
REMARK    2  A    between atoms: N1_4  and  C4_5 
ROOT
HETATM    1  C4  UNL     1      23.142   0.347  52.532  1.00  0.00     0.113 C 
HETATM    2  C5  UNL     1      24.213   0.980  52.976  1.00  0.00     0.090 C 
HETATM    3  N2  UNL     1      25.047   0.304  53.977  1.00  0.00    -0.064 NA
HETATM    4  C6  UNL     1      26.360   0.492  53.952  1.00  0.00     0.729 A 
HETATM    5  N3  UNL     1      27.227  -0.144  54.922  1.00  0.00    -0.075 NA
HETATM    6  C7  UNL     1      28.502   0.054  54.889  1.00  0.00     0.138 A 
HETATM    7  C8  UNL     1      29.138   0.925  53.876  1.00  0.00     0.038 A 
HETATM    8  C9  UNL     1      28.406   1.540  52.953  1.00  0.00     0.111 A 
HETATM    9  N4  UNL     1      27.026   1.339  52.970  1.00  0.00    -0.179 N 
HETATM   10  C10 UNL     1      26.166   1.858  52.004  1.00  0.00     0.156 C 
HETATM   11  C11 UNL     1      26.572   2.892  51.035  1.00  0.00     0.011 C 
HETATM   12  C12 UNL     1      25.476   3.607  50.737  1.00  0.00    -0.026 C 
HETATM   13  C13 UNL     1      24.582   4.808  50.458  1.00  0.00     0.140 C 
HETATM   14  N5  UNL     1      23.488   4.281  51.201  1.00  0.00    -0.210 NA
HETATM   15  N6  UNL     1      24.148   3.318  52.082  1.00  0.00    -0.192 NA
HETATM   16  C14 UNL     1      24.226   2.695  50.715  1.00  0.00     0.156 C 
HETATM   17  C15 UNL     1      24.871   2.225  52.772  1.00  0.00     0.163 C 
ENDROOT
BRANCH   1  18
HETATM   18  N1  UNL     1      22.815  -0.945  53.012  1.00  0.00    -0.393 N 
HETATM   19  H8  UNL     1      23.336  -1.765  52.582  1.00  0.00     0.159 HD
BRANCH  18  20
HETATM   20  C2  UNL     1      21.820  -1.094  54.035  1.00  0.00     0.072 C 
HETATM   21  C1  UNL     1      22.369  -1.529  55.356  1.00  0.00     0.031 C 
HETATM   22  C3  UNL     1      21.037   0.212  54.110  1.00  0.00     0.031 C 
ENDBRANCH  18  20
ENDBRANCH   1  18
TORSDOF 2
ENDMDL
MODEL 4
REMARK VINA RESULT:      -7.5      1.970      2.614
REMARK  2 active torsions:
REMARK  status: ('A' for Active; 'I' for Inactive)
REMARK    1  A    between atoms: C2_2  and  N1_4 
REMARK    2  A    between atoms: N1_4  and  C4_5 
ROOT
HETATM    1  C4  UNL     1      24.162   2.672  50.605  1.00  0.00     0.113 C 
HETATM    2  C5  UNL     1      24.047   2.193  51.830  1.00  0.00     0.090 C 
HETATM    3  N2  UNL     1      22.696   2.017  52.378  1.00  0.00    -0.064 NA
HETATM    4  C6  UNL     1      22.460   0.997  53.192  1.00  0.00     0.729 A 
HETATM    5  N3  UNL     1      21.147   0.784  53.766  1.00  0.00    -0.075 NA
HETATM    6  C7  UNL     1      20.935  -0.210  54.562  1.00  0.00     0.138 A 
HETATM    7  C8  UNL     1      22.000  -1.170  54.924  1.00  0.00     0.038 A 
HETATM    8  C9  UNL     1      23.229  -1.039  54.434  1.00  0.00     0.111 A 
HETATM    9  N4  UNL     1      23.480   0.028  53.572  1.00  0.00    -0.179 N 
HETATM   10  C10 UNL     1      24.701   0.217  52.927  1.00  0.00     0.156 C 
HETATM   11  C11 UNL     1      25.930  -0.509  53.296  1.00  0.00     0.011 C 
HETATM   12  C12 UNL     1      26.965   0.295  53.011  1.00  0.00    -0.026 C 
HETATM   13  C13 UNL     1      28.290   1.030  53.161  1.00  0.00     0.140 C 
HETATM   14  N5  UNL     1      27.779   2.249  52.630  1.00  0.00    -0.210 NA
HETATM   15  N6  UNL     1      26.340   2.093  52.833  1.00  0.00    -0.192 NA
HETATM   16  C14 UNL     1      26.673   1.121  51.735  1.00  0.00     0.156 C 
HETATM   17  C15 UNL     1      24.898   1.754  52.883  1.00  0.00     0.163 C 
ENDROOT
BRANCH   1  18
HETATM   18  N1  UNL     1      23.012   3.005  49.848  1.00  0.00    -0.393 N 
HETATM   19  H8  UNL     1      22.485   3.883  50.132  1.00  0.00     0.159 HD
BRANCH  18  20
HETATM   20  C2  UNL     1      22.612   2.167  48.753  1.00  0.00     0.072 C 
HETATM   21  C1  UNL     1      21.498   1.228  49.085  1.00  0.00     0.031 C 
HETATM   22  C3  UNL     1      22.302   3.074  47.569  1.00  0.00     0.031 C 
ENDBRANCH  18  20
ENDBRANCH   1  18
TORSDOF 2
ENDMDL
MODEL 5
REMARK VINA RESULT:      -7.5      1.696      4.725
REMARK  2 active torsions:
REMARK  status: ('A' for Active; 'I' for Inactive)
REMARK    1  A    between atoms: C2_2  and  N1_4 
REMARK    2  A    between atoms: N1_4  and  C4_5 
ROOT
HETATM    1  C4  UNL     1      26.275   1.646  53.432  1.00  0.00     0.113 C 
HETATM    2  C5  UNL     1      25.135   1.154  52.983  1.00  0.00     0.090 C 
HETATM    3  N2  UNL     1      24.574  -0.018  53.666  1.00  0.00    -0.064 NA
HETATM    4  C6  UNL     1      23.257  -0.134  53.768  1.00  0.00     0.729 A 
HETATM    5  N3  UNL     1      22.653  -1.275  54.424  1.00  0.00    -0.075 NA
HETATM    6  C7  UNL     1      21.369  -1.377  54.509  1.00  0.00     0.138 A 
HETATM    7  C8  UNL     1      20.460  -0.352  53.953  1.00  0.00     0.038 A 
HETATM    8  C9  UNL     1      20.942   0.724  53.338  1.00  0.00     0.111 A 
HETATM    9  N4  UNL     1      22.327   0.854  53.236  1.00  0.00    -0.179 N 
HETATM   10  C10 UNL     1      22.950   1.976  52.694  1.00  0.00     0.156 C 
HETATM   11  C11 UNL     1      22.230   3.006  51.924  1.00  0.00     0.011 C 
HETATM   12  C12 UNL     1      23.101   3.523  51.045  1.00  0.00    -0.026 C 
HETATM   13  C13 UNL     1      23.667   4.057  49.735  1.00  0.00     0.140 C 
HETATM   14  N5  UNL     1      24.919   3.396  49.902  1.00  0.00    -0.210 NA
HETATM   15  N6  UNL     1      24.581   2.330  50.842  1.00  0.00    -0.192 NA
HETATM   16  C14 UNL     1      24.518   3.588  51.662  1.00  0.00     0.156 C 
HETATM   17  C15 UNL     1      24.194   1.425  51.951  1.00  0.00     0.163 C 
ENDROOT
BRANCH   1  18
HETATM   18  N1  UNL     1      26.932   1.056  54.539  1.00  0.00    -0.393 N 
HETATM   19  H8  UNL     1      26.328   0.789  55.372  1.00  0.00     0.159 HD
BRANCH  18  20
HETATM   20  C2  UNL     1      28.351   0.844  54.496  1.00  0.00     0.072 C 
HETATM   21  C1  UNL     1      28.754  -0.418  53.806  1.00  0.00     0.031 C 
HETATM   22  C3  UNL     1      28.984   2.090  53.890  1.00  0.00     0.031 C 
ENDBRANCH  18  20
ENDBRANCH   1  18
TORSDOF 2
ENDMDL
MODEL 6
REMARK VINA RESULT:      -7.4      1.632      5.231
REMARK  2 active torsions:
REMARK  status: ('A' for Active; 'I' for Inactive)
REMARK    1  A    between atoms: C2_2  and  N1_4 
REMARK    2  A    between atoms: N1_4  and  C4_5 
ROOT
HETATM    1  C4  UNL     1      25.904  -0.423  53.096  1.00  0.00     0.113 C 
HETATM    2  C5  UNL     1      25.134   0.610  52.806  1.00  0.00     0.090 C 
HETATM    3  N2  UNL     1      25.741   1.746  52.101  1.00  0.00    -0.064 NA
HETATM    4  C6  UNL     1      25.012   2.420  51.223  1.00  0.00     0.729 A 
HETATM    5  N3  UNL     1      25.560   3.554  50.507  1.00  0.00    -0.075 NA
HETATM    6  C7  UNL     1      24.836   4.205  49.659  1.00  0.00     0.138 A 
HETATM    7  C8  UNL     1      23.432   3.835  49.376  1.00  0.00     0.038 A 
HETATM    8  C9  UNL     1      22.862   2.805  49.992  1.00  0.00     0.111 A 
HETATM    9  N4  UNL     1      23.627   2.088  50.912  1.00  0.00    -0.179 N 
HETATM   10  C10 UNL     1      23.170   0.939  51.554  1.00  0.00     0.156 C 
HETATM   11  C11 UNL     1      21.756   0.522  51.552  1.00  0.00     0.011 C 
HETATM   12  C12 UNL     1      21.539  -0.146  52.695  1.00  0.00    -0.026 C 
HETATM   13  C13 UNL     1      20.858  -0.603  53.978  1.00  0.00     0.140 C 
HETATM   14  N5  UNL     1      22.073  -0.627  54.722  1.00  0.00    -0.210 NA
HETATM   15  N6  UNL     1      22.928   0.265  53.942  1.00  0.00    -0.192 NA
HETATM   16  C14 UNL     1      22.790  -0.965  53.089  1.00  0.00     0.156 C 
HETATM   17  C15 UNL     1      23.778   1.005  52.978  1.00  0.00     0.163 C 
ENDROOT
BRANCH   1  18
HETATM   18  N1  UNL     1      27.274  -0.427  52.735  1.00  0.00    -0.393 N 
HETATM   19  H8  UNL     1      27.500  -0.381  51.698  1.00  0.00     0.159 HD
BRANCH  18  20
HETATM   20  C2  UNL     1      28.279  -0.490  53.757  1.00  0.00     0.072 C 
HETATM   21  C1  UNL     1      29.417  -1.404  53.433  1.00  0.00     0.031 C 
HETATM   22  C3  UNL     1      28.721   0.937  54.058  1.00  0.00     0.031 C 
ENDBRANCH  18  20
ENDBRANCH   1  18
TORSDOF 2
ENDMDL
MODEL 7
REMARK VINA RESULT:      -7.3      1.453      4.386
REMARK  2 active torsions:
REMARK  status: ('A' for Active; 'I' for Inactive)
REMARK    1  A    between atoms: C2_2  and  N1_4 
REMARK    2  A    between atoms: N1_4  and  C4_5 
ROOT
HETATM    1  C4  UNL     1      24.245   4.190  50.902  1.00  0.00     0.113 C 
HETATM    2  C5  UNL     1      24.752   3.013  51.222  1.00  0.00     0.090 C 
HETATM    3  N2  UNL     1      26.197   2.929  51.465  1.00  0.00    -0.064 NA
HETATM    4  C6  UNL     1      26.646   2.087  52.386  1.00  0.00     0.729 A 
HETATM    5  N3  UNL     1      28.063   1.958  52.658  1.00  0.00    -0.075 NA
HETATM    6  C7  UNL     1      28.484   1.130  53.553  1.00  0.00     0.138 A 
HETATM    7  C8  UNL     1      27.561   0.280  54.337  1.00  0.00     0.038 A 
HETATM    8  C9  UNL     1      26.248   0.344  54.143  1.00  0.00     0.111 A 
HETATM    9  N4  UNL     1      25.771   1.235  53.181  1.00  0.00    -0.179 N 
HETATM   10  C10 UNL     1      24.414   1.455  52.951  1.00  0.00     0.156 C 
HETATM   11  C11 UNL     1      23.353   0.582  53.485  1.00  0.00     0.011 C 
HETATM   12  C12 UNL     1      22.328   0.631  52.621  1.00  0.00    -0.026 C 
HETATM   13  C13 UNL     1      21.179   0.168  51.736  1.00  0.00     0.140 C 
HETATM   14  N5  UNL     1      21.539   1.030  50.661  1.00  0.00    -0.210 NA
HETATM   15  N6  UNL     1      22.948   1.298  50.941  1.00  0.00    -0.192 NA
HETATM   16  C14 UNL     1      22.203   2.047  52.011  1.00  0.00     0.156 C 
HETATM   17  C15 UNL     1      24.297   1.680  51.422  1.00  0.00     0.163 C 
ENDROOT
BRANCH   1  18
HETATM   18  N1  UNL     1      25.076   5.332  50.798  1.00  0.00    -0.393 N 
HETATM   19  H8  UNL     1      25.471   5.725  51.704  1.00  0.00     0.159 HD
BRANCH  18  20
HETATM   20  C2  UNL     1      25.350   5.899  49.509  1.00  0.00     0.072 C 
HETATM   21  C1  UNL     1      26.625   5.420  48.894  1.00  0.00     0.031 C 
HETATM   22  C3  UNL     1      24.129   5.655  48.630  1.00  0.00     0.031 C 
ENDBRANCH  18  20
ENDBRANCH   1  18
TORSDOF 2
ENDMDL
MODEL 8
REMARK VINA RESULT:      -7.1      1.921      4.576
REMARK  2 active torsions:
REMARK  status: ('A' for Active; 'I' for Inactive)
REMARK    1  A    between atoms: C2_2  and  N1_4 
REMARK    2  A    between atoms: N1_4  and  C4_5 
ROOT
HETATM    1  C4  UNL     1      23.822   3.328  52.099  1.00  0.00     0.113 C 
HETATM    2  C5  UNL     1      24.645   2.302  52.220  1.00  0.00     0.090 C 
HETATM    3  N2  UNL     1      26.088   2.562  52.134  1.00  0.00    -0.064 NA
HETATM    4  C6  UNL     1      26.916   1.840  52.875  1.00  0.00     0.729 A 
HETATM    5  N3  UNL     1      28.349   2.050  52.820  1.00  0.00    -0.075 NA
HETATM    6  C7  UNL     1      29.143   1.335  53.543  1.00  0.00     0.138 A 
HETATM    7  C8  UNL     1      28.644   0.280  54.453  1.00  0.00     0.038 A 
HETATM    8  C9  UNL     1      27.343   0.031  54.557  1.00  0.00     0.111 A 
HETATM    9  N4  UNL     1      26.467   0.794  53.785  1.00  0.00    -0.179 N 
HETATM   10  C10 UNL     1      25.080   0.687  53.874  1.00  0.00     0.156 C 
HETATM   11  C11 UNL     1      24.399  -0.420  54.569  1.00  0.00     0.011 C 
HETATM   12  C12 UNL     1      23.220  -0.607  53.957  1.00  0.00    -0.026 C 
HETATM   13  C13 UNL     1      22.037  -1.320  53.317  1.00  0.00     0.140 C 
HETATM   14  N5  UNL     1      21.933  -0.384  52.249  1.00  0.00    -0.210 NA
HETATM   15  N6  UNL     1      23.269   0.210  52.229  1.00  0.00    -0.192 NA
HETATM   16  C14 UNL     1      22.637   0.746  53.484  1.00  0.00     0.156 C 
HETATM   17  C15 UNL     1      24.567   0.897  52.426  1.00  0.00     0.163 C 
ENDROOT
BRANCH   1  18
HETATM   18  N1  UNL     1      24.323   4.636  51.890  1.00  0.00    -0.393 N 
HETATM   19  H8  UNL     1      25.264   4.868  52.327  1.00  0.00     0.159 HD
BRANCH  18  20
HETATM   20  C2  UNL     1      23.563   5.575  51.116  1.00  0.00     0.072 C 
HETATM   21  C1  UNL     1      22.111   5.617  51.470  1.00  0.00     0.031 C 
HETATM   22  C3  UNL     1      24.249   6.931  51.233  1.00  0.00     0.031 C 
ENDBRANCH  18  20
ENDBRANCH   1  18
TORSDOF 2
ENDMDL
MODEL 9
REMARK VINA RESULT:      -6.8      2.091      4.949
REMARK  2 active torsions:
REMARK  status: ('A' for Active; 'I' for Inactive)
REMARK    1  A    between atoms: C2_2  and  N1_4 
REMARK    2  A    between atoms: N1_4  and  C4_5 
ROOT
HETATM    1  C4  UNL     1      22.291   3.256  51.857  1.00  0.00     0.113 C 
HETATM    2  C5  UNL     1      22.842   2.055  51.841  1.00  0.00     0.090 C 
HETATM    3  N2  UNL     1      24.263   1.954  51.485  1.00  0.00    -0.064 NA
HETATM    4  C6  UNL     1      25.008   1.028  52.071  1.00  0.00     0.729 A 
HETATM    5  N3  UNL     1      26.413   0.880  51.749  1.00  0.00    -0.075 NA
HETATM    6  C7  UNL     1      27.123  -0.031  52.324  1.00  0.00     0.138 A 
HETATM    7  C8  UNL     1      26.554  -0.958  53.327  1.00  0.00     0.038 A 
HETATM    8  C9  UNL     1      25.274  -0.881  53.675  1.00  0.00     0.111 A 
HETATM    9  N4  UNL     1      24.488   0.098  53.066  1.00  0.00    -0.179 N 
HETATM   10  C10 UNL     1      23.159   0.333  53.411  1.00  0.00     0.156 C 
HETATM   11  C11 UNL     1      22.364  -0.593  54.238  1.00  0.00     0.011 C 
HETATM   12  C12 UNL     1      21.084  -0.464  53.858  1.00  0.00    -0.026 C 
HETATM   13  C13 UNL     1      19.664  -0.844  53.459  1.00  0.00     0.140 C 
HETATM   14  N5  UNL     1      19.601   0.122  52.414  1.00  0.00    -0.210 NA
HETATM   15  N6  UNL     1      21.016   0.368  52.138  1.00  0.00    -0.192 NA
HETATM   16  C14 UNL     1      20.777   1.005  53.479  1.00  0.00     0.156 C 
HETATM   17  C15 UNL     1      22.457   0.707  52.080  1.00  0.00     0.163 C 
ENDROOT
BRANCH   1  18
HETATM   18  N1  UNL     1      23.054   4.406  51.539  1.00  0.00    -0.393 N 
HETATM   19  H8  UNL     1      23.919   4.589  52.128  1.00  0.00     0.159 HD
BRANCH  18  20
HETATM   20  C2  UNL     1      22.641   5.258  50.461  1.00  0.00     0.072 C 
HETATM   21  C1  UNL     1      22.826   6.716  50.736  1.00  0.00     0.031 C 
HETATM   22  C3  UNL     1      23.359   4.788  49.201  1.00  0.00     0.031 C 
ENDBRANCH  18  20
ENDBRANCH   1  18
TORSDOF 2
ENDMDL
