MODEL 1
REMARK VINA RESULT:      -9.3      0.000      0.000
REMARK  4 active torsions:
REMARK  status: ('A' for Active; 'I' for Inactive)
REMARK    1  A    between atoms: C6_6  and  O1_7 
REMARK    2  A    between atoms: C7_8  and  C8_9 
REMARK    3  A    between atoms: C8_9  and  N1_10 
REMARK    4  A    between atoms: C14_16  and  O2_17 
ROOT
HETATM    1  N1  UNL     1      24.552   2.508  51.681  1.00  0.00    -0.400 N 
HETATM    2  C9  UNL     1      25.028   3.347  50.713  1.00  0.00     0.121 C 
HETATM    3  C10 UNL     1      26.307   2.913  49.998  1.00  0.00     0.046 C 
HETATM    4  C11 UNL     1      26.796   4.140  49.330  1.00  0.00    -0.025 C 
HETATM    5  C12 UNL     1      26.602   5.412  49.007  1.00  0.00    -0.001 C 
HETATM    6  C13 UNL     1      25.372   6.055  49.409  1.00  0.00     0.036 C 
HETATM    7  C14 UNL     1      24.248   6.706  49.761  1.00  0.00     0.065 C 
HETATM    8  C15 UNL     1      23.111   5.981  50.351  1.00  0.00     0.037 C 
HETATM    9  C16 UNL     1      22.463   4.897  50.766  1.00  0.00     0.012 C 
HETATM   10  C17 UNL     1      22.418   3.427  50.947  1.00  0.00    -0.035 C 
HETATM   11  C18 UNL     1      21.550   3.025  49.964  1.00  0.00     0.009 C 
HETATM   12  C19 UNL     1      21.112   1.631  49.684  1.00  0.00    -0.003 C 
HETATM   13  C20 UNL     1      21.697   0.850  50.570  1.00  0.00    -0.024 C 
HETATM   14  C21 UNL     1      22.609   1.076  51.683  1.00  0.00     0.057 C 
HETATM   15  C22 UNL     1      23.089   2.471  51.778  1.00  0.00     0.116 C 
ENDROOT
BRANCH   1  16
HETATM   16  C8  UNL     1      25.116   2.250  52.914  1.00  0.00     0.159 C 
BRANCH  16  17
HETATM   17  C7  UNL     1      26.226   1.320  53.072  1.00  0.00    -0.006 A 
HETATM   18  C6  UNL     1      27.459   1.630  53.616  1.00  0.00     0.079 A 
HETATM   19  C4  UNL     1      28.421   0.642  53.688  1.00  0.00    -0.028 A 
HETATM   20  C3  UNL     1      28.244  -0.654  53.249  1.00  0.00     0.016 A 
HETATM   21  C5  UNL     1      29.752   1.001  54.282  1.00  0.00     0.051 C 
HETATM   22  C2  UNL     1      26.995  -0.950  52.703  1.00  0.00    -0.061 A 
HETATM   23  C1  UNL     1      26.757  -2.340  52.216  1.00  0.00     0.048 C 
HETATM   24  C23 UNL     1      26.001   0.010  52.612  1.00  0.00     0.018 A 
BRANCH  18  25
HETATM   25  O1  UNL     1      27.679   2.921  54.068  1.00  0.00    -0.360 OA
HETATM   26  H8  UNL     1      28.200   3.582  53.511  1.00  0.00     0.217 HD
ENDBRANCH  18  25
ENDBRANCH  16  17
ENDBRANCH   1  16
BRANCH   7  27
HETATM   27  O2  UNL     1      23.932   8.087  49.606  1.00  0.00    -0.361 OA
HETATM   28  H18 UNL     1      22.981   8.323  49.851  1.00  0.00     0.217 HD
ENDBRANCH   7  27
TORSDOF 4
ENDMDL
MODEL 2
REMARK VINA RESULT:      -9.2      2.340      6.587
REMARK  4 active torsions:
REMARK  status: ('A' for Active; 'I' for Inactive)
REMARK    1  A    between atoms: C6_6  and  O1_7 
REMARK    2  A    between atoms: C7_8  and  C8_9 
REMARK    3  A    between atoms: C8_9  and  N1_10 
REMARK    4  A    between atoms: C14_16  and  O2_17 
ROOT
HETATM    1  N1  UNL     1      24.146   2.213  51.749  1.00  0.00    -0.400 N 
HETATM    2  C9  UNL     1      23.029   1.517  51.382  1.00  0.00     0.121 C 
HETATM    3  C10 UNL     1      22.580   1.656  49.927  1.00  0.00     0.046 C 
HETATM    4  C11 UNL     1      21.188   1.155  49.916  1.00  0.00    -0.025 C 
HETATM    5  C12 UNL     1      20.183   0.580  50.563  1.00  0.00    -0.001 C 
HETATM    6  C13 UNL     1      20.377   0.170  51.934  1.00  0.00     0.036 C 
HETATM    7  C14 UNL     1      20.500  -0.227  53.215  1.00  0.00     0.065 C 
HETATM    8  C15 UNL     1      21.809  -0.211  53.886  1.00  0.00     0.037 C 
HETATM    9  C16 UNL     1      23.124  -0.028  53.949  1.00  0.00     0.012 C 
HETATM   10  C17 UNL     1      24.397   0.336  53.282  1.00  0.00    -0.035 C 
HETATM   11  C18 UNL     1      25.021  -0.876  53.134  1.00  0.00     0.009 C 
HETATM   12  C19 UNL     1      26.359  -1.115  52.530  1.00  0.00    -0.003 C 
HETATM   13  C20 UNL     1      26.848   0.057  52.180  1.00  0.00    -0.024 C 
HETATM   14  C21 UNL     1      26.369   1.429  52.271  1.00  0.00     0.057 C 
HETATM   15  C22 UNL     1      24.975   1.536  52.752  1.00  0.00     0.116 C 
ENDROOT
BRANCH   1  16
HETATM   16  C8  UNL     1      24.274   3.581  51.873  1.00  0.00     0.159 C 
BRANCH  16  17
HETATM   17  C7  UNL     1      24.599   4.430  50.734  1.00  0.00    -0.006 A 
HETATM   18  C6  UNL     1      23.732   5.319  50.125  1.00  0.00     0.079 A 
HETATM   19  C4  UNL     1      24.181   6.048  49.042  1.00  0.00    -0.028 A 
HETATM   20  C3  UNL     1      25.450   5.956  48.510  1.00  0.00     0.016 A 
HETATM   21  C5  UNL     1      23.223   7.007  48.397  1.00  0.00     0.051 C 
HETATM   22  C2  UNL     1      26.312   5.056  49.136  1.00  0.00    -0.061 A 
HETATM   23  C1  UNL     1      27.696   4.922  48.596  1.00  0.00     0.048 C 
HETATM   24  C23 UNL     1      25.904   4.304  50.225  1.00  0.00     0.018 A 
BRANCH  18  25
HETATM   25  O1  UNL     1      22.446   5.442  50.628  1.00  0.00    -0.360 OA
HETATM   26  H8  UNL     1      22.280   5.451  51.624  1.00  0.00     0.217 HD
ENDBRANCH  18  25
ENDBRANCH  16  17
ENDBRANCH   1  16
BRANCH   7  27
HETATM   27  O2  UNL     1      19.498  -0.743  54.088  1.00  0.00    -0.361 OA
HETATM   28  H18 UNL     1      19.809  -0.875  55.040  1.00  0.00     0.217 HD
ENDBRANCH   7  27
TORSDOF 4
ENDMDL
MODEL 3
REMARK VINA RESULT:      -9.1      1.761      2.573
REMARK  4 active torsions:
REMARK  status: ('A' for Active; 'I' for Inactive)
REMARK    1  A    between atoms: C6_6  and  O1_7 
REMARK    2  A    between atoms: C7_8  and  C8_9 
REMARK    3  A    between atoms: C8_9  and  N1_10 
REMARK    4  A    between atoms: C14_16  and  O2_17 
ROOT
HETATM    1  N1  UNL     1      23.797   4.135  51.841  1.00  0.00    -0.400 N 
HETATM    2  C9  UNL     1      24.614   4.448  50.792  1.00  0.00     0.121 C 
HETATM    3  C10 UNL     1      25.309   3.281  50.091  1.00  0.00     0.046 C 
HETATM    4  C11 UNL     1      26.394   3.910  49.306  1.00  0.00    -0.025 C 
HETATM    5  C12 UNL     1      26.993   5.013  48.875  1.00  0.00    -0.001 C 
HETATM    6  C13 UNL     1      26.442   6.296  49.244  1.00  0.00     0.036 C 
HETATM    7  C14 UNL     1      25.975   7.519  49.560  1.00  0.00     0.065 C 
HETATM    8  C15 UNL     1      24.678   7.678  50.236  1.00  0.00     0.037 C 
HETATM    9  C16 UNL     1      23.536   7.245  50.761  1.00  0.00     0.012 C 
HETATM   10  C17 UNL     1      22.618   6.124  51.073  1.00  0.00    -0.035 C 
HETATM   11  C18 UNL     1      21.617   6.283  50.149  1.00  0.00     0.009 C 
HETATM   12  C19 UNL     1      20.402   5.436  50.004  1.00  0.00    -0.003 C 
HETATM   13  C20 UNL     1      20.452   4.514  50.944  1.00  0.00    -0.024 C 
HETATM   14  C21 UNL     1      21.389   4.197  52.012  1.00  0.00     0.057 C 
HETATM   15  C22 UNL     1      22.625   5.008  51.972  1.00  0.00     0.116 C 
ENDROOT
BRANCH   1  16
HETATM   16  C8  UNL     1      24.173   3.657  53.079  1.00  0.00     0.159 C 
BRANCH  16  17
HETATM   17  C7  UNL     1      24.514   2.257  53.292  1.00  0.00    -0.006 A 
HETATM   18  C6  UNL     1      25.761   1.783  53.658  1.00  0.00     0.079 A 
HETATM   19  C4  UNL     1      25.936   0.422  53.810  1.00  0.00    -0.028 A 
HETATM   20  C3  UNL     1      24.946  -0.520  53.619  1.00  0.00     0.016 A 
HETATM   21  C5  UNL     1      27.297  -0.069  54.208  1.00  0.00     0.051 C 
HETATM   22  C2  UNL     1      23.695  -0.025  53.250  1.00  0.00    -0.061 A 
HETATM   23  C1  UNL     1      22.592  -1.007  53.033  1.00  0.00     0.048 C 
HETATM   24  C23 UNL     1      23.474   1.332  53.087  1.00  0.00     0.018 A 
BRANCH  18  25
HETATM   25  O1  UNL     1      26.784   2.696  53.860  1.00  0.00    -0.360 OA
HETATM   26  H8  UNL     1      26.852   3.213  54.725  1.00  0.00     0.217 HD
ENDBRANCH  18  25
ENDBRANCH  16  17
ENDBRANCH   1  16
BRANCH   7  27
HETATM   27  O2  UNL     1      26.557   8.792  49.289  1.00  0.00    -0.361 OA
HETATM   28  H18 UNL     1      26.850   8.916  48.331  1.00  0.00     0.217 HD
ENDBRANCH   7  27
TORSDOF 4
ENDMDL
MODEL 4
REMARK VINA RESULT:      -9.1      2.019      2.911
REMARK  4 active torsions:
REMARK  status: ('A' for Active; 'I' for Inactive)
REMARK    1  A    between atoms: C6_6  and  O1_7 
REMARK    2  A    between atoms: C7_8  and  C8_9 
REMARK    3  A    between atoms: C8_9  and  N1_10 
REMARK    4  A    between atoms: C14_16  and  O2_17 
ROOT
HETATM    1  N1  UNL     1      24.246   3.287  50.296  1.00  0.00    -0.400 N 
HETATM    2  C9  UNL     1      25.166   3.977  49.559  1.00  0.00     0.121 C 
HETATM    3  C10 UNL     1      26.561   3.362  49.453  1.00  0.00     0.046 C 
HETATM    4  C11 UNL     1      27.421   4.466  48.972  1.00  0.00    -0.025 C 
HETATM    5  C12 UNL     1      27.527   5.710  48.524  1.00  0.00    -0.001 C 
HETATM    6  C13 UNL     1      26.328   6.496  48.352  1.00  0.00     0.036 C 
HETATM    7  C14 UNL     1      25.245   7.276  48.176  1.00  0.00     0.065 C 
HETATM    8  C15 UNL     1      23.888   6.717  48.293  1.00  0.00     0.037 C 
HETATM    9  C16 UNL     1      23.001   5.743  48.471  1.00  0.00     0.012 C 
HETATM   10  C17 UNL     1      22.710   4.308  48.704  1.00  0.00    -0.035 C 
HETATM   11  C18 UNL     1      22.263   3.886  47.478  1.00  0.00     0.009 C 
HETATM   12  C19 UNL     1      21.808   2.513  47.126  1.00  0.00    -0.003 C 
HETATM   13  C20 UNL     1      21.891   1.780  48.217  1.00  0.00    -0.024 C 
HETATM   14  C21 UNL     1      22.304   2.038  49.589  1.00  0.00     0.057 C 
HETATM   15  C22 UNL     1      22.872   3.388  49.790  1.00  0.00     0.116 C 
ENDROOT
BRANCH   1  16
HETATM   16  C8  UNL     1      24.235   3.109  51.664  1.00  0.00     0.159 C 
BRANCH  16  17
HETATM   17  C7  UNL     1      24.397   1.793  52.269  1.00  0.00    -0.006 A 
HETATM   18  C6  UNL     1      23.407   1.089  52.930  1.00  0.00     0.079 A 
HETATM   19  C4  UNL     1      23.714  -0.146  53.465  1.00  0.00    -0.028 A 
HETATM   20  C3  UNL     1      24.956  -0.743  53.392  1.00  0.00     0.016 A 
HETATM   21  C5  UNL     1      22.624  -0.893  54.178  1.00  0.00     0.051 C 
HETATM   22  C2  UNL     1      25.943  -0.019  52.722  1.00  0.00    -0.061 A 
HETATM   23  C1  UNL     1      27.303  -0.624  52.617  1.00  0.00     0.048 C 
HETATM   24  C23 UNL     1      25.679   1.223  52.169  1.00  0.00     0.018 A 
BRANCH  18  25
HETATM   25  O1  UNL     1      22.144   1.652  53.027  1.00  0.00    -0.360 OA
HETATM   26  H8  UNL     1      21.917   2.285  53.780  1.00  0.00     0.217 HD
ENDBRANCH  18  25
ENDBRANCH  16  17
ENDBRANCH   1  16
BRANCH   7  27
HETATM   27  O2  UNL     1      25.187   8.656  47.826  1.00  0.00    -0.361 OA
HETATM   28  H18 UNL     1      26.011   8.995  47.350  1.00  0.00     0.217 HD
ENDBRANCH   7  27
TORSDOF 4
ENDMDL
MODEL 5
REMARK VINA RESULT:      -8.8      2.443      6.768
REMARK  4 active torsions:
REMARK  status: ('A' for Active; 'I' for Inactive)
REMARK    1  A    between atoms: C6_6  and  O1_7 
REMARK    2  A    between atoms: C7_8  and  C8_9 
REMARK    3  A    between atoms: C8_9  and  N1_10 
REMARK    4  A    between atoms: C14_16  and  O2_17 
ROOT
HETATM    1  N1  UNL     1      24.071   2.435  52.141  1.00  0.00    -0.400 N 
HETATM    2  C9  UNL     1      23.011   1.703  51.685  1.00  0.00     0.121 C 
HETATM    3  C10 UNL     1      22.532   2.000  50.264  1.00  0.00     0.046 C 
HETATM    4  C11 UNL     1      21.187   1.389  50.189  1.00  0.00    -0.025 C 
HETATM    5  C12 UNL     1      20.243   0.647  50.753  1.00  0.00    -0.001 C 
HETATM    6  C13 UNL     1      20.490   0.073  52.055  1.00  0.00     0.036 C 
HETATM    7  C14 UNL     1      20.664  -0.483  53.268  1.00  0.00     0.065 C 
HETATM    8  C15 UNL     1      21.977  -0.447  53.932  1.00  0.00     0.037 C 
HETATM    9  C16 UNL     1      23.273  -0.164  54.016  1.00  0.00     0.012 C 
HETATM   10  C17 UNL     1      24.500   0.395  53.401  1.00  0.00    -0.035 C 
HETATM   11  C18 UNL     1      25.222  -0.729  53.087  1.00  0.00     0.009 C 
HETATM   12  C19 UNL     1      26.567  -0.769  52.452  1.00  0.00    -0.003 C 
HETATM   13  C20 UNL     1      26.950   0.478  52.265  1.00  0.00    -0.024 C 
HETATM   14  C21 UNL     1      26.359   1.778  52.545  1.00  0.00     0.057 C 
HETATM   15  C22 UNL     1      24.968   1.700  53.040  1.00  0.00     0.116 C 
ENDROOT
BRANCH   1  16
HETATM   16  C8  UNL     1      24.085   3.779  52.451  1.00  0.00     0.159 C 
BRANCH  16  17
HETATM   17  C7  UNL     1      23.970   4.807  51.424  1.00  0.00    -0.006 A 
HETATM   18  C6  UNL     1      24.937   5.112  50.484  1.00  0.00     0.079 A 
HETATM   19  C4  UNL     1      24.688   6.125  49.580  1.00  0.00    -0.028 A 
HETATM   20  C3  UNL     1      23.528   6.872  49.542  1.00  0.00     0.016 A 
HETATM   21  C5  UNL     1      25.752   6.439  48.569  1.00  0.00     0.051 C 
HETATM   22  C2  UNL     1      22.563   6.551  50.497  1.00  0.00    -0.061 A 
HETATM   23  C1  UNL     1      21.292   7.332  50.495  1.00  0.00     0.048 C 
HETATM   24  C23 UNL     1      22.770   5.542  51.423  1.00  0.00     0.018 A 
BRANCH  18  25
HETATM   25  O1  UNL     1      26.117   4.386  50.488  1.00  0.00    -0.360 OA
HETATM   26  H8  UNL     1      26.778   4.472  49.729  1.00  0.00     0.217 HD
ENDBRANCH  18  25
ENDBRANCH  16  17
ENDBRANCH   1  16
BRANCH   7  27
HETATM   27  O2  UNL     1      19.721  -1.196  54.065  1.00  0.00    -0.361 OA
HETATM   28  H18 UNL     1      20.019  -2.127  54.322  1.00  0.00     0.217 HD
ENDBRANCH   7  27
TORSDOF 4
ENDMDL
MODEL 6
REMARK VINA RESULT:      -8.3      1.334      2.112
REMARK  4 active torsions:
REMARK  status: ('A' for Active; 'I' for Inactive)
REMARK    1  A    between atoms: C6_6  and  O1_7 
REMARK    2  A    between atoms: C7_8  and  C8_9 
REMARK    3  A    between atoms: C8_9  and  N1_10 
REMARK    4  A    between atoms: C14_16  and  O2_17 
ROOT
HETATM    1  N1  UNL     1      24.197   1.979  52.299  1.00  0.00    -0.400 N 
HETATM    2  C9  UNL     1      24.562   2.914  51.373  1.00  0.00     0.121 C 
HETATM    3  C10 UNL     1      25.812   2.611  50.547  1.00  0.00     0.046 C 
HETATM    4  C11 UNL     1      26.189   3.911  49.949  1.00  0.00    -0.025 C 
HETATM    5  C12 UNL     1      25.905   5.190  49.740  1.00  0.00    -0.001 C 
HETATM    6  C13 UNL     1      24.672   5.728  50.267  1.00  0.00     0.036 C 
HETATM    7  C14 UNL     1      23.540   6.283  50.738  1.00  0.00     0.065 C 
HETATM    8  C15 UNL     1      22.486   5.451  51.339  1.00  0.00     0.037 C 
HETATM    9  C16 UNL     1      21.926   4.303  51.707  1.00  0.00     0.012 C 
HETATM   10  C17 UNL     1      21.973   2.823  51.774  1.00  0.00    -0.035 C 
HETATM   11  C18 UNL     1      21.064   2.446  50.818  1.00  0.00     0.009 C 
HETATM   12  C19 UNL     1      20.684   1.053  50.457  1.00  0.00    -0.003 C 
HETATM   13  C20 UNL     1      21.368   0.244  51.241  1.00  0.00    -0.024 C 
HETATM   14  C21 UNL     1      22.338   0.438  52.309  1.00  0.00     0.057 C 
HETATM   15  C22 UNL     1      22.747   1.848  52.484  1.00  0.00     0.116 C 
ENDROOT
BRANCH   1  16
HETATM   16  C8  UNL     1      24.854   1.662  53.470  1.00  0.00     0.159 C 
BRANCH  16  17
HETATM   17  C7  UNL     1      26.172   1.038  53.468  1.00  0.00    -0.006 A 
HETATM   18  C6  UNL     1      26.430  -0.285  53.161  1.00  0.00     0.079 A 
HETATM   19  C4  UNL     1      27.733  -0.737  53.216  1.00  0.00    -0.028 A 
HETATM   20  C3  UNL     1      28.817   0.043  53.561  1.00  0.00     0.016 A 
HETATM   21  C5  UNL     1      27.991  -2.177  52.878  1.00  0.00     0.051 C 
HETATM   22  C2  UNL     1      28.539   1.375  53.868  1.00  0.00    -0.061 A 
HETATM   23  C1  UNL     1      29.681   2.257  54.248  1.00  0.00     0.048 C 
HETATM   24  C23 UNL     1      27.247   1.871  53.826  1.00  0.00     0.018 A 
BRANCH  18  25
HETATM   25  O1  UNL     1      25.369  -1.104  52.809  1.00  0.00    -0.360 OA
HETATM   26  H8  UNL     1      25.492  -1.850  52.139  1.00  0.00     0.217 HD
ENDBRANCH  18  25
ENDBRANCH  16  17
ENDBRANCH   1  16
BRANCH   7  27
HETATM   27  O2  UNL     1      23.142   7.652  50.713  1.00  0.00    -0.361 OA
HETATM   28  H18 UNL     1      23.082   8.081  51.625  1.00  0.00     0.217 HD
ENDBRANCH   7  27
TORSDOF 4
ENDMDL
MODEL 7
REMARK VINA RESULT:      -8.1      2.178      7.450
REMARK  4 active torsions:
REMARK  status: ('A' for Active; 'I' for Inactive)
REMARK    1  A    between atoms: C6_6  and  O1_7 
REMARK    2  A    between atoms: C7_8  and  C8_9 
REMARK    3  A    between atoms: C8_9  and  N1_10 
REMARK    4  A    between atoms: C14_16  and  O2_17 
ROOT
HETATM    1  N1  UNL     1      23.126   3.282  51.663  1.00  0.00    -0.400 N 
HETATM    2  C9  UNL     1      23.016   1.941  51.899  1.00  0.00     0.121 C 
HETATM    3  C10 UNL     1      21.817   1.230  51.273  1.00  0.00     0.046 C 
HETATM    4  C11 UNL     1      21.726  -0.058  51.995  1.00  0.00    -0.025 C 
HETATM    5  C12 UNL     1      22.242  -0.904  52.877  1.00  0.00    -0.001 C 
HETATM    6  C13 UNL     1      23.494  -0.570  53.517  1.00  0.00     0.036 C 
HETATM    7  C14 UNL     1      24.654  -0.309  54.147  1.00  0.00     0.065 C 
HETATM    8  C15 UNL     1      25.489   0.834  53.745  1.00  0.00     0.037 C 
HETATM    9  C16 UNL     1      25.807   1.884  52.993  1.00  0.00     0.012 C 
HETATM   10  C17 UNL     1      25.502   2.773  51.847  1.00  0.00    -0.035 C 
HETATM   11  C18 UNL     1      26.420   2.382  50.906  1.00  0.00     0.009 C 
HETATM   12  C19 UNL     1      26.588   2.954  49.542  1.00  0.00    -0.003 C 
HETATM   13  C20 UNL     1      25.705   3.923  49.411  1.00  0.00    -0.024 C 
HETATM   14  C21 UNL     1      24.686   4.497  50.277  1.00  0.00     0.057 C 
HETATM   15  C22 UNL     1      24.508   3.761  51.547  1.00  0.00     0.116 C 
ENDROOT
BRANCH   1  16
HETATM   16  C8  UNL     1      22.316   4.285  52.154  1.00  0.00     0.159 C 
BRANCH  16  17
HETATM   17  C7  UNL     1      21.438   5.059  51.285  1.00  0.00    -0.006 A 
HETATM   18  C6  UNL     1      21.618   6.386  50.941  1.00  0.00     0.079 A 
HETATM   19  C4  UNL     1      20.691   6.990  50.116  1.00  0.00    -0.028 A 
HETATM   20  C3  UNL     1      19.577   6.361  49.600  1.00  0.00     0.016 A 
HETATM   21  C5  UNL     1      20.907   8.431  49.756  1.00  0.00     0.051 C 
HETATM   22  C2  UNL     1      19.410   5.023  49.957  1.00  0.00    -0.061 A 
HETATM   23  C1  UNL     1      18.219   4.301  49.422  1.00  0.00     0.048 C 
HETATM   24  C23 UNL     1      20.315   4.377  50.781  1.00  0.00     0.018 A 
BRANCH  18  25
HETATM   25  O1  UNL     1      22.725   7.056  51.439  1.00  0.00    -0.360 OA
HETATM   26  H8  UNL     1      22.646   7.653  52.249  1.00  0.00     0.217 HD
ENDBRANCH  18  25
ENDBRANCH  16  17
ENDBRANCH   1  16
BRANCH   7  27
HETATM   27  O2  UNL     1      25.281  -1.039  55.199  1.00  0.00    -0.361 OA
HETATM   28  H18 UNL     1      25.128  -0.651  56.119  1.00  0.00     0.217 HD
ENDBRANCH   7  27
TORSDOF 4
ENDMDL
MODEL 8
REMARK VINA RESULT:      -8.1      3.486      7.057
REMARK  4 active torsions:
REMARK  status: ('A' for Active; 'I' for Inactive)
REMARK    1  A    between atoms: C6_6  and  O1_7 
REMARK    2  A    between atoms: C7_8  and  C8_9 
REMARK    3  A    between atoms: C8_9  and  N1_10 
REMARK    4  A    between atoms: C14_16  and  O2_17 
ROOT
HETATM    1  N1  UNL     1      21.308   1.239  51.781  1.00  0.00    -0.400 N 
HETATM    2  C9  UNL     1      22.491   0.725  52.233  1.00  0.00     0.121 C 
HETATM    3  C10 UNL     1      22.522  -0.775  52.521  1.00  0.00     0.046 C 
HETATM    4  C11 UNL     1      23.734  -0.972  53.346  1.00  0.00    -0.025 C 
HETATM    5  C12 UNL     1      24.836  -0.466  53.885  1.00  0.00    -0.001 C 
HETATM    6  C13 UNL     1      25.165   0.918  53.633  1.00  0.00     0.036 C 
HETATM    7  C14 UNL     1      25.519   2.201  53.437  1.00  0.00     0.065 C 
HETATM    8  C15 UNL     1      24.800   3.040  52.464  1.00  0.00     0.037 C 
HETATM    9  C16 UNL     1      23.893   3.277  51.521  1.00  0.00     0.012 C 
HETATM   10  C17 UNL     1      22.807   2.785  50.642  1.00  0.00    -0.035 C 
HETATM   11  C18 UNL     1      23.416   2.717  49.414  1.00  0.00     0.009 C 
HETATM   12  C19 UNL     1      22.785   2.294  48.135  1.00  0.00    -0.003 C 
HETATM   13  C20 UNL     1      21.523   2.016  48.392  1.00  0.00    -0.024 C 
HETATM   14  C21 UNL     1      20.696   2.048  49.590  1.00  0.00     0.057 C 
HETATM   15  C22 UNL     1      21.457   2.340  50.824  1.00  0.00     0.116 C 
ENDROOT
BRANCH   1  16
HETATM   16  C8  UNL     1      20.135   1.384  52.492  1.00  0.00     0.159 C 
BRANCH  16  17
HETATM   17  C7  UNL     1      19.045   0.422  52.384  1.00  0.00    -0.006 A 
HETATM   18  C6  UNL     1      18.889  -0.703  53.172  1.00  0.00     0.079 A 
HETATM   19  C4  UNL     1      17.809  -1.532  52.941  1.00  0.00    -0.028 A 
HETATM   20  C3  UNL     1      16.857  -1.320  51.966  1.00  0.00     0.016 A 
HETATM   21  C5  UNL     1      17.660  -2.748  53.808  1.00  0.00     0.051 C 
HETATM   22  C2  UNL     1      17.029  -0.180  51.180  1.00  0.00    -0.061 A 
HETATM   23  C1  UNL     1      16.022   0.090  50.112  1.00  0.00     0.048 C 
HETATM   24  C23 UNL     1      18.097   0.678  51.377  1.00  0.00     0.018 A 
BRANCH  18  25
HETATM   25  O1  UNL     1      19.825  -0.954  54.163  1.00  0.00    -0.360 OA
HETATM   26  H8  UNL     1      19.586  -1.514  54.969  1.00  0.00     0.217 HD
ENDBRANCH  18  25
ENDBRANCH  16  17
ENDBRANCH   1  16
BRANCH   7  27
HETATM   27  O2  UNL     1      26.588   2.932  54.032  1.00  0.00    -0.361 OA
HETATM   28  H18 UNL     1      26.836   3.776  53.536  1.00  0.00     0.217 HD
ENDBRANCH   7  27
TORSDOF 4
ENDMDL
MODEL 9
REMARK VINA RESULT:      -8.1      2.657      7.603
REMARK  4 active torsions:
REMARK  status: ('A' for Active; 'I' for Inactive)
REMARK    1  A    between atoms: C6_6  and  O1_7 
REMARK    2  A    between atoms: C7_8  and  C8_9 
REMARK    3  A    between atoms: C8_9  and  N1_10 
REMARK    4  A    between atoms: C14_16  and  O2_17 
ROOT
HETATM    1  N1  UNL     1      23.089   3.159  51.646  1.00  0.00    -0.400 N 
HETATM    2  C9  UNL     1      23.095   1.821  51.920  1.00  0.00     0.121 C 
HETATM    3  C10 UNL     1      21.963   0.991  51.315  1.00  0.00     0.046 C 
HETATM    4  C11 UNL     1      21.983  -0.278  52.073  1.00  0.00    -0.025 C 
HETATM    5  C12 UNL     1      22.570  -1.052  52.978  1.00  0.00    -0.001 C 
HETATM    6  C13 UNL     1      23.786  -0.593  53.607  1.00  0.00     0.036 C 
HETATM    7  C14 UNL     1      24.918  -0.215  54.228  1.00  0.00     0.065 C 
HETATM    8  C15 UNL     1      25.652   0.985  53.793  1.00  0.00     0.037 C 
HETATM    9  C16 UNL     1      25.879   2.036  53.012  1.00  0.00     0.012 C 
HETATM   10  C17 UNL     1      25.499   2.864  51.842  1.00  0.00    -0.035 C 
HETATM   11  C18 UNL     1      26.449   2.527  50.911  1.00  0.00     0.009 C 
HETATM   12  C19 UNL     1      26.569   3.073  49.531  1.00  0.00    -0.003 C 
HETATM   13  C20 UNL     1      25.605   3.958  49.374  1.00  0.00    -0.024 C 
HETATM   14  C21 UNL     1      24.539   4.465  50.224  1.00  0.00     0.057 C 
HETATM   15  C22 UNL     1      24.424   3.753  51.515  1.00  0.00     0.116 C 
ENDROOT
BRANCH   1  16
HETATM   16  C8  UNL     1      22.194   4.102  52.109  1.00  0.00     0.159 C 
BRANCH  16  17
HETATM   17  C7  UNL     1      20.969   4.420  51.387  1.00  0.00    -0.006 A 
HETATM   18  C6  UNL     1      19.729   3.860  51.629  1.00  0.00     0.079 A 
HETATM   19  C4  UNL     1      18.658   4.252  50.850  1.00  0.00    -0.028 A 
HETATM   20  C3  UNL     1      18.733   5.176  49.828  1.00  0.00     0.016 A 
HETATM   21  C5  UNL     1      17.321   3.631  51.131  1.00  0.00     0.051 C 
HETATM   22  C2  UNL     1      19.992   5.732  49.597  1.00  0.00    -0.061 A 
HETATM   23  C1  UNL     1      20.121   6.737  48.502  1.00  0.00     0.048 C 
HETATM   24  C23 UNL     1      21.092   5.368  50.354  1.00  0.00     0.018 A 
BRANCH  18  25
HETATM   25  O1  UNL     1      19.610   2.926  52.647  1.00  0.00    -0.360 OA
HETATM   26  H8  UNL     1      18.739   2.815  53.146  1.00  0.00     0.217 HD
ENDBRANCH  18  25
ENDBRANCH  16  17
ENDBRANCH   1  16
BRANCH   7  27
HETATM   27  O2  UNL     1      25.605  -0.858  55.299  1.00  0.00    -0.361 OA
HETATM   28  H18 UNL     1      26.398  -1.411  55.008  1.00  0.00     0.217 HD
ENDBRANCH   7  27
TORSDOF 4
ENDMDL
