MODEL 1
REMARK VINA RESULT:      -8.9      0.000      0.000
REMARK  7 active torsions:
REMARK  status: ('A' for Active; 'I' for Inactive)
REMARK    1  A    between atoms: C8_8  and  C9_9 
REMARK    2  A    between atoms: C9_9  and  C10_10 
REMARK    3  A    between atoms: C10_10  and  O2_12 
REMARK    4  A    between atoms: S1_13  and  S2_14 
REMARK    5  A    between atoms: S2_14  and  C11_15 
REMARK    6  A    between atoms: C12_16  and  C13_17 
REMARK    7  A    between atoms: C13_17  and  O4_19 
ROOT
HETATM    1  C1  UNL     1      22.726   2.738  48.008  1.00  0.00     0.049 C 
HETATM    2  C2  UNL     1      22.014   2.113  49.118  1.00  0.00    -0.048 A 
HETATM    3  C3  UNL     1      20.733   1.622  48.835  1.00  0.00     0.007 A 
HETATM    4  C4  UNL     1      19.953   0.996  49.776  1.00  0.00     0.003 A 
HETATM    5  C5  UNL     1      20.495   0.873  51.030  1.00  0.00     0.031 A 
HETATM    6  C6  UNL     1      21.752   1.353  51.320  1.00  0.00     0.052 A 
HETATM    7  C7  UNL     1      22.556   1.984  50.404  1.00  0.00     0.012 A 
HETATM    8  C8  UNL     1      23.857   2.430  50.863  1.00  0.00     0.022 A 
HETATM    9  S1  UNL     1      23.964   1.977  52.547  1.00  0.00    -0.023 SA
HETATM   10  N2  UNL     1      22.268   1.195  52.631  1.00  0.00    -0.321 N 
HETATM   11  C20 UNL     1      21.796   0.620  53.860  1.00  0.00     0.165 C 
ENDROOT
BRANCH   9  12
HETATM   12  S2  UNL     1      25.450   2.252  53.867  1.00  0.00    -0.024 SA
BRANCH  12  13
HETATM   13  C11 UNL     1      26.576   0.830  53.823  1.00  0.00     0.098 C 
HETATM   14  C12 UNL     1      27.891   1.103  53.867  1.00  0.00     0.063 C 
HETATM   15  C14 UNL     1      28.310  -0.267  54.147  1.00  0.00     0.101 A 
HETATM   16  C15 UNL     1      29.652  -0.736  53.979  1.00  0.00    -0.011 A 
HETATM   17  C18 UNL     1      27.470  -1.204  53.378  1.00  0.00     0.024 A 
HETATM   18  C16 UNL     1      29.554  -1.838  53.212  1.00  0.00    -0.001 A 
HETATM   19  C17 UNL     1      28.167  -2.169  52.809  1.00  0.00     0.026 A 
HETATM   20  N1  UNL     1      26.214  -0.538  53.549  1.00  0.00    -0.347 N 
HETATM   21  C19 UNL     1      24.912  -1.098  53.454  1.00  0.00     0.157 C 
BRANCH  14  22
HETATM   22  C13 UNL     1      28.844   2.174  53.923  1.00  0.00     0.175 C 
HETATM   23  O3  UNL     1      29.583   2.448  54.893  1.00  0.00    -0.646 OA
BRANCH  22  24
HETATM   24  O4  UNL     1      29.089   3.078  52.897  1.00  0.00    -0.773 OA
HETATM   25  H10 UNL     1      28.957   4.098  52.993  1.00  0.00     0.167 HD
ENDBRANCH  22  24
ENDBRANCH  14  22
ENDBRANCH  12  13
ENDBRANCH   9  12
BRANCH   8  26
HETATM   26  C9  UNL     1      24.946   3.143  50.214  1.00  0.00     0.158 C 
BRANCH  26  27
HETATM   27  C10 UNL     1      25.047   4.588  50.554  1.00  0.00     0.144 C 
HETATM   28  O1  UNL     1      24.249   5.330  51.166  1.00  0.00    -0.650 OA
BRANCH  27  29
HETATM   29  O2  UNL     1      26.207   5.167  50.114  1.00  0.00    -0.776 OA
HETATM   30  H9  UNL     1      26.483   6.080  50.435  1.00  0.00     0.167 HD
ENDBRANCH  27  29
ENDBRANCH  26  27
ENDBRANCH   8  26
TORSDOF 7
ENDMDL
MODEL 2
REMARK VINA RESULT:      -8.6      2.698      6.980
REMARK  7 active torsions:
REMARK  status: ('A' for Active; 'I' for Inactive)
REMARK    1  A    between atoms: C8_8  and  C9_9 
REMARK    2  A    between atoms: C9_9  and  C10_10 
REMARK    3  A    between atoms: C10_10  and  O2_12 
REMARK    4  A    between atoms: S1_13  and  S2_14 
REMARK    5  A    between atoms: S2_14  and  C11_15 
REMARK    6  A    between atoms: C12_16  and  C13_17 
REMARK    7  A    between atoms: C13_17  and  O4_19 
ROOT
HETATM    1  C1  UNL     1      25.266  -0.927  54.467  1.00  0.00     0.049 C 
HETATM    2  C2  UNL     1      23.923  -0.476  54.112  1.00  0.00    -0.048 A 
HETATM    3  C3  UNL     1      22.873  -0.988  54.884  1.00  0.00     0.007 A 
HETATM    4  C4  UNL     1      21.560  -0.641  54.676  1.00  0.00     0.003 A 
HETATM    5  C5  UNL     1      21.321   0.248  53.657  1.00  0.00     0.031 A 
HETATM    6  C6  UNL     1      22.346   0.757  52.893  1.00  0.00     0.052 A 
HETATM    7  C7  UNL     1      23.666   0.430  53.073  1.00  0.00     0.012 A 
HETATM    8  C8  UNL     1      24.629   1.055  52.188  1.00  0.00     0.022 A 
HETATM    9  S1  UNL     1      23.712   2.087  51.117  1.00  0.00    -0.023 SA
HETATM   10  N2  UNL     1      22.045   1.677  51.856  1.00  0.00    -0.321 N 
HETATM   11  C20 UNL     1      20.852   2.281  51.331  1.00  0.00     0.165 C 
ENDROOT
BRANCH   9  12
HETATM   12  S2  UNL     1      24.331   3.273  49.622  1.00  0.00    -0.024 SA
BRANCH  12  13
HETATM   13  C11 UNL     1      23.192   4.673  49.442  1.00  0.00     0.098 C 
HETATM   14  C12 UNL     1      23.100   5.511  50.490  1.00  0.00     0.063 C 
HETATM   15  C14 UNL     1      22.396   6.565  49.764  1.00  0.00     0.101 A 
HETATM   16  C15 UNL     1      21.688   7.632  50.406  1.00  0.00    -0.011 A 
HETATM   17  C18 UNL     1      21.427   5.957  48.834  1.00  0.00     0.024 A 
HETATM   18  C16 UNL     1      20.457   7.625  49.860  1.00  0.00    -0.001 A 
HETATM   19  C17 UNL     1      20.255   6.563  48.845  1.00  0.00     0.026 A 
HETATM   20  N1  UNL     1      22.237   4.867  48.380  1.00  0.00    -0.347 N 
HETATM   21  C19 UNL     1      22.114   4.136  47.169  1.00  0.00     0.157 C 
BRANCH  14  22
HETATM   22  C13 UNL     1      23.579   5.748  51.821  1.00  0.00     0.175 C 
HETATM   23  O3  UNL     1      23.260   5.101  52.841  1.00  0.00    -0.646 OA
BRANCH  22  24
HETATM   24  O4  UNL     1      24.477   6.746  52.179  1.00  0.00    -0.773 OA
HETATM   25  H10 UNL     1      24.692   7.560  51.580  1.00  0.00     0.167 HD
ENDBRANCH  22  24
ENDBRANCH  14  22
ENDBRANCH  12  13
ENDBRANCH   9  12
BRANCH   8  26
HETATM   26  C9  UNL     1      26.073   0.939  52.054  1.00  0.00     0.158 C 
BRANCH  26  27
HETATM   27  C10 UNL     1      26.860   1.997  52.743  1.00  0.00     0.144 C 
HETATM   28  O1  UNL     1      27.017   2.219  53.962  1.00  0.00    -0.650 OA
BRANCH  27  29
HETATM   29  O2  UNL     1      27.499   2.844  51.879  1.00  0.00    -0.776 OA
HETATM   30  H9  UNL     1      28.471   3.076  52.006  1.00  0.00     0.167 HD
ENDBRANCH  27  29
ENDBRANCH  26  27
ENDBRANCH   8  26
TORSDOF 7
ENDMDL
MODEL 3
REMARK VINA RESULT:      -8.1      3.572      6.925
REMARK  7 active torsions:
REMARK  status: ('A' for Active; 'I' for Inactive)
REMARK    1  A    between atoms: C8_8  and  C9_9 
REMARK    2  A    between atoms: C9_9  and  C10_10 
REMARK    3  A    between atoms: C10_10  and  O2_12 
REMARK    4  A    between atoms: S1_13  and  S2_14 
REMARK    5  A    between atoms: S2_14  and  C11_15 
REMARK    6  A    between atoms: C12_16  and  C13_17 
REMARK    7  A    between atoms: C13_17  and  O4_19 
ROOT
HETATM    1  C1  UNL     1      20.946  -0.660  54.238  1.00  0.00     0.049 C 
HETATM    2  C2  UNL     1      22.392  -0.476  54.156  1.00  0.00    -0.048 A 
HETATM    3  C3  UNL     1      23.156  -1.118  55.138  1.00  0.00     0.007 A 
HETATM    4  C4  UNL     1      24.527  -1.047  55.178  1.00  0.00     0.003 A 
HETATM    5  C5  UNL     1      25.125  -0.303  54.193  1.00  0.00     0.031 A 
HETATM    6  C6  UNL     1      24.385   0.333  53.223  1.00  0.00     0.052 A 
HETATM    7  C7  UNL     1      23.015   0.284  53.155  1.00  0.00     0.012 A 
HETATM    8  C8  UNL     1      22.380   1.004  52.070  1.00  0.00     0.022 A 
HETATM    9  S1  UNL     1      23.670   1.742  51.151  1.00  0.00    -0.023 SA
HETATM   10  N2  UNL     1      25.053   1.085  52.223  1.00  0.00    -0.321 N 
HETATM   11  C20 UNL     1      26.420   1.399  51.915  1.00  0.00     0.165 C 
ENDROOT
BRANCH   9  12
HETATM   12  S2  UNL     1      23.593   2.895  49.511  1.00  0.00    -0.024 SA
BRANCH  12  13
HETATM   13  C11 UNL     1      24.340   4.510  49.865  1.00  0.00     0.098 C 
HETATM   14  C12 UNL     1      23.499   5.499  50.214  1.00  0.00     0.063 C 
HETATM   15  C14 UNL     1      24.538   6.402  50.699  1.00  0.00     0.101 A 
HETATM   16  C15 UNL     1      24.334   7.804  50.910  1.00  0.00    -0.011 A 
HETATM   17  C18 UNL     1      25.720   6.307  49.822  1.00  0.00     0.024 A 
HETATM   18  C16 UNL     1      25.324   8.416  50.234  1.00  0.00    -0.001 A 
HETATM   19  C17 UNL     1      26.235   7.485  49.526  1.00  0.00     0.026 A 
HETATM   20  N1  UNL     1      25.709   4.890  49.620  1.00  0.00    -0.347 N 
HETATM   21  C19 UNL     1      26.797   4.055  49.248  1.00  0.00     0.157 C 
BRANCH  14  22
HETATM   22  C13 UNL     1      22.115   5.814  50.420  1.00  0.00     0.175 C 
HETATM   23  O3  UNL     1      21.234   5.863  49.535  1.00  0.00    -0.646 OA
BRANCH  22  24
HETATM   24  O4  UNL     1      21.541   6.118  51.649  1.00  0.00    -0.773 OA
HETATM   25  H10 UNL     1      21.014   6.987  51.832  1.00  0.00     0.167 HD
ENDBRANCH  22  24
ENDBRANCH  14  22
ENDBRANCH  12  13
ENDBRANCH   9  12
BRANCH   8  26
HETATM   26  C9  UNL     1      20.989   1.208  51.695  1.00  0.00     0.158 C 
BRANCH  26  27
HETATM   27  C10 UNL     1      20.520   2.619  51.744  1.00  0.00     0.144 C 
HETATM   28  O1  UNL     1      20.456   3.414  52.706  1.00  0.00    -0.650 OA
BRANCH  27  29
HETATM   29  O2  UNL     1      20.099   3.091  50.531  1.00  0.00    -0.776 OA
HETATM   30  H9  UNL     1      19.164   2.914  50.204  1.00  0.00     0.167 HD
ENDBRANCH  27  29
ENDBRANCH  26  27
ENDBRANCH   8  26
TORSDOF 7
ENDMDL
MODEL 4
REMARK VINA RESULT:      -8.1      2.709      6.828
REMARK  7 active torsions:
REMARK  status: ('A' for Active; 'I' for Inactive)
REMARK    1  A    between atoms: C8_8  and  C9_9 
REMARK    2  A    between atoms: C9_9  and  C10_10 
REMARK    3  A    between atoms: C10_10  and  O2_12 
REMARK    4  A    between atoms: S1_13  and  S2_14 
REMARK    5  A    between atoms: S2_14  and  C11_15 
REMARK    6  A    between atoms: C12_16  and  C13_17 
REMARK    7  A    between atoms: C13_17  and  O4_19 
ROOT
HETATM    1  C1  UNL     1      20.563   0.523  53.577  1.00  0.00     0.049 C 
HETATM    2  C2  UNL     1      21.963   0.169  53.794  1.00  0.00    -0.048 A 
HETATM    3  C3  UNL     1      22.214  -0.787  54.786  1.00  0.00     0.007 A 
HETATM    4  C4  UNL     1      23.479  -1.229  55.089  1.00  0.00     0.003 A 
HETATM    5  C5  UNL     1      24.505  -0.679  54.362  1.00  0.00     0.031 A 
HETATM    6  C6  UNL     1      24.270   0.263  53.385  1.00  0.00     0.052 A 
HETATM    7  C7  UNL     1      23.020   0.726  53.059  1.00  0.00     0.012 A 
HETATM    8  C8  UNL     1      22.936   1.716  52.004  1.00  0.00     0.022 A 
HETATM    9  S1  UNL     1      24.575   2.000  51.468  1.00  0.00    -0.023 SA
HETATM   10  N2  UNL     1      25.365   0.795  52.659  1.00  0.00    -0.321 N 
HETATM   11  C20 UNL     1      26.789   0.609  52.662  1.00  0.00     0.165 C 
ENDROOT
BRANCH   9  12
HETATM   12  S2  UNL     1      25.274   3.231  50.047  1.00  0.00    -0.024 SA
BRANCH  12  13
HETATM   13  C11 UNL     1      23.942   4.321  49.474  1.00  0.00     0.098 C 
HETATM   14  C12 UNL     1      23.929   5.569  49.974  1.00  0.00     0.063 C 
HETATM   15  C14 UNL     1      22.968   6.096  49.009  1.00  0.00     0.101 A 
HETATM   16  C15 UNL     1      22.250   7.321  49.195  1.00  0.00    -0.011 A 
HETATM   17  C18 UNL     1      21.938   5.078  48.736  1.00  0.00     0.024 A 
HETATM   18  C16 UNL     1      20.954   7.008  49.014  1.00  0.00    -0.001 A 
HETATM   19  C17 UNL     1      20.716   5.576  48.715  1.00  0.00     0.026 A 
HETATM   20  N1  UNL     1      22.792   3.929  48.697  1.00  0.00    -0.347 N 
HETATM   21  C19 UNL     1      22.551   2.686  48.054  1.00  0.00     0.157 C 
BRANCH  14  22
HETATM   22  C13 UNL     1      24.605   6.455  50.877  1.00  0.00     0.175 C 
HETATM   23  O3  UNL     1      25.561   7.205  50.589  1.00  0.00    -0.646 OA
BRANCH  22  24
HETATM   24  O4  UNL     1      24.294   6.611  52.222  1.00  0.00    -0.773 OA
HETATM   25  H10 UNL     1      23.521   7.206  52.563  1.00  0.00     0.167 HD
ENDBRANCH  22  24
ENDBRANCH  14  22
ENDBRANCH  12  13
ENDBRANCH   9  12
BRANCH   8  26
HETATM   26  C9  UNL     1      21.824   2.446  51.415  1.00  0.00     0.158 C 
BRANCH  26  27
HETATM   27  C10 UNL     1      21.409   3.670  52.153  1.00  0.00     0.144 C 
HETATM   28  O1  UNL     1      22.096   4.617  52.592  1.00  0.00    -0.650 OA
BRANCH  27  29
HETATM   29  O2  UNL     1      20.060   3.740  52.369  1.00  0.00    -0.776 OA
HETATM   30  H9  UNL     1      19.518   2.906  52.528  1.00  0.00     0.167 HD
ENDBRANCH  27  29
ENDBRANCH  26  27
ENDBRANCH   8  26
TORSDOF 7
ENDMDL
MODEL 5
REMARK VINA RESULT:      -8.0      2.970      6.603
REMARK  7 active torsions:
REMARK  status: ('A' for Active; 'I' for Inactive)
REMARK    1  A    between atoms: C8_8  and  C9_9 
REMARK    2  A    between atoms: C9_9  and  C10_10 
REMARK    3  A    between atoms: C10_10  and  O2_12 
REMARK    4  A    between atoms: S1_13  and  S2_14 
REMARK    5  A    between atoms: S2_14  and  C11_15 
REMARK    6  A    between atoms: C12_16  and  C13_17 
REMARK    7  A    between atoms: C13_17  and  O4_19 
ROOT
HETATM    1  C1  UNL     1      24.719  -0.619  54.474  1.00  0.00     0.049 C 
HETATM    2  C2  UNL     1      23.337  -0.541  54.012  1.00  0.00    -0.048 A 
HETATM    3  C3  UNL     1      22.385  -1.221  54.782  1.00  0.00     0.007 A 
HETATM    4  C4  UNL     1      21.046  -1.223  54.477  1.00  0.00     0.003 A 
HETATM    5  C5  UNL     1      20.676  -0.515  53.361  1.00  0.00     0.031 A 
HETATM    6  C6  UNL     1      21.603   0.157  52.596  1.00  0.00     0.052 A 
HETATM    7  C7  UNL     1      22.947   0.178  52.872  1.00  0.00     0.012 A 
HETATM    8  C8  UNL     1      23.795   0.934  51.972  1.00  0.00     0.022 A 
HETATM    9  S1  UNL     1      22.738   1.611  50.757  1.00  0.00    -0.023 SA
HETATM   10  N2  UNL     1      21.167   0.878  51.456  1.00  0.00    -0.321 N 
HETATM   11  C20 UNL     1      19.906   1.124  50.814  1.00  0.00     0.165 C 
ENDROOT
BRANCH   9  12
HETATM   12  S2  UNL     1      23.163   2.771  49.176  1.00  0.00    -0.024 SA
BRANCH  12  13
HETATM   13  C11 UNL     1      23.898   4.330  49.743  1.00  0.00     0.098 C 
HETATM   14  C12 UNL     1      23.046   5.339  49.995  1.00  0.00     0.063 C 
HETATM   15  C14 UNL     1      24.018   6.169  50.702  1.00  0.00     0.101 A 
HETATM   16  C15 UNL     1      23.833   7.566  50.952  1.00  0.00    -0.011 A 
HETATM   17  C18 UNL     1      25.330   6.060  50.040  1.00  0.00     0.024 A 
HETATM   18  C16 UNL     1      24.949   8.163  50.494  1.00  0.00    -0.001 A 
HETATM   19  C17 UNL     1      25.933   7.226  49.903  1.00  0.00     0.026 A 
HETATM   20  N1  UNL     1      25.302   4.656  49.761  1.00  0.00    -0.347 N 
HETATM   21  C19 UNL     1      26.405   3.790  49.537  1.00  0.00     0.157 C 
BRANCH  14  22
HETATM   22  C13 UNL     1      21.660   5.709  49.976  1.00  0.00     0.175 C 
HETATM   23  O3  UNL     1      20.807   5.402  50.836  1.00  0.00    -0.646 OA
BRANCH  22  24
HETATM   24  O4  UNL     1      21.052   6.471  48.986  1.00  0.00    -0.773 OA
HETATM   25  H10 UNL     1      21.314   6.421  47.988  1.00  0.00     0.167 HD
ENDBRANCH  22  24
ENDBRANCH  14  22
ENDBRANCH  12  13
ENDBRANCH   9  12
BRANCH   8  26
HETATM   26  C9  UNL     1      25.231   1.160  51.919  1.00  0.00     0.158 C 
BRANCH  26  27
HETATM   27  C10 UNL     1      25.741   2.210  52.842  1.00  0.00     0.144 C 
HETATM   28  O1  UNL     1      26.807   2.262  53.492  1.00  0.00    -0.650 OA
BRANCH  27  29
HETATM   29  O2  UNL     1      24.887   3.270  52.979  1.00  0.00    -0.776 OA
HETATM   30  H9  UNL     1      25.240   4.204  53.107  1.00  0.00     0.167 HD
ENDBRANCH  27  29
ENDBRANCH  26  27
ENDBRANCH   8  26
TORSDOF 7
ENDMDL
MODEL 6
REMARK VINA RESULT:      -7.8      2.968      7.503
REMARK  7 active torsions:
REMARK  status: ('A' for Active; 'I' for Inactive)
REMARK    1  A    between atoms: C8_8  and  C9_9 
REMARK    2  A    between atoms: C9_9  and  C10_10 
REMARK    3  A    between atoms: C10_10  and  O2_12 
REMARK    4  A    between atoms: S1_13  and  S2_14 
REMARK    5  A    between atoms: S2_14  and  C11_15 
REMARK    6  A    between atoms: C12_16  and  C13_17 
REMARK    7  A    between atoms: C13_17  and  O4_19 
ROOT
HETATM    1  C1  UNL     1      25.227  -1.005  54.465  1.00  0.00     0.049 C 
HETATM    2  C2  UNL     1      23.903  -0.516  54.092  1.00  0.00    -0.048 A 
HETATM    3  C3  UNL     1      22.823  -1.040  54.813  1.00  0.00     0.007 A 
HETATM    4  C4  UNL     1      21.522  -0.661  54.583  1.00  0.00     0.003 A 
HETATM    5  C5  UNL     1      21.327   0.271  53.595  1.00  0.00     0.031 A 
HETATM    6  C6  UNL     1      22.381   0.792  52.880  1.00  0.00     0.052 A 
HETATM    7  C7  UNL     1      23.690   0.435  53.083  1.00  0.00     0.012 A 
HETATM    8  C8  UNL     1      24.688   1.076  52.251  1.00  0.00     0.022 A 
HETATM    9  S1  UNL     1      23.819   2.166  51.197  1.00  0.00    -0.023 SA
HETATM   10  N2  UNL     1      22.125   1.757  51.873  1.00  0.00    -0.321 N 
HETATM   11  C20 UNL     1      20.958   2.402  51.340  1.00  0.00     0.165 C 
ENDROOT
BRANCH   9  12
HETATM   12  S2  UNL     1      24.499   3.399  49.768  1.00  0.00    -0.024 SA
BRANCH  12  13
HETATM   13  C11 UNL     1      23.234   4.640  49.380  1.00  0.00     0.098 C 
HETATM   14  C12 UNL     1      22.334   4.307  48.439  1.00  0.00     0.063 C 
HETATM   15  C14 UNL     1      21.411   5.399  48.736  1.00  0.00     0.101 A 
HETATM   16  C15 UNL     1      20.374   5.824  47.845  1.00  0.00    -0.011 A 
HETATM   17  C18 UNL     1      22.178   6.618  49.052  1.00  0.00     0.024 A 
HETATM   18  C16 UNL     1      20.541   7.153  47.707  1.00  0.00    -0.001 A 
HETATM   19  C17 UNL     1      21.690   7.697  48.470  1.00  0.00     0.026 A 
HETATM   20  N1  UNL     1      23.214   6.010  49.830  1.00  0.00    -0.347 N 
HETATM   21  C19 UNL     1      24.042   6.622  50.809  1.00  0.00     0.157 C 
BRANCH  14  22
HETATM   22  C13 UNL     1      21.952   3.269  47.526  1.00  0.00     0.175 C 
HETATM   23  O3  UNL     1      21.430   2.177  47.834  1.00  0.00    -0.646 OA
BRANCH  22  24
HETATM   24  O4  UNL     1      22.110   3.324  46.146  1.00  0.00    -0.773 OA
HETATM   25  H10 UNL     1      22.283   4.200  45.627  1.00  0.00     0.167 HD
ENDBRANCH  22  24
ENDBRANCH  14  22
ENDBRANCH  12  13
ENDBRANCH   9  12
BRANCH   8  26
HETATM   26  C9  UNL     1      26.133   0.940  52.151  1.00  0.00     0.158 C 
BRANCH  26  27
HETATM   27  C10 UNL     1      26.917   2.007  52.830  1.00  0.00     0.144 C 
HETATM   28  O1  UNL     1      27.085   2.233  54.048  1.00  0.00    -0.650 OA
BRANCH  27  29
HETATM   29  O2  UNL     1      27.540   2.858  51.958  1.00  0.00    -0.776 OA
HETATM   30  H9  UNL     1      27.008   3.410  51.306  1.00  0.00     0.167 HD
ENDBRANCH  27  29
ENDBRANCH  26  27
ENDBRANCH   8  26
TORSDOF 7
ENDMDL
MODEL 7
REMARK VINA RESULT:      -7.8      3.650      5.736
REMARK  7 active torsions:
REMARK  status: ('A' for Active; 'I' for Inactive)
REMARK    1  A    between atoms: C8_8  and  C9_9 
REMARK    2  A    between atoms: C9_9  and  C10_10 
REMARK    3  A    between atoms: C10_10  and  O2_12 
REMARK    4  A    between atoms: S1_13  and  S2_14 
REMARK    5  A    between atoms: S2_14  and  C11_15 
REMARK    6  A    between atoms: C12_16  and  C13_17 
REMARK    7  A    between atoms: C13_17  and  O4_19 
ROOT
HETATM    1  C1  UNL     1      18.728  -1.050  53.205  1.00  0.00     0.049 C 
HETATM    2  C2  UNL     1      18.569  -0.184  52.041  1.00  0.00    -0.048 A 
HETATM    3  C3  UNL     1      17.577  -0.552  51.125  1.00  0.00     0.007 A 
HETATM    4  C4  UNL     1      17.304   0.175  49.991  1.00  0.00     0.003 A 
HETATM    5  C5  UNL     1      18.064   1.300  49.795  1.00  0.00     0.031 A 
HETATM    6  C6  UNL     1      19.043   1.672  50.689  1.00  0.00     0.052 A 
HETATM    7  C7  UNL     1      19.341   0.968  51.828  1.00  0.00     0.012 A 
HETATM    8  C8  UNL     1      20.398   1.490  52.671  1.00  0.00     0.022 A 
HETATM    9  S1  UNL     1      20.971   2.945  51.892  1.00  0.00    -0.023 SA
HETATM   10  N2  UNL     1      19.796   2.847  50.441  1.00  0.00    -0.321 N 
HETATM   11  C20 UNL     1      19.826   3.853  49.417  1.00  0.00     0.165 C 
ENDROOT
BRANCH   9  12
HETATM   12  S2  UNL     1      22.415   4.224  52.444  1.00  0.00    -0.024 SA
BRANCH  12  13
HETATM   13  C11 UNL     1      23.690   4.298  51.156  1.00  0.00     0.098 C 
HETATM   14  C12 UNL     1      24.728   3.453  51.289  1.00  0.00     0.063 C 
HETATM   15  C14 UNL     1      25.235   3.641  49.933  1.00  0.00     0.101 A 
HETATM   16  C15 UNL     1      26.555   3.266  49.521  1.00  0.00    -0.011 A 
HETATM   17  C18 UNL     1      25.093   5.057  49.547  1.00  0.00     0.024 A 
HETATM   18  C16 UNL     1      27.076   4.364  48.943  1.00  0.00    -0.001 A 
HETATM   19  C17 UNL     1      26.163   5.533  48.939  1.00  0.00     0.026 A 
HETATM   20  N1  UNL     1      23.804   5.296  50.122  1.00  0.00    -0.347 N 
HETATM   21  C19 UNL     1      22.863   6.297  49.765  1.00  0.00     0.157 C 
BRANCH  14  22
HETATM   22  C13 UNL     1      25.284   2.435  52.133  1.00  0.00     0.175 C 
HETATM   23  O3  UNL     1      25.230   1.204  51.929  1.00  0.00    -0.646 OA
BRANCH  22  24
HETATM   24  O4  UNL     1      25.973   2.669  53.317  1.00  0.00    -0.773 OA
HETATM   25  H10 UNL     1      26.579   1.967  53.771  1.00  0.00     0.167 HD
ENDBRANCH  22  24
ENDBRANCH  14  22
ENDBRANCH  12  13
ENDBRANCH   9  12
BRANCH   8  26
HETATM   26  C9  UNL     1      21.003   1.021  53.908  1.00  0.00     0.158 C 
BRANCH  26  27
HETATM   27  C10 UNL     1      22.002  -0.071  53.749  1.00  0.00     0.144 C 
HETATM   28  O1  UNL     1      22.235  -1.062  54.474  1.00  0.00    -0.650 OA
BRANCH  27  29
HETATM   29  O2  UNL     1      22.771   0.060  52.624  1.00  0.00    -0.776 OA
HETATM   30  H9  UNL     1      22.876   0.952  52.171  1.00  0.00     0.167 HD
ENDBRANCH  27  29
ENDBRANCH  26  27
ENDBRANCH   8  26
TORSDOF 7
ENDMDL
MODEL 8
REMARK VINA RESULT:      -7.7      2.772      7.301
REMARK  7 active torsions:
REMARK  status: ('A' for Active; 'I' for Inactive)
REMARK    1  A    between atoms: C8_8  and  C9_9 
REMARK    2  A    between atoms: C9_9  and  C10_10 
REMARK    3  A    between atoms: C10_10  and  O2_12 
REMARK    4  A    between atoms: S1_13  and  S2_14 
REMARK    5  A    between atoms: S2_14  and  C11_15 
REMARK    6  A    between atoms: C12_16  and  C13_17 
REMARK    7  A    between atoms: C13_17  and  O4_19 
ROOT
HETATM    1  C1  UNL     1      26.738   1.420  51.596  1.00  0.00     0.049 C 
HETATM    2  C2  UNL     1      25.606   0.854  52.325  1.00  0.00    -0.048 A 
HETATM    3  C3  UNL     1      25.906  -0.155  53.248  1.00  0.00     0.007 A 
HETATM    4  C4  UNL     1      24.946  -0.769  54.016  1.00  0.00     0.003 A 
HETATM    5  C5  UNL     1      23.656  -0.339  53.833  1.00  0.00     0.031 A 
HETATM    6  C6  UNL     1      23.350   0.652  52.928  1.00  0.00     0.052 A 
HETATM    7  C7  UNL     1      24.283   1.284  52.145  1.00  0.00     0.012 A 
HETATM    8  C8  UNL     1      23.804   2.311  51.242  1.00  0.00     0.022 A 
HETATM    9  S1  UNL     1      22.075   2.401  51.478  1.00  0.00    -0.023 SA
HETATM   10  N2  UNL     1      22.001   1.063  52.781  1.00  0.00    -0.321 N 
HETATM   11  C20 UNL     1      20.744   0.695  53.370  1.00  0.00     0.165 C 
ENDROOT
BRANCH   9  12
HETATM   12  S2  UNL     1      20.710   3.576  50.594  1.00  0.00    -0.024 SA
BRANCH  12  13
HETATM   13  C11 UNL     1      21.463   4.430  49.182  1.00  0.00     0.098 C 
HETATM   14  C12 UNL     1      21.515   5.772  49.248  1.00  0.00     0.063 C 
HETATM   15  C14 UNL     1      22.451   5.931  48.139  1.00  0.00     0.101 A 
HETATM   16  C15 UNL     1      22.669   7.172  47.458  1.00  0.00    -0.011 A 
HETATM   17  C18 UNL     1      22.127   4.957  47.080  1.00  0.00     0.024 A 
HETATM   18  C16 UNL     1      22.506   6.898  46.151  1.00  0.00    -0.001 A 
HETATM   19  C17 UNL     1      22.159   5.484  45.871  1.00  0.00     0.026 A 
HETATM   20  N1  UNL     1      21.828   3.836  47.920  1.00  0.00    -0.347 N 
HETATM   21  C19 UNL     1      21.868   2.458  47.579  1.00  0.00     0.157 C 
BRANCH  14  22
HETATM   22  C13 UNL     1      21.163   6.900  50.062  1.00  0.00     0.175 C 
HETATM   23  O3  UNL     1      20.182   7.654  49.887  1.00  0.00    -0.646 OA
BRANCH  22  24
HETATM   24  O4  UNL     1      21.870   7.327  51.180  1.00  0.00    -0.773 OA
HETATM   25  H10 UNL     1      21.899   6.803  52.070  1.00  0.00     0.167 HD
ENDBRANCH  22  24
ENDBRANCH  14  22
ENDBRANCH  12  13
ENDBRANCH   9  12
BRANCH   8  26
HETATM   26  C9  UNL     1      24.466   3.156  50.261  1.00  0.00     0.158 C 
BRANCH  26  27
HETATM   27  C10 UNL     1      24.790   4.532  50.726  1.00  0.00     0.144 C 
HETATM   28  O1  UNL     1      24.122   5.325  51.422  1.00  0.00    -0.650 OA
BRANCH  27  29
HETATM   29  O2  UNL     1      26.020   4.966  50.311  1.00  0.00    -0.776 OA
HETATM   30  H9  UNL     1      26.145   5.362  49.394  1.00  0.00     0.167 HD
ENDBRANCH  27  29
ENDBRANCH  26  27
ENDBRANCH   8  26
TORSDOF 7
ENDMDL
MODEL 9
REMARK VINA RESULT:      -7.7      3.808      7.989
REMARK  7 active torsions:
REMARK  status: ('A' for Active; 'I' for Inactive)
REMARK    1  A    between atoms: C8_8  and  C9_9 
REMARK    2  A    between atoms: C9_9  and  C10_10 
REMARK    3  A    between atoms: C10_10  and  O2_12 
REMARK    4  A    between atoms: S1_13  and  S2_14 
REMARK    5  A    between atoms: S2_14  and  C11_15 
REMARK    6  A    between atoms: C12_16  and  C13_17 
REMARK    7  A    between atoms: C13_17  and  O4_19 
ROOT
HETATM    1  C1  UNL     1      20.809  -1.197  54.195  1.00  0.00     0.049 C 
HETATM    2  C2  UNL     1      22.229  -0.858  54.215  1.00  0.00    -0.048 A 
HETATM    3  C3  UNL     1      22.983  -1.412  55.257  1.00  0.00     0.007 A 
HETATM    4  C4  UNL     1      24.333  -1.193  55.394  1.00  0.00     0.003 A 
HETATM    5  C5  UNL     1      24.918  -0.391  54.447  1.00  0.00     0.031 A 
HETATM    6  C6  UNL     1      24.185   0.158  53.419  1.00  0.00     0.052 A 
HETATM    7  C7  UNL     1      22.838  -0.039  53.253  1.00  0.00     0.012 A 
HETATM    8  C8  UNL     1      22.209   0.606  52.118  1.00  0.00     0.022 A 
HETATM    9  S1  UNL     1      23.476   1.476  51.286  1.00  0.00    -0.023 SA
HETATM   10  N2  UNL     1      24.840   0.975  52.462  1.00  0.00    -0.321 N 
HETATM   11  C20 UNL     1      26.184   1.434  52.250  1.00  0.00     0.165 C 
ENDROOT
BRANCH   9  12
HETATM   12  S2  UNL     1      23.395   2.609  49.633  1.00  0.00    -0.024 SA
BRANCH  12  13
HETATM   13  C11 UNL     1      22.194   3.948  49.869  1.00  0.00     0.098 C 
HETATM   14  C12 UNL     1      21.038   3.845  49.190  1.00  0.00     0.063 C 
HETATM   15  C14 UNL     1      20.342   4.887  49.940  1.00  0.00     0.101 A 
HETATM   16  C15 UNL     1      19.140   5.521  49.488  1.00  0.00    -0.011 A 
HETATM   17  C18 UNL     1      21.277   5.988  50.235  1.00  0.00     0.024 A 
HETATM   18  C16 UNL     1      19.386   6.843  49.553  1.00  0.00    -0.001 A 
HETATM   19  C17 UNL     1      20.748   7.179  50.031  1.00  0.00     0.026 A 
HETATM   20  N1  UNL     1      22.429   5.197  50.549  1.00  0.00    -0.347 N 
HETATM   21  C19 UNL     1      23.552   5.568  51.336  1.00  0.00     0.157 C 
BRANCH  14  22
HETATM   22  C13 UNL     1      20.320   3.029  48.254  1.00  0.00     0.175 C 
HETATM   23  O3  UNL     1      20.374   3.120  47.009  1.00  0.00    -0.646 OA
BRANCH  22  24
HETATM   24  O4  UNL     1      19.447   2.004  48.597  1.00  0.00    -0.773 OA
HETATM   25  H10 UNL     1      18.419   2.102  48.579  1.00  0.00     0.167 HD
ENDBRANCH  22  24
ENDBRANCH  14  22
ENDBRANCH  12  13
ENDBRANCH   9  12
BRANCH   8  26
HETATM   26  C9  UNL     1      20.836   0.657  51.641  1.00  0.00     0.158 C 
BRANCH  26  27
HETATM   27  C10 UNL     1      20.046   1.828  52.111  1.00  0.00     0.144 C 
HETATM   28  O1  UNL     1      20.334   2.711  52.946  1.00  0.00    -0.650 OA
BRANCH  27  29
HETATM   29  O2  UNL     1      18.817   1.924  51.517  1.00  0.00    -0.776 OA
HETATM   30  H9  UNL     1      18.506   1.230  50.858  1.00  0.00     0.167 HD
ENDBRANCH  27  29
ENDBRANCH  26  27
ENDBRANCH   8  26
TORSDOF 7
ENDMDL
