MODEL 1
REMARK VINA RESULT:      -7.8      0.000      0.000
REMARK  6 active torsions:
REMARK  status: ('A' for Active; 'I' for Inactive)
REMARK    1  A    between atoms: C6_8  and  S2_9 
REMARK    2  A    between atoms: S2_9  and  C7_10 
REMARK    3  A    between atoms: C7_10  and  C8_11 
REMARK    4  A    between atoms: C8_11  and  N2_12 
REMARK    5  A    between atoms: C8_11  and  C9_13 
REMARK    6  A    between atoms: C10_14  and  O1_15 
ROOT
HETATM    1  C8  UNL     1      26.542   1.571  52.955  1.00  0.00     0.264 C 
ENDROOT
BRANCH   1   2
HETATM    2  C7  UNL     1      26.516   2.031  51.535  1.00  0.00     0.121 C 
BRANCH   2   3
HETATM    3  S2  UNL     1      25.115   3.004  51.038  1.00  0.00    -0.104 SA
BRANCH   3   4
HETATM    4  C6  UNL     1      23.571   2.146  51.137  1.00  0.00     0.145 A 
HETATM    5  N1  UNL     1      23.419   1.934  52.406  1.00  0.00    -0.230 NA
HETATM    6  C5  UNL     1      22.177   1.229  52.606  1.00  0.00     0.113 A 
HETATM    7  C4  UNL     1      21.541   0.997  51.404  1.00  0.00     0.054 A 
HETATM    8  S1  UNL     1      21.056   0.493  53.773  1.00  0.00    -0.074 SA
HETATM    9  C3  UNL     1      20.344   0.338  51.385  1.00  0.00     0.032 A 
HETATM   10  C15 UNL     1      22.434   1.588  50.428  1.00  0.00     0.220 A 
HETATM   11  C2  UNL     1      19.809  -0.075  52.569  1.00  0.00    -0.018 A 
HETATM   12  C1  UNL     1      18.623  -0.773  53.005  1.00  0.00     0.056 C 
HETATM   13  O2  UNL     1      22.486   1.743  49.204  1.00  0.00    -0.284 OA
ENDBRANCH   3   4
ENDBRANCH   2   3
ENDBRANCH   1   2
BRANCH   1  14
HETATM   14  N2  UNL     1      26.371   2.553  53.962  1.00  0.00     0.088 N 
HETATM   15  H8  UNL     1      25.864   2.227  54.774  1.00  0.00     0.313 HD
HETATM   16  H9  UNL     1      27.264   3.004  54.226  1.00  0.00     0.313 HD
ENDBRANCH   1  14
BRANCH   1  17
HETATM   17  C9  UNL     1      27.710   0.655  53.156  1.00  0.00     0.030 A 
HETATM   18  C10 UNL     1      28.992   1.154  53.435  1.00  0.00     0.075 A 
HETATM   19  C11 UNL     1      30.118   0.414  53.637  1.00  0.00     0.037 A 
HETATM   20  C12 UNL     1      30.012  -0.952  53.566  1.00  0.00     0.004 A 
HETATM   21  C13 UNL     1      28.783  -1.515  53.296  1.00  0.00     0.024 A 
HETATM   22  C14 UNL     1      27.706  -0.714  53.105  1.00  0.00     0.045 A 
HETATM   23 CL1  UNL     1      26.199  -1.529  52.780  1.00  0.00    -0.084 Cl
BRANCH  18  24
HETATM   24  O1  UNL     1      29.153   2.537  53.518  1.00  0.00    -0.360 OA
HETATM   25  H10 UNL     1      29.873   2.953  54.105  1.00  0.00     0.217 HD
ENDBRANCH  18  24
ENDBRANCH   1  17
TORSDOF 6
ENDMDL
MODEL 2
REMARK VINA RESULT:      -7.8      3.773      6.402
REMARK  6 active torsions:
REMARK  status: ('A' for Active; 'I' for Inactive)
REMARK    1  A    between atoms: C6_8  and  S2_9 
REMARK    2  A    between atoms: S2_9  and  C7_10 
REMARK    3  A    between atoms: C7_10  and  C8_11 
REMARK    4  A    between atoms: C8_11  and  N2_12 
REMARK    5  A    between atoms: C8_11  and  C9_13 
REMARK    6  A    between atoms: C10_14  and  O1_15 
ROOT
HETATM    1  C8  UNL     1      24.199   2.408  52.701  1.00  0.00     0.264 C 
ENDROOT
BRANCH   1   2
HETATM    2  C7  UNL     1      23.806   2.551  51.268  1.00  0.00     0.121 C 
BRANCH   2   3
HETATM    3  S2  UNL     1      23.902   4.185  50.575  1.00  0.00    -0.104 SA
BRANCH   3   4
HETATM    4  C6  UNL     1      25.451   4.551  49.805  1.00  0.00     0.145 A 
HETATM    5  N1  UNL     1      25.383   5.823  49.567  1.00  0.00    -0.230 NA
HETATM    6  C5  UNL     1      26.609   6.236  48.930  1.00  0.00     0.113 A 
HETATM    7  C4  UNL     1      27.467   5.168  48.768  1.00  0.00     0.054 A 
HETATM    8  S1  UNL     1      27.541   7.576  48.228  1.00  0.00    -0.074 SA
HETATM    9  C3  UNL     1      28.685   5.357  48.181  1.00  0.00     0.032 A 
HETATM   10  C15 UNL     1      26.732   4.054  49.334  1.00  0.00     0.220 A 
HETATM   11  C2  UNL     1      29.020   6.613  47.767  1.00  0.00    -0.018 A 
HETATM   12  C1  UNL     1      30.148   7.247  47.128  1.00  0.00     0.056 C 
HETATM   13  O2  UNL     1      26.894   2.844  49.519  1.00  0.00    -0.284 OA
ENDBRANCH   3   4
ENDBRANCH   2   3
ENDBRANCH   1   2
BRANCH   1  14
HETATM   14  N2  UNL     1      24.584   3.583  53.392  1.00  0.00     0.088 N 
HETATM   15  H8  UNL     1      24.799   4.365  52.788  1.00  0.00     0.313 HD
HETATM   16  H9  UNL     1      23.906   3.846  54.127  1.00  0.00     0.313 HD
ENDBRANCH   1  14
BRANCH   1  17
HETATM   17  C9  UNL     1      25.142   1.253  52.841  1.00  0.00     0.030 A 
HETATM   18  C10 UNL     1      26.529   1.419  52.702  1.00  0.00     0.075 A 
HETATM   19  C11 UNL     1      27.473   0.443  52.812  1.00  0.00     0.037 A 
HETATM   20  C12 UNL     1      27.049  -0.834  53.086  1.00  0.00     0.004 A 
HETATM   21  C13 UNL     1      25.700  -1.074  53.237  1.00  0.00     0.024 A 
HETATM   22  C14 UNL     1      24.819  -0.051  53.112  1.00  0.00     0.045 A 
HETATM   23 CL1  UNL     1      23.138  -0.462  53.332  1.00  0.00    -0.084 Cl
BRANCH  18  24
HETATM   24  O1  UNL     1      27.011   2.698  52.423  1.00  0.00    -0.360 OA
HETATM   25  H10 UNL     1      26.899   3.118  51.503  1.00  0.00     0.217 HD
ENDBRANCH  18  24
ENDBRANCH   1  17
TORSDOF 6
ENDMDL
MODEL 3
REMARK VINA RESULT:      -7.5      1.515      1.748
REMARK  6 active torsions:
REMARK  status: ('A' for Active; 'I' for Inactive)
REMARK    1  A    between atoms: C6_8  and  S2_9 
REMARK    2  A    between atoms: S2_9  and  C7_10 
REMARK    3  A    between atoms: C7_10  and  C8_11 
REMARK    4  A    between atoms: C8_11  and  N2_12 
REMARK    5  A    between atoms: C8_11  and  C9_13 
REMARK    6  A    between atoms: C10_14  and  O1_15 
ROOT
HETATM    1  C8  UNL     1      26.246   1.367  53.219  1.00  0.00     0.264 C 
ENDROOT
BRANCH   1   2
HETATM    2  C7  UNL     1      25.930   1.563  51.773  1.00  0.00     0.121 C 
BRANCH   2   3
HETATM    3  S2  UNL     1      24.302   2.164  51.387  1.00  0.00    -0.104 SA
BRANCH   3   4
HETATM    4  C6  UNL     1      22.995   1.203  52.091  1.00  0.00     0.145 A 
HETATM    5  N1  UNL     1      21.966   1.504  51.361  1.00  0.00    -0.230 NA
HETATM    6  C5  UNL     1      20.827   0.770  51.853  1.00  0.00     0.113 A 
HETATM    7  C4  UNL     1      21.172  -0.015  52.933  1.00  0.00     0.054 A 
HETATM    8  S1  UNL     1      19.094   0.417  51.670  1.00  0.00    -0.074 SA
HETATM    9  C3  UNL     1      20.225  -0.789  53.542  1.00  0.00     0.032 A 
HETATM   10  C15 UNL     1      22.586   0.251  53.107  1.00  0.00     0.220 A 
HETATM   11  C2  UNL     1      18.951  -0.762  53.055  1.00  0.00    -0.018 A 
HETATM   12  C1  UNL     1      17.688  -1.387  53.369  1.00  0.00     0.056 C 
HETATM   13  O2  UNL     1      23.503  -0.101  53.856  1.00  0.00    -0.284 OA
ENDBRANCH   3   4
ENDBRANCH   2   3
ENDBRANCH   1   2
BRANCH   1  14
HETATM   14  N2  UNL     1      26.114   2.490  54.073  1.00  0.00     0.088 N 
HETATM   15  H8  UNL     1      25.379   3.129  53.803  1.00  0.00     0.313 HD
HETATM   16  H9  UNL     1      26.036   2.218  55.068  1.00  0.00     0.313 HD
ENDBRANCH   1  14
BRANCH   1  17
HETATM   17  C9  UNL     1      27.540   0.623  53.344  1.00  0.00     0.030 A 
HETATM   18  C10 UNL     1      28.723   1.274  53.728  1.00  0.00     0.075 A 
HETATM   19  C11 UNL     1      29.949   0.697  53.876  1.00  0.00     0.037 A 
HETATM   20  C12 UNL     1      30.059  -0.649  53.632  1.00  0.00     0.004 A 
HETATM   21  C13 UNL     1      28.939  -1.355  53.252  1.00  0.00     0.024 A 
HETATM   22  C14 UNL     1      27.752  -0.712  53.124  1.00  0.00     0.045 A 
HETATM   23 CL1  UNL     1      26.397  -1.701  52.647  1.00  0.00    -0.084 Cl
BRANCH  18  24
HETATM   24  O1  UNL     1      28.663   2.643  53.988  1.00  0.00    -0.360 OA
HETATM   25  H10 UNL     1      29.036   3.036  54.850  1.00  0.00     0.217 HD
ENDBRANCH  18  24
ENDBRANCH   1  17
TORSDOF 6
ENDMDL
MODEL 4
REMARK VINA RESULT:      -7.4      2.132      2.329
REMARK  6 active torsions:
REMARK  status: ('A' for Active; 'I' for Inactive)
REMARK    1  A    between atoms: C6_8  and  S2_9 
REMARK    2  A    between atoms: S2_9  and  C7_10 
REMARK    3  A    between atoms: C7_10  and  C8_11 
REMARK    4  A    between atoms: C8_11  and  N2_12 
REMARK    5  A    between atoms: C8_11  and  C9_13 
REMARK    6  A    between atoms: C10_14  and  O1_15 
ROOT
HETATM    1  C8  UNL     1      26.582   1.493  52.830  1.00  0.00     0.264 C 
ENDROOT
BRANCH   1   2
HETATM    2  C7  UNL     1      26.580   1.891  51.391  1.00  0.00     0.121 C 
BRANCH   2   3
HETATM    3  S2  UNL     1      25.619   3.324  50.962  1.00  0.00    -0.104 SA
BRANCH   3   4
HETATM    4  C6  UNL     1      23.902   3.185  51.360  1.00  0.00     0.145 A 
HETATM    5  N1  UNL     1      23.322   3.954  50.493  1.00  0.00    -0.230 NA
HETATM    6  C5  UNL     1      21.900   3.919  50.728  1.00  0.00     0.113 A 
HETATM    7  C4  UNL     1      21.595   3.092  51.790  1.00  0.00     0.054 A 
HETATM    8  S1  UNL     1      20.296   4.499  50.230  1.00  0.00    -0.074 SA
HETATM    9  C3  UNL     1      20.293   2.927  52.170  1.00  0.00     0.032 A 
HETATM   10  C15 UNL     1      22.888   2.600  52.220  1.00  0.00     0.220 A 
HETATM   11  C2  UNL     1      19.324   3.593  51.479  1.00  0.00    -0.018 A 
HETATM   12  C1  UNL     1      17.886   3.711  51.527  1.00  0.00     0.056 C 
HETATM   13  O2  UNL     1      23.344   1.845  53.084  1.00  0.00    -0.284 OA
ENDBRANCH   3   4
ENDBRANCH   2   3
ENDBRANCH   1   2
BRANCH   1  14
HETATM   14  N2  UNL     1      26.420   2.522  53.791  1.00  0.00     0.088 N 
HETATM   15  H8  UNL     1      25.531   3.001  53.735  1.00  0.00     0.313 HD
HETATM   16  H9  UNL     1      26.617   2.195  54.752  1.00  0.00     0.313 HD
ENDBRANCH   1  14
BRANCH   1  17
HETATM   17  C9  UNL     1      27.730   0.565  53.083  1.00  0.00     0.030 A 
HETATM   18  C10 UNL     1      29.014   1.051  53.377  1.00  0.00     0.075 A 
HETATM   19  C11 UNL     1      30.123   0.300  53.626  1.00  0.00     0.037 A 
HETATM   20  C12 UNL     1      29.995  -1.066  53.592  1.00  0.00     0.004 A 
HETATM   21  C13 UNL     1      28.763  -1.617  53.310  1.00  0.00     0.024 A 
HETATM   22  C14 UNL     1      27.704  -0.805  53.072  1.00  0.00     0.045 A 
HETATM   23 CL1  UNL     1      26.192  -1.605  52.735  1.00  0.00    -0.084 Cl
BRANCH  18  24
HETATM   24  O1  UNL     1      29.195   2.434  53.424  1.00  0.00    -0.360 OA
HETATM   25  H10 UNL     1      30.111   2.854  53.276  1.00  0.00     0.217 HD
ENDBRANCH  18  24
ENDBRANCH   1  17
TORSDOF 6
ENDMDL
MODEL 5
REMARK VINA RESULT:      -7.2      3.784      7.298
REMARK  6 active torsions:
REMARK  status: ('A' for Active; 'I' for Inactive)
REMARK    1  A    between atoms: C6_8  and  S2_9 
REMARK    2  A    between atoms: S2_9  and  C7_10 
REMARK    3  A    between atoms: C7_10  and  C8_11 
REMARK    4  A    between atoms: C8_11  and  N2_12 
REMARK    5  A    between atoms: C8_11  and  C9_13 
REMARK    6  A    between atoms: C10_14  and  O1_15 
ROOT
HETATM    1  C8  UNL     1      23.468   1.480  51.641  1.00  0.00     0.264 C 
ENDROOT
BRANCH   1   2
HETATM    2  C7  UNL     1      23.913   2.813  52.144  1.00  0.00     0.121 C 
BRANCH   2   3
HETATM    3  S2  UNL     1      23.797   4.174  51.007  1.00  0.00    -0.104 SA
BRANCH   3   4
HETATM    4  C6  UNL     1      25.301   4.520  50.143  1.00  0.00     0.145 A 
HETATM    5  N1  UNL     1      25.224   5.789  49.889  1.00  0.00    -0.230 NA
HETATM    6  C5  UNL     1      26.412   6.185  49.175  1.00  0.00     0.113 A 
HETATM    7  C4  UNL     1      27.255   5.111  48.981  1.00  0.00     0.054 A 
HETATM    8  S1  UNL     1      27.308   7.510  48.400  1.00  0.00    -0.074 SA
HETATM    9  C3  UNL     1      28.438   5.285  48.321  1.00  0.00     0.032 A 
HETATM   10  C15 UNL     1      26.550   4.010  49.606  1.00  0.00     0.220 A 
HETATM   11  C2  UNL     1      28.753   6.533  47.869  1.00  0.00    -0.018 A 
HETATM   12  C1  UNL     1      29.845   7.152  47.155  1.00  0.00     0.056 C 
HETATM   13  O2  UNL     1      26.717   2.802  49.801  1.00  0.00    -0.284 OA
ENDBRANCH   3   4
ENDBRANCH   2   3
ENDBRANCH   1   2
BRANCH   1  14
HETATM   14  N2  UNL     1      22.646   1.460  50.487  1.00  0.00     0.088 N 
HETATM   15  H8  UNL     1      22.592   0.558  50.035  1.00  0.00     0.313 HD
HETATM   16  H9  UNL     1      21.706   1.853  50.667  1.00  0.00     0.313 HD
ENDBRANCH   1  14
BRANCH   1  17
HETATM   17  C9  UNL     1      22.966   0.661  52.790  1.00  0.00     0.030 A 
HETATM   18  C10 UNL     1      21.640   0.768  53.240  1.00  0.00     0.075 A 
HETATM   19  C11 UNL     1      21.080   0.072  54.269  1.00  0.00     0.037 A 
HETATM   20  C12 UNL     1      21.869  -0.825  54.944  1.00  0.00     0.004 A 
HETATM   21  C13 UNL     1      23.183  -0.985  54.558  1.00  0.00     0.024 A 
HETATM   22  C14 UNL     1      23.671  -0.256  53.524  1.00  0.00     0.045 A 
HETATM   23 CL1  UNL     1      25.341  -0.542  53.112  1.00  0.00    -0.084 Cl
BRANCH  18  24
HETATM   24  O1  UNL     1      20.796   1.666  52.587  1.00  0.00    -0.360 OA
HETATM   25  H10 UNL     1      21.167   2.415  52.005  1.00  0.00     0.217 HD
ENDBRANCH  18  24
ENDBRANCH   1  17
TORSDOF 6
ENDMDL
MODEL 6
REMARK VINA RESULT:      -7.0      4.643      5.300
REMARK  6 active torsions:
REMARK  status: ('A' for Active; 'I' for Inactive)
REMARK    1  A    between atoms: C6_8  and  S2_9 
REMARK    2  A    between atoms: S2_9  and  C7_10 
REMARK    3  A    between atoms: C7_10  and  C8_11 
REMARK    4  A    between atoms: C8_11  and  N2_12 
REMARK    5  A    between atoms: C8_11  and  C9_13 
REMARK    6  A    between atoms: C10_14  and  O1_15 
ROOT
HETATM    1  C8  UNL     1      24.451   5.810  50.863  1.00  0.00     0.264 C 
ENDROOT
BRANCH   1   2
HETATM    2  C7  UNL     1      23.217   5.559  50.061  1.00  0.00     0.121 C 
BRANCH   2   3
HETATM    3  S2  UNL     1      21.677   5.561  50.948  1.00  0.00    -0.104 SA
BRANCH   3   4
HETATM    4  C6  UNL     1      21.279   4.013  51.704  1.00  0.00     0.145 A 
HETATM    5  N1  UNL     1      22.427   3.421  51.813  1.00  0.00    -0.230 NA
HETATM    6  C5  UNL     1      22.220   2.131  52.423  1.00  0.00     0.113 A 
HETATM    7  C4  UNL     1      20.885   1.922  52.699  1.00  0.00     0.054 A 
HETATM    8  S1  UNL     1      22.964   0.624  53.001  1.00  0.00    -0.074 SA
HETATM    9  C3  UNL     1      20.486   0.753  53.280  1.00  0.00     0.032 A 
HETATM   10  C15 UNL     1      20.249   3.140  52.237  1.00  0.00     0.220 A 
HETATM   11  C2  UNL     1      21.432  -0.184  53.575  1.00  0.00    -0.018 A 
HETATM   12  C1  UNL     1      21.466  -1.501  54.165  1.00  0.00     0.056 C 
HETATM   13  O2  UNL     1      19.113   3.619  52.180  1.00  0.00    -0.284 OA
ENDBRANCH   3   4
ENDBRANCH   2   3
ENDBRANCH   1   2
BRANCH   1  14
HETATM   14  N2  UNL     1      24.426   6.892  51.777  1.00  0.00     0.088 N 
HETATM   15  H8  UNL     1      23.614   6.904  52.380  1.00  0.00     0.313 HD
HETATM   16  H9  UNL     1      25.304   6.968  52.319  1.00  0.00     0.313 HD
ENDBRANCH   1  14
BRANCH   1  17
HETATM   17  C9  UNL     1      25.644   5.773  49.958  1.00  0.00     0.030 A 
HETATM   18  C10 UNL     1      26.156   6.943  49.374  1.00  0.00     0.075 A 
HETATM   19  C11 UNL     1      27.232   7.025  48.543  1.00  0.00     0.037 A 
HETATM   20  C12 UNL     1      27.895   5.863  48.232  1.00  0.00     0.004 A 
HETATM   21  C13 UNL     1      27.449   4.674  48.769  1.00  0.00     0.024 A 
HETATM   22  C14 UNL     1      26.369   4.672  49.589  1.00  0.00     0.045 A 
HETATM   23 CL1  UNL     1      25.896   3.116  50.220  1.00  0.00    -0.084 Cl
BRANCH  18  24
HETATM   24  O1  UNL     1      25.518   8.151  49.659  1.00  0.00    -0.360 OA
HETATM   25  H10 UNL     1      25.916   8.819  50.316  1.00  0.00     0.217 HD
ENDBRANCH  18  24
ENDBRANCH   1  17
TORSDOF 6
ENDMDL
MODEL 7
REMARK VINA RESULT:      -6.9      2.210      2.629
REMARK  6 active torsions:
REMARK  status: ('A' for Active; 'I' for Inactive)
REMARK    1  A    between atoms: C6_8  and  S2_9 
REMARK    2  A    between atoms: S2_9  and  C7_10 
REMARK    3  A    between atoms: C7_10  and  C8_11 
REMARK    4  A    between atoms: C8_11  and  N2_12 
REMARK    5  A    between atoms: C8_11  and  C9_13 
REMARK    6  A    between atoms: C10_14  and  O1_15 
ROOT
HETATM    1  C8  UNL     1      25.819   0.873  53.014  1.00  0.00     0.264 C 
ENDROOT
BRANCH   1   2
HETATM    2  C7  UNL     1      24.899   0.086  53.888  1.00  0.00     0.121 C 
BRANCH   2   3
HETATM    3  S2  UNL     1      23.383  -0.475  53.148  1.00  0.00    -0.104 SA
BRANCH   3   4
HETATM    4  C6  UNL     1      22.276   0.827  52.698  1.00  0.00     0.145 A 
HETATM    5  N1  UNL     1      21.151   0.217  52.495  1.00  0.00    -0.230 NA
HETATM    6  C5  UNL     1      20.162   1.195  52.114  1.00  0.00     0.113 A 
HETATM    7  C4  UNL     1      20.706   2.462  52.081  1.00  0.00     0.054 A 
HETATM    8  S1  UNL     1      18.474   1.499  51.648  1.00  0.00    -0.074 SA
HETATM    9  C3  UNL     1      19.925   3.530  51.741  1.00  0.00     0.032 A 
HETATM   10  C15 UNL     1      22.089   2.247  52.460  1.00  0.00     0.220 A 
HETATM   11  C2  UNL     1      18.613   3.306  51.441  1.00  0.00    -0.018 A 
HETATM   12  C1  UNL     1      17.471   4.097  51.048  1.00  0.00     0.056 C 
HETATM   13  O2  UNL     1      23.111   2.919  52.630  1.00  0.00    -0.284 OA
ENDBRANCH   3   4
ENDBRANCH   2   3
ENDBRANCH   1   2
BRANCH   1  14
HETATM   14  N2  UNL     1      25.462   1.013  51.651  1.00  0.00     0.088 N 
HETATM   15  H8  UNL     1      25.956   0.388  51.028  1.00  0.00     0.313 HD
HETATM   16  H9  UNL     1      24.438   0.964  51.506  1.00  0.00     0.313 HD
ENDBRANCH   1  14
BRANCH   1  17
HETATM   17  C9  UNL     1      27.229   0.430  53.258  1.00  0.00     0.030 A 
HETATM   18  C10 UNL     1      28.192   1.309  53.779  1.00  0.00     0.075 A 
HETATM   19  C11 UNL     1      29.495   1.012  54.042  1.00  0.00     0.037 A 
HETATM   20  C12 UNL     1      29.931  -0.263  53.779  1.00  0.00     0.004 A 
HETATM   21  C13 UNL     1      29.041  -1.182  53.266  1.00  0.00     0.024 A 
HETATM   22  C14 UNL     1      27.757  -0.813  53.030  1.00  0.00     0.045 A 
HETATM   23 CL1  UNL     1      26.714  -2.055  52.389  1.00  0.00    -0.084 Cl
BRANCH  18  24
HETATM   24  O1  UNL     1      27.799   2.617  54.064  1.00  0.00    -0.360 OA
HETATM   25  H10 UNL     1      28.033   3.060  54.951  1.00  0.00     0.217 HD
ENDBRANCH  18  24
ENDBRANCH   1  17
TORSDOF 6
ENDMDL
MODEL 8
REMARK VINA RESULT:      -6.8      2.512      7.912
REMARK  6 active torsions:
REMARK  status: ('A' for Active; 'I' for Inactive)
REMARK    1  A    between atoms: C6_8  and  S2_9 
REMARK    2  A    between atoms: S2_9  and  C7_10 
REMARK    3  A    between atoms: C7_10  and  C8_11 
REMARK    4  A    between atoms: C8_11  and  N2_12 
REMARK    5  A    between atoms: C8_11  and  C9_13 
REMARK    6  A    between atoms: C10_14  and  O1_15 
ROOT
HETATM    1  C8  UNL     1      20.846   0.485  51.841  1.00  0.00     0.264 C 
ENDROOT
BRANCH   1   2
HETATM    2  C7  UNL     1      21.044   1.761  52.590  1.00  0.00     0.121 C 
BRANCH   2   3
HETATM    3  S2  UNL     1      22.599   2.589  52.356  1.00  0.00    -0.104 SA
BRANCH   3   4
HETATM    4  C6  UNL     1      24.010   1.588  52.722  1.00  0.00     0.145 A 
HETATM    5  N1  UNL     1      25.000   2.422  52.669  1.00  0.00    -0.230 NA
HETATM    6  C5  UNL     1      26.219   1.705  52.952  1.00  0.00     0.113 A 
HETATM    7  C4  UNL     1      25.964   0.371  53.188  1.00  0.00     0.054 A 
HETATM    8  S1  UNL     1      27.984   1.789  53.139  1.00  0.00    -0.074 SA
HETATM    9  C3  UNL     1      26.995  -0.478  53.476  1.00  0.00     0.032 A 
HETATM   10  C15 UNL     1      24.525   0.270  53.044  1.00  0.00     0.220 A 
HETATM   11  C2  UNL     1      28.261   0.027  53.522  1.00  0.00    -0.018 A 
HETATM   12  C1  UNL     1      29.589  -0.476  53.777  1.00  0.00     0.056 C 
HETATM   13  O2  UNL     1      23.652  -0.600  53.120  1.00  0.00    -0.284 OA
ENDBRANCH   3   4
ENDBRANCH   2   3
ENDBRANCH   1   2
BRANCH   1  14
HETATM   14  N2  UNL     1      21.199   0.473  50.469  1.00  0.00     0.088 N 
HETATM   15  H8  UNL     1      21.337  -0.453  50.086  1.00  0.00     0.313 HD
HETATM   16  H9  UNL     1      20.547   1.030  49.891  1.00  0.00     0.313 HD
ENDBRANCH   1  14
BRANCH   1  17
HETATM   17  C9  UNL     1      19.487  -0.063  52.151  1.00  0.00     0.030 A 
HETATM   18  C10 UNL     1      18.360   0.310  51.401  1.00  0.00     0.075 A 
HETATM   19  C11 UNL     1      17.084  -0.128  51.593  1.00  0.00     0.037 A 
HETATM   20  C12 UNL     1      16.856  -1.020  52.611  1.00  0.00     0.004 A 
HETATM   21  C13 UNL     1      17.916  -1.433  53.390  1.00  0.00     0.024 A 
HETATM   22  C14 UNL     1      19.159  -0.953  53.139  1.00  0.00     0.045 A 
HETATM   23 CL1  UNL     1      20.428  -1.547  54.177  1.00  0.00    -0.084 Cl
BRANCH  18  24
HETATM   24  O1  UNL     1      18.539   1.214  50.355  1.00  0.00    -0.360 OA
HETATM   25  H10 UNL     1      18.111   2.139  50.373  1.00  0.00     0.217 HD
ENDBRANCH  18  24
ENDBRANCH   1  17
TORSDOF 6
ENDMDL
MODEL 9
REMARK VINA RESULT:      -6.7      4.138      6.862
REMARK  6 active torsions:
REMARK  status: ('A' for Active; 'I' for Inactive)
REMARK    1  A    between atoms: C6_8  and  S2_9 
REMARK    2  A    between atoms: S2_9  and  C7_10 
REMARK    3  A    between atoms: C7_10  and  C8_11 
REMARK    4  A    between atoms: C8_11  and  N2_12 
REMARK    5  A    between atoms: C8_11  and  C9_13 
REMARK    6  A    between atoms: C10_14  and  O1_15 
ROOT
HETATM    1  C8  UNL     1      22.090   1.496  51.265  1.00  0.00     0.264 C 
ENDROOT
BRANCH   1   2
HETATM    2  C7  UNL     1      21.486   2.806  51.651  1.00  0.00     0.121 C 
BRANCH   2   3
HETATM    3  S2  UNL     1      22.608   4.070  52.200  1.00  0.00    -0.104 SA
BRANCH   3   4
HETATM    4  C6  UNL     1      24.040   4.255  51.179  1.00  0.00     0.145 A 
HETATM    5  N1  UNL     1      24.107   5.533  50.973  1.00  0.00    -0.230 NA
HETATM    6  C5  UNL     1      25.251   5.802  50.139  1.00  0.00     0.113 A 
HETATM    7  C4  UNL     1      25.915   4.637  49.818  1.00  0.00     0.054 A 
HETATM    8  S1  UNL     1      26.226   7.032  49.304  1.00  0.00    -0.074 SA
HETATM    9  C3  UNL     1      27.031   4.684  49.031  1.00  0.00     0.032 A 
HETATM   10  C15 UNL     1      25.142   3.611  50.488  1.00  0.00     0.220 A 
HETATM   11  C2  UNL     1      27.459   5.899  48.582  1.00  0.00    -0.018 A 
HETATM   12  C1  UNL     1      28.538   6.401  47.765  1.00  0.00     0.056 C 
HETATM   13  O2  UNL     1      25.166   2.384  50.626  1.00  0.00    -0.284 OA
ENDBRANCH   3   4
ENDBRANCH   2   3
ENDBRANCH   1   2
BRANCH   1  14
HETATM   14  N2  UNL     1      21.746   0.968  49.996  1.00  0.00     0.088 N 
HETATM   15  H8  UNL     1      22.498   0.469  49.539  1.00  0.00     0.313 HD
HETATM   16  H9  UNL     1      20.879   0.405  50.028  1.00  0.00     0.313 HD
ENDBRANCH   1  14
BRANCH   1  17
HETATM   17  C9  UNL     1      21.959   0.537  52.408  1.00  0.00     0.030 A 
HETATM   18  C10 UNL     1      23.071   0.165  53.182  1.00  0.00     0.075 A 
HETATM   19  C11 UNL     1      23.065  -0.692  54.240  1.00  0.00     0.037 A 
HETATM   20  C12 UNL     1      21.868  -1.259  54.602  1.00  0.00     0.004 A 
HETATM   21  C13 UNL     1      20.733  -0.942  53.888  1.00  0.00     0.024 A 
HETATM   22  C14 UNL     1      20.817  -0.079  52.845  1.00  0.00     0.045 A 
HETATM   23 CL1  UNL     1      19.320   0.261  52.016  1.00  0.00    -0.084 Cl
BRANCH  18  24
HETATM   24  O1  UNL     1      24.310   0.715  52.855  1.00  0.00    -0.360 OA
HETATM   25  H10 UNL     1      24.386   1.631  52.417  1.00  0.00     0.217 HD
ENDBRANCH  18  24
ENDBRANCH   1  17
TORSDOF 6
ENDMDL
