MODEL 1
REMARK VINA RESULT:      -9.1      0.000      0.000
REMARK  5 active torsions:
REMARK  status: ('A' for Active; 'I' for Inactive)
REMARK    1  A    between atoms: C7_8  and  C8_9 
REMARK    2  A    between atoms: C8_9  and  C9_11 
REMARK    3  A    between atoms: C10_12  and  C11_13 
REMARK    4  A    between atoms: C17_20  and  N2_21 
REMARK    5  A    between atoms: N2_21  and  C18_22 
ROOT
HETATM    1  C1  UNL     1      19.166   2.474  51.957  1.00  0.00     0.019 C 
HETATM    2  C2  UNL     1      20.665   2.675  52.138  1.00  0.00     0.068 C 
HETATM    3  C3  UNL     1      21.136   3.971  51.535  1.00  0.00     0.128 C 
HETATM    4  N1  UNL     1      20.348   4.490  50.525  1.00  0.00    -0.270 NA
HETATM    5  C4  UNL     1      21.349   4.173  49.352  1.00  0.00     0.193 C 
HETATM    6  C5  UNL     1      22.455   3.495  50.258  1.00  0.00     0.005 C 
HETATM    7  C6  UNL     1      22.359   2.060  50.314  1.00  0.00    -0.001 C 
HETATM    8  C7  UNL     1      21.337   1.535  51.371  1.00  0.00     0.094 C 
HETATM    9  C17 UNL     1      23.398   4.377  51.115  1.00  0.00     0.137 C 
HETATM   10  N3  UNL     1      22.551   3.838  51.988  1.00  0.00    -0.215 NA
ENDROOT
BRANCH   8  11
HETATM   11  C8  UNL     1      22.070   0.692  52.328  1.00  0.00     0.157 C 
HETATM   12  O1  UNL     1      21.227   0.106  53.092  1.00  0.00    -0.293 OA
BRANCH  11  13
HETATM   13  C9  UNL     1      23.472   0.429  52.537  1.00  0.00     0.052 C 
HETATM   14  C10 UNL     1      24.280   0.037  53.474  1.00  0.00     0.015 C 
BRANCH  14  15
HETATM   15  C11 UNL     1      25.710  -0.202  53.579  1.00  0.00    -0.036 A 
HETATM   16  C12 UNL     1      26.260  -1.123  52.740  1.00  0.00     0.013 A 
HETATM   17  C13 UNL     1      27.618  -1.387  52.801  1.00  0.00     0.024 A 
HETATM   18  C14 UNL     1      28.359  -0.677  53.737  1.00  0.00     0.034 A 
HETATM   19 CL1  UNL     1      30.085  -0.947  53.882  1.00  0.00    -0.084 Cl
HETATM   20  C15 UNL     1      27.753   0.246  54.562  1.00  0.00     0.024 A 
HETATM   21  C16 UNL     1      26.403   0.516  54.510  1.00  0.00     0.013 A 
ENDBRANCH  14  15
ENDBRANCH  11  13
ENDBRANCH   8  11
BRANCH   9  22
HETATM   22  N2  UNL     1      24.509   5.229  51.289  1.00  0.00    -0.342 N 
HETATM   23  H15 UNL     1      24.257   5.758  52.162  1.00  0.00     0.167 HD
BRANCH  22  24
HETATM   24  C18 UNL     1      25.522   5.103  50.285  1.00  0.00     0.031 A 
HETATM   25  C19 UNL     1      26.331   4.083  50.048  1.00  0.00     0.033 A 
HETATM   26 BR1  UNL     1      26.403   2.428  50.990  1.00  0.00    -0.049 Br
HETATM   27  C20 UNL     1      27.137   4.519  48.919  1.00  0.00     0.017 A 
HETATM   28  C21 UNL     1      26.823   5.733  48.508  1.00  0.00    -0.019 A 
HETATM   29  C22 UNL     1      25.727   6.244  49.364  1.00  0.00     0.085 A 
ENDBRANCH  22  24
ENDBRANCH   9  22
TORSDOF 5
ENDMDL
MODEL 2
REMARK VINA RESULT:      -9.0      3.411      6.311
REMARK  5 active torsions:
REMARK  status: ('A' for Active; 'I' for Inactive)
REMARK    1  A    between atoms: C7_8  and  C8_9 
REMARK    2  A    between atoms: C8_9  and  C9_11 
REMARK    3  A    between atoms: C10_12  and  C11_13 
REMARK    4  A    between atoms: C17_20  and  N2_21 
REMARK    5  A    between atoms: N2_21  and  C18_22 
ROOT
HETATM    1  C1  UNL     1      28.339  -1.315  53.621  1.00  0.00     0.019 C 
HETATM    2  C2  UNL     1      27.149  -0.486  53.157  1.00  0.00     0.068 C 
HETATM    3  C3  UNL     1      27.579   0.755  52.422  1.00  0.00     0.128 C 
HETATM    4  N1  UNL     1      28.849   1.219  52.710  1.00  0.00    -0.270 NA
HETATM    5  C4  UNL     1      28.383   2.483  53.525  1.00  0.00     0.193 C 
HETATM    6  C5  UNL     1      26.831   2.209  53.383  1.00  0.00     0.005 C 
HETATM    7  C6  UNL     1      26.261   1.508  54.504  1.00  0.00    -0.001 C 
HETATM    8  C7  UNL     1      26.424  -0.043  54.430  1.00  0.00     0.094 C 
HETATM    9  C17 UNL     1      26.109   2.532  52.051  1.00  0.00     0.137 C 
HETATM   10  N3  UNL     1      26.200   1.205  52.074  1.00  0.00    -0.215 NA
ENDROOT
BRANCH   8  11
HETATM   11  C8  UNL     1      25.080  -0.640  54.438  1.00  0.00     0.157 C 
HETATM   12  O1  UNL     1      25.016  -1.501  55.382  1.00  0.00    -0.293 OA
BRANCH  11  13
HETATM   13  C9  UNL     1      23.906  -0.434  53.626  1.00  0.00     0.052 C 
HETATM   14  C10 UNL     1      22.980   0.454  53.426  1.00  0.00     0.015 C 
BRANCH  14  15
HETATM   15  C11 UNL     1      21.817   0.564  52.561  1.00  0.00    -0.036 A 
HETATM   16  C12 UNL     1      22.017   0.465  51.218  1.00  0.00     0.013 A 
HETATM   17  C13 UNL     1      20.940   0.564  50.352  1.00  0.00     0.024 A 
HETATM   18  C14 UNL     1      19.688   0.761  50.920  1.00  0.00     0.034 A 
HETATM   19 CL1  UNL     1      18.270   0.896  49.899  1.00  0.00    -0.084 Cl
HETATM   20  C15 UNL     1      19.541   0.853  52.287  1.00  0.00     0.024 A 
HETATM   21  C16 UNL     1      20.605   0.757  53.157  1.00  0.00     0.013 A 
ENDBRANCH  14  15
ENDBRANCH  11  13
ENDBRANCH   8  11
BRANCH   9  22
HETATM   22  N2  UNL     1      25.516   3.416  51.124  1.00  0.00    -0.342 N 
HETATM   23  H15 UNL     1      26.310   3.626  50.468  1.00  0.00     0.167 HD
BRANCH  22  24
HETATM   24  C18 UNL     1      24.140   3.716  51.381  1.00  0.00     0.031 A 
HETATM   25  C19 UNL     1      23.129   3.759  50.528  1.00  0.00     0.033 A 
HETATM   26 BR1  UNL     1      23.190   3.428  48.652  1.00  0.00    -0.049 Br
HETATM   27  C20 UNL     1      21.982   4.113  51.348  1.00  0.00     0.017 A 
HETATM   28  C21 UNL     1      22.296   4.271  52.621  1.00  0.00    -0.019 A 
HETATM   29  C22 UNL     1      23.749   4.026  52.774  1.00  0.00     0.085 A 
ENDBRANCH  22  24
ENDBRANCH   9  22
TORSDOF 5
ENDMDL
MODEL 3
REMARK VINA RESULT:      -9.0      1.537      2.160
REMARK  5 active torsions:
REMARK  status: ('A' for Active; 'I' for Inactive)
REMARK    1  A    between atoms: C7_8  and  C8_9 
REMARK    2  A    between atoms: C8_9  and  C9_11 
REMARK    3  A    between atoms: C10_12  and  C11_13 
REMARK    4  A    between atoms: C17_20  and  N2_21 
REMARK    5  A    between atoms: N2_21  and  C18_22 
ROOT
HETATM    1  C1  UNL     1      18.617   0.318  52.334  1.00  0.00     0.019 C 
HETATM    2  C2  UNL     1      20.003   0.940  52.430  1.00  0.00     0.068 C 
HETATM    3  C3  UNL     1      20.146   2.141  51.535  1.00  0.00     0.128 C 
HETATM    4  N1  UNL     1      19.289   2.192  50.451  1.00  0.00    -0.270 NA
HETATM    5  C4  UNL     1      20.383   1.889  49.360  1.00  0.00     0.193 C 
HETATM    6  C5  UNL     1      21.592   1.749  50.372  1.00  0.00     0.005 C 
HETATM    7  C6  UNL     1      21.869   0.390  50.758  1.00  0.00    -0.001 C 
HETATM    8  C7  UNL     1      20.978  -0.129  51.931  1.00  0.00     0.094 C 
HETATM    9  C17 UNL     1      22.239   3.017  50.982  1.00  0.00     0.137 C 
HETATM   10  N3  UNL     1      21.528   2.489  51.974  1.00  0.00    -0.215 NA
ENDROOT
BRANCH   8  11
HETATM   11  C8  UNL     1      21.866  -0.510  53.039  1.00  0.00     0.157 C 
HETATM   12  O1  UNL     1      21.154  -0.765  54.071  1.00  0.00    -0.293 OA
BRANCH  11  13
HETATM   13  C9  UNL     1      23.297  -0.641  53.154  1.00  0.00     0.052 C 
HETATM   14  C10 UNL     1      24.333   0.056  53.509  1.00  0.00     0.015 C 
BRANCH  14  15
HETATM   15  C11 UNL     1      25.765  -0.180  53.590  1.00  0.00    -0.036 A 
HETATM   16  C12 UNL     1      26.445   0.407  54.613  1.00  0.00     0.013 A 
HETATM   17  C13 UNL     1      27.811   0.213  54.734  1.00  0.00     0.024 A 
HETATM   18  C14 UNL     1      28.422  -0.590  53.780  1.00  0.00     0.034 A 
HETATM   19 CL1  UNL     1      30.148  -0.891  53.857  1.00  0.00    -0.084 Cl
HETATM   20  C15 UNL     1      27.687  -1.161  52.764  1.00  0.00     0.024 A 
HETATM   21  C16 UNL     1      26.329  -0.975  52.635  1.00  0.00     0.013 A 
ENDBRANCH  14  15
ENDBRANCH  11  13
ENDBRANCH   8  11
BRANCH   9  22
HETATM   22  N2  UNL     1      23.084   4.147  50.930  1.00  0.00    -0.342 N 
HETATM   23  H15 UNL     1      22.426   4.934  51.159  1.00  0.00     0.167 HD
BRANCH  22  24
HETATM   24  C18 UNL     1      24.446   3.859  50.595  1.00  0.00     0.031 A 
HETATM   25  C19 UNL     1      25.250   4.508  49.767  1.00  0.00     0.033 A 
HETATM   26 BR1  UNL     1      24.836   6.060  48.740  1.00  0.00    -0.049 Br
HETATM   27  C20 UNL     1      26.499   3.768  49.826  1.00  0.00     0.017 A 
HETATM   28  C21 UNL     1      26.441   2.734  50.645  1.00  0.00    -0.019 A 
HETATM   29  C22 UNL     1      25.083   2.688  51.236  1.00  0.00     0.085 A 
ENDBRANCH  22  24
ENDBRANCH   9  22
TORSDOF 5
ENDMDL
MODEL 4
REMARK VINA RESULT:      -8.8      3.428      6.049
REMARK  5 active torsions:
REMARK  status: ('A' for Active; 'I' for Inactive)
REMARK    1  A    between atoms: C7_8  and  C8_9 
REMARK    2  A    between atoms: C8_9  and  C9_11 
REMARK    3  A    between atoms: C10_12  and  C11_13 
REMARK    4  A    between atoms: C17_20  and  N2_21 
REMARK    5  A    between atoms: N2_21  and  C18_22 
ROOT
HETATM    1  C1  UNL     1      27.230  -1.671  52.785  1.00  0.00     0.019 C 
HETATM    2  C2  UNL     1      26.103  -0.650  52.711  1.00  0.00     0.068 C 
HETATM    3  C3  UNL     1      26.534   0.617  52.023  1.00  0.00     0.128 C 
HETATM    4  N1  UNL     1      27.891   0.882  52.038  1.00  0.00    -0.270 NA
HETATM    5  C4  UNL     1      27.816   2.072  53.066  1.00  0.00     0.193 C 
HETATM    6  C5  UNL     1      26.250   2.009  53.279  1.00  0.00     0.005 C 
HETATM    7  C6  UNL     1      25.852   1.239  54.428  1.00  0.00    -0.001 C 
HETATM    8  C7  UNL     1      25.761  -0.297  54.160  1.00  0.00     0.094 C 
HETATM    9  C17 UNL     1      25.300   2.591  52.203  1.00  0.00     0.137 C 
HETATM   10  N3  UNL     1      25.196   1.273  52.069  1.00  0.00    -0.215 NA
ENDROOT
BRANCH   8  11
HETATM   11  C8  UNL     1      24.380  -0.723  54.435  1.00  0.00     0.157 C 
HETATM   12  O1  UNL     1      24.336  -1.260  55.595  1.00  0.00    -0.293 OA
BRANCH  11  13
HETATM   13  C9  UNL     1      23.156  -0.642  53.678  1.00  0.00     0.052 C 
HETATM   14  C10 UNL     1      22.086   0.089  53.596  1.00  0.00     0.015 C 
BRANCH  14  15
HETATM   15  C11 UNL     1      20.885   0.083  52.776  1.00  0.00    -0.036 A 
HETATM   16  C12 UNL     1      20.968   0.628  51.531  1.00  0.00     0.013 A 
HETATM   17  C13 UNL     1      19.851   0.646  50.711  1.00  0.00     0.024 A 
HETATM   18  C14 UNL     1      18.684   0.093  51.220  1.00  0.00     0.034 A 
HETATM   19 CL1  UNL     1      17.224   0.073  50.251  1.00  0.00    -0.084 Cl
HETATM   20  C15 UNL     1      18.654  -0.447  52.487  1.00  0.00     0.024 A 
HETATM   21  C16 UNL     1      19.759  -0.471  53.311  1.00  0.00     0.013 A 
ENDBRANCH  14  15
ENDBRANCH  11  13
ENDBRANCH   8  11
BRANCH   9  22
HETATM   22  N2  UNL     1      24.651   3.657  51.543  1.00  0.00    -0.342 N 
HETATM   23  H15 UNL     1      23.706   3.670  52.004  1.00  0.00     0.167 HD
BRANCH  22  24
HETATM   24  C18 UNL     1      25.436   4.302  50.534  1.00  0.00     0.031 A 
HETATM   25  C19 UNL     1      25.344   5.542  50.080  1.00  0.00     0.033 A 
HETATM   26 BR1  UNL     1      24.111   6.884  50.638  1.00  0.00    -0.049 Br
HETATM   27  C20 UNL     1      26.387   5.634  49.072  1.00  0.00     0.017 A 
HETATM   28  C21 UNL     1      27.063   4.508  48.934  1.00  0.00    -0.019 A 
HETATM   29  C22 UNL     1      26.506   3.515  49.883  1.00  0.00     0.085 A 
ENDBRANCH  22  24
ENDBRANCH   9  22
TORSDOF 5
ENDMDL
MODEL 5
REMARK VINA RESULT:      -8.5      2.698      5.058
REMARK  5 active torsions:
REMARK  status: ('A' for Active; 'I' for Inactive)
REMARK    1  A    between atoms: C7_8  and  C8_9 
REMARK    2  A    between atoms: C8_9  and  C9_11 
REMARK    3  A    between atoms: C10_12  and  C11_13 
REMARK    4  A    between atoms: C17_20  and  N2_21 
REMARK    5  A    between atoms: N2_21  and  C18_22 
ROOT
HETATM    1  C1  UNL     1      22.800   5.888  49.286  1.00  0.00     0.019 C 
HETATM    2  C2  UNL     1      23.109   4.458  49.708  1.00  0.00     0.068 C 
HETATM    3  C3  UNL     1      21.862   3.695  50.066  1.00  0.00     0.128 C 
HETATM    4  N1  UNL     1      20.777   4.457  50.457  1.00  0.00    -0.270 NA
HETATM    5  C4  UNL     1      20.839   4.064  51.980  1.00  0.00     0.193 C 
HETATM    6  C5  UNL     1      22.104   3.122  51.857  1.00  0.00     0.005 C 
HETATM    7  C6  UNL     1      23.347   3.778  52.170  1.00  0.00    -0.001 C 
HETATM    8  C7  UNL     1      23.964   4.569  50.972  1.00  0.00     0.094 C 
HETATM    9  C17 UNL     1      21.951   1.696  51.271  1.00  0.00     0.137 C 
HETATM   10  N3  UNL     1      22.551   2.395  50.312  1.00  0.00    -0.215 NA
ENDROOT
BRANCH   8  11
HETATM   11  C8  UNL     1      25.292   4.003  50.693  1.00  0.00     0.157 C 
HETATM   12  O1  UNL     1      25.925   4.798  49.915  1.00  0.00    -0.293 OA
BRANCH  11  13
HETATM   13  C9  UNL     1      25.957   2.796  51.117  1.00  0.00     0.052 C 
HETATM   14  C10 UNL     1      26.503   2.282  52.177  1.00  0.00     0.015 C 
BRANCH  14  15
HETATM   15  C11 UNL     1      27.158   1.026  52.502  1.00  0.00    -0.036 A 
HETATM   16  C12 UNL     1      28.324   1.085  53.202  1.00  0.00     0.013 A 
HETATM   17  C13 UNL     1      28.987  -0.084  53.537  1.00  0.00     0.024 A 
HETATM   18  C14 UNL     1      28.408  -1.278  53.129  1.00  0.00     0.034 A 
HETATM   19 CL1  UNL     1      29.179  -2.806  53.509  1.00  0.00    -0.084 Cl
HETATM   20  C15 UNL     1      27.225  -1.282  52.422  1.00  0.00     0.024 A 
HETATM   21  C16 UNL     1      26.558  -0.125  52.084  1.00  0.00     0.013 A 
ENDBRANCH  14  15
ENDBRANCH  11  13
ENDBRANCH   8  11
BRANCH   9  22
HETATM   22  N2  UNL     1      21.586   0.335  51.354  1.00  0.00    -0.342 N 
HETATM   23  H15 UNL     1      21.296   0.117  50.367  1.00  0.00     0.167 HD
BRANCH  22  24
HETATM   24  C18 UNL     1      21.713  -0.239  52.659  1.00  0.00     0.031 A 
HETATM   25  C19 UNL     1      20.763  -0.705  53.455  1.00  0.00     0.033 A 
HETATM   26 BR1  UNL     1      18.890  -0.756  53.105  1.00  0.00    -0.049 Br
HETATM   27  C20 UNL     1      21.476  -1.158  54.638  1.00  0.00     0.017 A 
HETATM   28  C21 UNL     1      22.780  -0.971  54.549  1.00  0.00    -0.019 A 
HETATM   29  C22 UNL     1      23.071  -0.347  53.237  1.00  0.00     0.085 A 
ENDBRANCH  22  24
ENDBRANCH   9  22
TORSDOF 5
ENDMDL
MODEL 6
REMARK VINA RESULT:      -8.5      3.189      6.609
REMARK  5 active torsions:
REMARK  status: ('A' for Active; 'I' for Inactive)
REMARK    1  A    between atoms: C7_8  and  C8_9 
REMARK    2  A    between atoms: C8_9  and  C9_11 
REMARK    3  A    between atoms: C10_12  and  C11_13 
REMARK    4  A    between atoms: C17_20  and  N2_21 
REMARK    5  A    between atoms: N2_21  and  C18_22 
ROOT
HETATM    1  C1  UNL     1      22.893   3.614  48.555  1.00  0.00     0.019 C 
HETATM    2  C2  UNL     1      23.839   3.845  49.725  1.00  0.00     0.068 C 
HETATM    3  C3  UNL     1      23.838   2.687  50.687  1.00  0.00     0.128 C 
HETATM    4  N1  UNL     1      22.702   1.900  50.684  1.00  0.00    -0.270 NA
HETATM    5  C4  UNL     1      22.154   2.393  52.076  1.00  0.00     0.193 C 
HETATM    6  C5  UNL     1      23.330   3.412  52.364  1.00  0.00     0.005 C 
HETATM    7  C6  UNL     1      23.030   4.766  51.978  1.00  0.00    -0.001 C 
HETATM    8  C7  UNL     1      23.296   5.067  50.469  1.00  0.00     0.094 C 
HETATM    9  C17 UNL     1      24.705   2.887  52.846  1.00  0.00     0.137 C 
HETATM   10  N3  UNL     1      24.901   3.235  51.578  1.00  0.00    -0.215 NA
ENDROOT
BRANCH   8  11
HETATM   11  C8  UNL     1      24.293   6.145  50.392  1.00  0.00     0.157 C 
HETATM   12  O1  UNL     1      23.823   7.184  50.974  1.00  0.00    -0.293 OA
BRANCH  11  13
HETATM   13  C9  UNL     1      25.613   6.228  49.819  1.00  0.00     0.052 C 
HETATM   14  C10 UNL     1      26.187   6.383  48.665  1.00  0.00     0.015 C 
BRANCH  14  15
HETATM   15  C11 UNL     1      27.559   6.455  48.189  1.00  0.00    -0.036 A 
HETATM   16  C12 UNL     1      27.922   7.554  47.474  1.00  0.00     0.013 A 
HETATM   17  C13 UNL     1      29.218   7.670  46.998  1.00  0.00     0.024 A 
HETATM   18  C14 UNL     1      30.092   6.631  47.287  1.00  0.00     0.034 A 
HETATM   19 CL1  UNL     1      31.751   6.694  46.724  1.00  0.00    -0.084 Cl
HETATM   20  C15 UNL     1      29.673   5.539  48.015  1.00  0.00     0.024 A 
HETATM   21  C16 UNL     1      28.387   5.414  48.493  1.00  0.00     0.013 A 
ENDBRANCH  14  15
ENDBRANCH  11  13
ENDBRANCH   8  11
BRANCH   9  22
HETATM   22  N2  UNL     1      25.586   2.386  53.829  1.00  0.00    -0.342 N 
HETATM   23  H15 UNL     1      25.500   3.099  54.597  1.00  0.00     0.167 HD
BRANCH  22  24
HETATM   24  C18 UNL     1      26.258   1.175  53.468  1.00  0.00     0.031 A 
HETATM   25  C19 UNL     1      27.558   0.932  53.419  1.00  0.00     0.033 A 
HETATM   26 BR1  UNL     1      28.972   2.146  53.821  1.00  0.00    -0.049 Br
HETATM   27  C20 UNL     1      27.649  -0.455  52.992  1.00  0.00     0.017 A 
HETATM   28  C21 UNL     1      26.465  -1.006  52.798  1.00  0.00    -0.019 A 
HETATM   29  C22 UNL     1      25.427   0.010  53.092  1.00  0.00     0.085 A 
ENDBRANCH  22  24
ENDBRANCH   9  22
TORSDOF 5
ENDMDL
MODEL 7
REMARK VINA RESULT:      -8.0      3.171      6.075
REMARK  5 active torsions:
REMARK  status: ('A' for Active; 'I' for Inactive)
REMARK    1  A    between atoms: C7_8  and  C8_9 
REMARK    2  A    between atoms: C8_9  and  C9_11 
REMARK    3  A    between atoms: C10_12  and  C11_13 
REMARK    4  A    between atoms: C17_20  and  N2_21 
REMARK    5  A    between atoms: N2_21  and  C18_22 
ROOT
HETATM    1  C1  UNL     1      23.857   6.348  48.302  1.00  0.00     0.019 C 
HETATM    2  C2  UNL     1      23.542   5.432  49.477  1.00  0.00     0.068 C 
HETATM    3  C3  UNL     1      24.771   5.105  50.282  1.00  0.00     0.128 C 
HETATM    4  N1  UNL     1      25.976   5.208  49.613  1.00  0.00    -0.270 NA
HETATM    5  C4  UNL     1      26.249   3.660  49.521  1.00  0.00     0.193 C 
HETATM    6  C5  UNL     1      24.918   3.215  50.252  1.00  0.00     0.005 C 
HETATM    7  C6  UNL     1      23.844   2.888  49.351  1.00  0.00    -0.001 C 
HETATM    8  C7  UNL     1      23.026   4.128  48.867  1.00  0.00     0.094 C 
HETATM    9  C17 UNL     1      24.809   3.325  51.793  1.00  0.00     0.137 C 
HETATM   10  N3  UNL     1      24.057   4.318  51.328  1.00  0.00    -0.215 NA
ENDROOT
BRANCH   8  11
HETATM   11  C8  UNL     1      21.627   3.936  49.280  1.00  0.00     0.157 C 
HETATM   12  O1  UNL     1      20.944   4.952  48.910  1.00  0.00    -0.293 OA
BRANCH  11  13
HETATM   13  C9  UNL     1      20.943   2.875  49.977  1.00  0.00     0.052 C 
HETATM   14  C10 UNL     1      20.935   2.292  51.136  1.00  0.00     0.015 C 
BRANCH  14  15
HETATM   15  C11 UNL     1      20.184   1.208  51.748  1.00  0.00    -0.036 A 
HETATM   16  C12 UNL     1      20.670   0.675  52.902  1.00  0.00     0.013 A 
HETATM   17  C13 UNL     1      19.991  -0.360  53.523  1.00  0.00     0.024 A 
HETATM   18  C14 UNL     1      18.824  -0.804  52.917  1.00  0.00     0.034 A 
HETATM   19 CL1  UNL     1      17.900  -2.109  53.635  1.00  0.00    -0.084 Cl
HETATM   20  C15 UNL     1      18.374  -0.230  51.748  1.00  0.00     0.024 A 
HETATM   21  C16 UNL     1      19.042   0.800  51.122  1.00  0.00     0.013 A 
ENDBRANCH  14  15
ENDBRANCH  11  13
ENDBRANCH   8  11
BRANCH   9  22
HETATM   22  N2  UNL     1      25.071   2.882  53.107  1.00  0.00    -0.342 N 
HETATM   23  H15 UNL     1      24.813   3.719  53.687  1.00  0.00     0.167 HD
BRANCH  22  24
HETATM   24  C18 UNL     1      25.574   1.544  53.197  1.00  0.00     0.031 A 
HETATM   25  C19 UNL     1      26.825   1.139  53.355  1.00  0.00     0.033 A 
HETATM   26 BR1  UNL     1      28.378   2.232  53.513  1.00  0.00    -0.049 Br
HETATM   27  C20 UNL     1      26.732  -0.312  53.376  1.00  0.00     0.017 A 
HETATM   28  C21 UNL     1      25.492  -0.745  53.239  1.00  0.00    -0.019 A 
HETATM   29  C22 UNL     1      24.602   0.432  53.107  1.00  0.00     0.085 A 
ENDBRANCH  22  24
ENDBRANCH   9  22
TORSDOF 5
ENDMDL
MODEL 8
REMARK VINA RESULT:      -8.0      4.332      6.165
REMARK  5 active torsions:
REMARK  status: ('A' for Active; 'I' for Inactive)
REMARK    1  A    between atoms: C7_8  and  C8_9 
REMARK    2  A    between atoms: C8_9  and  C9_11 
REMARK    3  A    between atoms: C10_12  and  C11_13 
REMARK    4  A    between atoms: C17_20  and  N2_21 
REMARK    5  A    between atoms: N2_21  and  C18_22 
ROOT
HETATM    1  C1  UNL     1      23.398   6.825  49.453  1.00  0.00     0.019 C 
HETATM    2  C2  UNL     1      24.893   6.928  49.724  1.00  0.00     0.068 C 
HETATM    3  C3  UNL     1      25.371   8.355  49.713  1.00  0.00     0.128 C 
HETATM    4  N1  UNL     1      24.597   9.246  48.993  1.00  0.00    -0.270 NA
HETATM    5  C4  UNL     1      25.618   9.433  47.809  1.00  0.00     0.193 C 
HETATM    6  C5  UNL     1      26.711   8.439  48.375  1.00  0.00     0.005 C 
HETATM    7  C6  UNL     1      26.618   7.108  47.835  1.00  0.00    -0.001 C 
HETATM    8  C7  UNL     1      25.581   6.199  48.568  1.00  0.00     0.094 C 
HETATM    9  C17 UNL     1      27.637   8.888  49.532  1.00  0.00     0.137 C 
HETATM   10  N3  UNL     1      26.778   8.042  50.093  1.00  0.00    -0.215 NA
ENDROOT
BRANCH   8  11
HETATM   11  C8  UNL     1      26.300   5.035  49.106  1.00  0.00     0.157 C 
HETATM   12  O1  UNL     1      27.444   4.956  48.537  1.00  0.00    -0.293 OA
BRANCH  11  13
HETATM   13  C9  UNL     1      25.965   4.041  50.095  1.00  0.00     0.052 C 
HETATM   14  C10 UNL     1      26.339   2.860  50.484  1.00  0.00     0.015 C 
BRANCH  14  15
HETATM   15  C11 UNL     1      25.924   1.928  51.518  1.00  0.00    -0.036 A 
HETATM   16  C12 UNL     1      26.776   0.913  51.833  1.00  0.00     0.013 A 
HETATM   17  C13 UNL     1      26.426  -0.002  52.812  1.00  0.00     0.024 A 
HETATM   18  C14 UNL     1      25.196   0.175  53.432  1.00  0.00     0.034 A 
HETATM   19 CL1  UNL     1      24.673  -0.936  54.683  1.00  0.00    -0.084 Cl
HETATM   20  C15 UNL     1      24.371   1.219  53.075  1.00  0.00     0.024 A 
HETATM   21  C16 UNL     1      24.709   2.135  52.103  1.00  0.00     0.013 A 
ENDBRANCH  14  15
ENDBRANCH  11  13
ENDBRANCH   8  11
BRANCH   9  22
HETATM   22  N2  UNL     1      28.743   9.589  50.058  1.00  0.00    -0.342 N 
HETATM   23  H15 UNL     1      28.344  10.029  50.925  1.00  0.00     0.167 HD
BRANCH  22  24
HETATM   24  C18 UNL     1      29.942   9.483  49.281  1.00  0.00     0.031 A 
HETATM   25  C19 UNL     1      30.725  10.450  48.831  1.00  0.00     0.033 A 
HETATM   26 BR1  UNL     1      30.497  12.327  49.079  1.00  0.00    -0.049 Br
HETATM   27  C20 UNL     1      31.781   9.753  48.114  1.00  0.00     0.017 A 
HETATM   28  C21 UNL     1      31.632   8.442  48.137  1.00  0.00    -0.019 A 
HETATM   29  C22 UNL     1      30.406   8.128  48.909  1.00  0.00     0.085 A 
ENDBRANCH  22  24
ENDBRANCH   9  22
TORSDOF 5
ENDMDL
MODEL 9
REMARK VINA RESULT:      -8.0      2.944      5.903
REMARK  5 active torsions:
REMARK  status: ('A' for Active; 'I' for Inactive)
REMARK    1  A    between atoms: C7_8  and  C8_9 
REMARK    2  A    between atoms: C8_9  and  C9_11 
REMARK    3  A    between atoms: C10_12  and  C11_13 
REMARK    4  A    between atoms: C17_20  and  N2_21 
REMARK    5  A    between atoms: N2_21  and  C18_22 
ROOT
HETATM    1  C1  UNL     1      21.691   2.842  48.557  1.00  0.00     0.019 C 
HETATM    2  C2  UNL     1      22.607   2.750  49.770  1.00  0.00     0.068 C 
HETATM    3  C3  UNL     1      22.612   1.368  50.368  1.00  0.00     0.128 C 
HETATM    4  N1  UNL     1      21.495   0.595  50.114  1.00  0.00    -0.270 NA
HETATM    5  C4  UNL     1      20.906   0.668  51.572  1.00  0.00     0.193 C 
HETATM    6  C5  UNL     1      22.052   1.584  52.167  1.00  0.00     0.005 C 
HETATM    7  C6  UNL     1      21.729   2.987  52.168  1.00  0.00    -0.001 C 
HETATM    8  C7  UNL     1      22.020   3.704  50.812  1.00  0.00     0.094 C 
HETATM    9  C17 UNL     1      23.428   0.967  52.519  1.00  0.00     0.137 C 
HETATM   10  N3  UNL     1      23.643   1.661  51.406  1.00  0.00    -0.215 NA
ENDROOT
BRANCH   8  11
HETATM   11  C8  UNL     1      22.993   4.777  51.068  1.00  0.00     0.157 C 
HETATM   12  O1  UNL     1      22.720   5.323  52.193  1.00  0.00    -0.293 OA
BRANCH  11  13
HETATM   13  C9  UNL     1      24.121   5.282  50.325  1.00  0.00     0.052 C 
HETATM   14  C10 UNL     1      25.337   4.947  50.017  1.00  0.00     0.015 C 
BRANCH  14  15
HETATM   15  C11 UNL     1      26.412   5.543  49.242  1.00  0.00    -0.036 A 
HETATM   16  C12 UNL     1      27.479   4.756  48.932  1.00  0.00     0.013 A 
HETATM   17  C13 UNL     1      28.529   5.278  48.195  1.00  0.00     0.024 A 
HETATM   18  C14 UNL     1      28.429   6.606  47.805  1.00  0.00     0.034 A 
HETATM   19 CL1  UNL     1      29.713   7.348  46.869  1.00  0.00    -0.084 Cl
HETATM   20  C15 UNL     1      27.327   7.360  48.145  1.00  0.00     0.024 A 
HETATM   21  C16 UNL     1      26.277   6.851  48.877  1.00  0.00     0.013 A 
ENDBRANCH  14  15
ENDBRANCH  11  13
ENDBRANCH   8  11
BRANCH   9  22
HETATM   22  N2  UNL     1      24.299   0.225  53.346  1.00  0.00    -0.342 N 
HETATM   23  H15 UNL     1      23.656  -0.485  53.777  1.00  0.00     0.167 HD
BRANCH  22  24
HETATM   24  C18 UNL     1      25.661   0.667  53.328  1.00  0.00     0.031 A 
HETATM   25  C19 UNL     1      26.750  -0.015  53.011  1.00  0.00     0.033 A 
HETATM   26 BR1  UNL     1      26.847  -1.840  52.467  1.00  0.00    -0.049 Br
HETATM   27  C20 UNL     1      27.833   0.940  53.174  1.00  0.00     0.017 A 
HETATM   28  C21 UNL     1      27.410   2.127  53.568  1.00  0.00    -0.019 A 
HETATM   29  C22 UNL     1      25.936   2.070  53.709  1.00  0.00     0.085 A 
ENDBRANCH  22  24
ENDBRANCH   9  22
TORSDOF 5
ENDMDL
