MODEL 1
REMARK VINA RESULT:      -8.2      0.000      0.000
REMARK  2 active torsions:
REMARK  status: ('A' for Active; 'I' for Inactive)
REMARK    1  A    between atoms: N4_14  and  N5_15 
REMARK    2  A    between atoms: N5_15  and  C9_16 
ROOT
HETATM    1  O1  UNL     1      27.019   1.705  51.174  1.00  0.00    -0.234 OA
HETATM    2  C1  UNL     1      26.900   1.663  52.369  1.00  0.00     0.406 C 
HETATM    3  O2  UNL     1      27.894   1.962  53.108  1.00  0.00    -0.270 OA
HETATM    4  C2  UNL     1      28.890   2.260  53.834  1.00  0.00     0.160 C 
HETATM    5  C3  UNL     1      29.311   0.981  53.890  1.00  0.00    -0.001 C 
HETATM    6  C4  UNL     1      28.674   0.292  54.893  1.00  0.00     0.018 C 
HETATM    7  C5  UNL     1      27.279   0.231  54.627  1.00  0.00     0.053 C 
HETATM    8  C6  UNL     1      25.957  -0.038  54.593  1.00  0.00     0.153 A 
HETATM    9  N1  UNL     1      25.372  -0.991  55.459  1.00  0.00    -0.223 NA
HETATM   10  C7  UNL     1      24.145  -1.337  55.310  1.00  0.00     0.236 A 
HETATM   11  N2  UNL     1      23.370  -0.770  54.289  1.00  0.00    -0.235 NA
HETATM   12  C8  UNL     1      23.756   0.090  53.438  1.00  0.00     0.238 A 
HETATM   13  N3  UNL     1      25.073   0.482  53.561  1.00  0.00    -0.206 N 
HETATM   14  N4  UNL     1      25.529   1.241  52.441  1.00  0.00    -0.125 N 
ENDROOT
BRANCH  14  15
HETATM   15  N5  UNL     1      24.623   1.666  51.426  1.00  0.00    -0.274 N 
HETATM   16  H6  UNL     1      24.260   1.101  50.657  1.00  0.00     0.189 HD
BRANCH  15  17
HETATM   17  C9  UNL     1      24.129   2.997  51.371  1.00  0.00     0.051 A 
HETATM   18  C10 UNL     1      23.474   3.727  52.340  1.00  0.00     0.031 A 
HETATM   19  C11 UNL     1      23.032   5.018  52.267  1.00  0.00     0.004 A 
HETATM   20  C12 UNL     1      23.261   5.689  51.077  1.00  0.00     0.024 A 
HETATM   21  C13 UNL     1      23.906   5.068  50.026  1.00  0.00     0.036 A 
HETATM   22 CL1  UNL     1      24.177   5.922  48.510  1.00  0.00    -0.084 Cl
HETATM   23  C14 UNL     1      24.300   3.771  50.228  1.00  0.00     0.054 A 
ENDBRANCH  15  17
ENDBRANCH  14  15
TORSDOF 2
ENDMDL
MODEL 2
REMARK VINA RESULT:      -8.1      1.484      1.665
REMARK  2 active torsions:
REMARK  status: ('A' for Active; 'I' for Inactive)
REMARK    1  A    between atoms: N4_14  and  N5_15 
REMARK    2  A    between atoms: N5_15  and  C9_16 
ROOT
HETATM    1  O1  UNL     1      26.781   1.676  51.154  1.00  0.00    -0.234 OA
HETATM    2  C1  UNL     1      26.716   1.649  52.354  1.00  0.00     0.406 C 
HETATM    3  O2  UNL     1      27.732   1.992  53.043  1.00  0.00    -0.270 OA
HETATM    4  C2  UNL     1      28.749   2.333  53.719  1.00  0.00     0.160 C 
HETATM    5  C3  UNL     1      29.214   1.069  53.774  1.00  0.00    -0.001 C 
HETATM    6  C4  UNL     1      28.646   0.375  54.814  1.00  0.00     0.018 C 
HETATM    7  C5  UNL     1      27.244   0.265  54.611  1.00  0.00     0.053 C 
HETATM    8  C6  UNL     1      25.930  -0.048  54.641  1.00  0.00     0.153 A 
HETATM    9  N1  UNL     1      25.417  -1.006  55.545  1.00  0.00    -0.223 NA
HETATM   10  C7  UNL     1      24.197  -1.395  55.456  1.00  0.00     0.236 A 
HETATM   11  N2  UNL     1      23.359  -0.870  54.464  1.00  0.00    -0.235 NA
HETATM   12  C8  UNL     1      23.678  -0.010  53.584  1.00  0.00     0.238 A 
HETATM   13  N3  UNL     1      24.985   0.427  53.643  1.00  0.00    -0.206 N 
HETATM   14  N4  UNL     1      25.365   1.183  52.493  1.00  0.00    -0.125 N 
ENDROOT
BRANCH  14  15
HETATM   15  N5  UNL     1      24.400   1.562  51.514  1.00  0.00    -0.274 N 
HETATM   16  H6  UNL     1      24.174   1.061  50.655  1.00  0.00     0.189 HD
BRANCH  15  17
HETATM   17  C9  UNL     1      23.637   2.755  51.637  1.00  0.00     0.051 A 
HETATM   18  C10 UNL     1      24.065   4.064  51.700  1.00  0.00     0.031 A 
HETATM   19  C11 UNL     1      23.303   5.195  51.794  1.00  0.00     0.004 A 
HETATM   20  C12 UNL     1      21.930   5.020  51.834  1.00  0.00     0.024 A 
HETATM   21  C13 UNL     1      21.374   3.758  51.781  1.00  0.00     0.036 A 
HETATM   22 CL1  UNL     1      19.628   3.544  51.852  1.00  0.00    -0.084 Cl
HETATM   23  C14 UNL     1      22.249   2.706  51.687  1.00  0.00     0.054 A 
ENDBRANCH  15  17
ENDBRANCH  14  15
TORSDOF 2
ENDMDL
MODEL 3
REMARK VINA RESULT:      -7.7      3.198      6.022
REMARK  2 active torsions:
REMARK  status: ('A' for Active; 'I' for Inactive)
REMARK    1  A    between atoms: N4_14  and  N5_15 
REMARK    2  A    between atoms: N5_15  and  C9_16 
ROOT
HETATM    1  O1  UNL     1      24.736   2.427  52.545  1.00  0.00    -0.234 OA
HETATM    2  C1  UNL     1      23.984   1.590  52.122  1.00  0.00     0.406 C 
HETATM    3  O2  UNL     1      23.423   1.767  50.991  1.00  0.00    -0.270 OA
HETATM    4  C2  UNL     1      22.869   1.954  49.866  1.00  0.00     0.160 C 
HETATM    5  C3  UNL     1      21.797   2.551  50.423  1.00  0.00    -0.001 C 
HETATM    6  C4  UNL     1      20.866   1.626  50.826  1.00  0.00     0.018 C 
HETATM    7  C5  UNL     1      21.419   0.796  51.839  1.00  0.00     0.053 C 
HETATM    8  C6  UNL     1      21.654  -0.076  52.843  1.00  0.00     0.153 A 
HETATM    9  N1  UNL     1      20.606  -0.809  53.448  1.00  0.00    -0.223 NA
HETATM   10  C7  UNL     1      20.830  -1.519  54.494  1.00  0.00     0.236 A 
HETATM   11  N2  UNL     1      22.117  -1.578  55.044  1.00  0.00    -0.235 NA
HETATM   12  C8  UNL     1      23.150  -0.975  54.616  1.00  0.00     0.238 A 
HETATM   13  N3  UNL     1      22.948  -0.196  53.496  1.00  0.00    -0.206 N 
HETATM   14  N4  UNL     1      24.058   0.655  53.209  1.00  0.00    -0.125 N 
ENDROOT
BRANCH  14  15
HETATM   15  N5  UNL     1      25.281   0.533  53.932  1.00  0.00    -0.274 N 
HETATM   16  H6  UNL     1      25.553   1.058  54.763  1.00  0.00     0.189 HD
BRANCH  15  17
HETATM   17  C9  UNL     1      26.304  -0.366  53.527  1.00  0.00     0.051 A 
HETATM   18  C10 UNL     1      26.195  -1.583  52.887  1.00  0.00     0.031 A 
HETATM   19  C11 UNL     1      27.202  -2.417  52.486  1.00  0.00     0.004 A 
HETATM   20  C12 UNL     1      28.496  -2.002  52.752  1.00  0.00     0.024 A 
HETATM   21  C13 UNL     1      28.741  -0.804  53.391  1.00  0.00     0.036 A 
HETATM   22 CL1  UNL     1      30.389  -0.295  53.741  1.00  0.00    -0.084 Cl
HETATM   23  C14 UNL     1      27.643  -0.060  53.740  1.00  0.00     0.054 A 
ENDBRANCH  15  17
ENDBRANCH  14  15
TORSDOF 2
ENDMDL
MODEL 4
REMARK VINA RESULT:      -7.4      2.649      4.342
REMARK  2 active torsions:
REMARK  status: ('A' for Active; 'I' for Inactive)
REMARK    1  A    between atoms: N4_14  and  N5_15 
REMARK    2  A    between atoms: N5_15  and  C9_16 
ROOT
HETATM    1  O1  UNL     1      22.030   2.460  52.843  1.00  0.00    -0.234 OA
HETATM    2  C1  UNL     1      22.418   1.324  52.785  1.00  0.00     0.406 C 
HETATM    3  O2  UNL     1      21.670   0.386  53.217  1.00  0.00    -0.270 OA
HETATM    4  C2  UNL     1      20.920  -0.539  53.650  1.00  0.00     0.160 C 
HETATM    5  C3  UNL     1      21.456  -0.481  54.886  1.00  0.00    -0.001 C 
HETATM    6  C4  UNL     1      22.595  -1.244  54.970  1.00  0.00     0.018 C 
HETATM    7  C5  UNL     1      23.586  -0.729  54.091  1.00  0.00     0.053 C 
HETATM    8  C6  UNL     1      24.714  -0.424  53.415  1.00  0.00     0.153 A 
HETATM    9  N1  UNL     1      25.954  -1.024  53.733  1.00  0.00    -0.223 NA
HETATM   10  C7  UNL     1      27.036  -0.612  53.177  1.00  0.00     0.236 A 
HETATM   11  N2  UNL     1      26.998   0.434  52.247  1.00  0.00    -0.235 NA
HETATM   12  C8  UNL     1      25.966   1.069  51.867  1.00  0.00     0.238 A 
HETATM   13  N3  UNL     1      24.782   0.659  52.447  1.00  0.00    -0.206 N 
HETATM   14  N4  UNL     1      23.704   1.558  52.191  1.00  0.00    -0.125 N 
ENDROOT
BRANCH  14  15
HETATM   15  N5  UNL     1      23.854   2.644  51.279  1.00  0.00    -0.274 N 
HETATM   16  H6  UNL     1      24.410   3.487  51.422  1.00  0.00     0.189 HD
BRANCH  15  17
HETATM   17  C9  UNL     1      23.189   2.665  50.023  1.00  0.00     0.051 A 
HETATM   18  C10 UNL     1      22.464   1.671  49.401  1.00  0.00     0.031 A 
HETATM   19  C11 UNL     1      21.813   1.730  48.200  1.00  0.00     0.004 A 
HETATM   20  C12 UNL     1      21.884   2.929  47.511  1.00  0.00     0.024 A 
HETATM   21  C13 UNL     1      22.582   4.002  48.025  1.00  0.00     0.036 A 
HETATM   22 CL1  UNL     1      22.682   5.517  47.133  1.00  0.00    -0.084 Cl
HETATM   23  C14 UNL     1      23.190   3.814  49.239  1.00  0.00     0.054 A 
ENDBRANCH  15  17
ENDBRANCH  14  15
TORSDOF 2
ENDMDL
MODEL 5
REMARK VINA RESULT:      -7.4      3.466      6.037
REMARK  2 active torsions:
REMARK  status: ('A' for Active; 'I' for Inactive)
REMARK    1  A    between atoms: N4_14  and  N5_15 
REMARK    2  A    between atoms: N5_15  and  C9_16 
ROOT
HETATM    1  O1  UNL     1      23.486   3.335  51.203  1.00  0.00    -0.234 OA
HETATM    2  C1  UNL     1      22.920   2.329  50.868  1.00  0.00     0.406 C 
HETATM    3  O2  UNL     1      22.653   2.143  49.635  1.00  0.00    -0.270 OA
HETATM    4  C2  UNL     1      22.391   1.967  48.408  1.00  0.00     0.160 C 
HETATM    5  C3  UNL     1      21.177   2.543  48.520  1.00  0.00    -0.001 C 
HETATM    6  C4  UNL     1      20.234   1.638  48.941  1.00  0.00     0.018 C 
HETATM    7  C5  UNL     1      20.564   1.168  50.241  1.00  0.00     0.053 C 
HETATM    8  C6  UNL     1      20.591   0.615  51.473  1.00  0.00     0.153 A 
HETATM    9  N1  UNL     1      19.473  -0.070  52.002  1.00  0.00    -0.223 NA
HETATM   10  C7  UNL     1      19.469  -0.458  53.226  1.00  0.00     0.236 A 
HETATM   11  N2  UNL     1      20.576  -0.211  54.048  1.00  0.00    -0.235 NA
HETATM   12  C8  UNL     1      21.644   0.391  53.716  1.00  0.00     0.238 A 
HETATM   13  N3  UNL     1      21.683   0.831  52.409  1.00  0.00    -0.206 N 
HETATM   14  N4  UNL     1      22.774   1.716  52.158  1.00  0.00    -0.125 N 
ENDROOT
BRANCH  14  15
HETATM   15  N5  UNL     1      23.780   1.938  53.144  1.00  0.00    -0.274 N 
HETATM   16  H6  UNL     1      23.714   2.554  53.954  1.00  0.00     0.189 HD
BRANCH  15  17
HETATM   17  C9  UNL     1      25.049   1.303  53.075  1.00  0.00     0.051 A 
HETATM   18  C10 UNL     1      25.361   0.008  52.719  1.00  0.00     0.031 A 
HETATM   19  C11 UNL     1      26.598  -0.568  52.638  1.00  0.00     0.004 A 
HETATM   20  C12 UNL     1      27.682   0.235  52.951  1.00  0.00     0.024 A 
HETATM   21  C13 UNL     1      27.504   1.551  53.326  1.00  0.00     0.036 A 
HETATM   22 CL1  UNL     1      28.886   2.560  53.741  1.00  0.00    -0.084 Cl
HETATM   23  C14 UNL     1      26.212   2.008  53.367  1.00  0.00     0.054 A 
ENDBRANCH  15  17
ENDBRANCH  14  15
TORSDOF 2
ENDMDL
MODEL 6
REMARK VINA RESULT:      -7.1      3.567      5.745
REMARK  2 active torsions:
REMARK  status: ('A' for Active; 'I' for Inactive)
REMARK    1  A    between atoms: N4_14  and  N5_15 
REMARK    2  A    between atoms: N5_15  and  C9_16 
ROOT
HETATM    1  O1  UNL     1      22.841   5.157  48.922  1.00  0.00    -0.234 OA
HETATM    2  C1  UNL     1      23.102   3.990  49.034  1.00  0.00     0.406 C 
HETATM    3  O2  UNL     1      22.654   3.164  48.173  1.00  0.00    -0.270 OA
HETATM    4  C2  UNL     1      22.203   2.350  47.312  1.00  0.00     0.160 C 
HETATM    5  C3  UNL     1      21.088   2.110  48.030  1.00  0.00    -0.001 C 
HETATM    6  C4  UNL     1      21.303   1.133  48.970  1.00  0.00     0.018 C 
HETATM    7  C5  UNL     1      22.282   1.569  49.904  1.00  0.00     0.053 C 
HETATM    8  C6  UNL     1      23.112   1.745  50.954  1.00  0.00     0.153 A 
HETATM    9  N1  UNL     1      23.099   0.868  52.064  1.00  0.00    -0.223 NA
HETATM   10  C7  UNL     1      23.790   1.138  53.113  1.00  0.00     0.236 A 
HETATM   11  N2  UNL     1      24.568   2.301  53.165  1.00  0.00    -0.235 NA
HETATM   12  C8  UNL     1      24.676   3.179  52.254  1.00  0.00     0.238 A 
HETATM   13  N3  UNL     1      23.942   2.928  51.112  1.00  0.00    -0.206 N 
HETATM   14  N4  UNL     1      23.889   4.052  50.234  1.00  0.00    -0.125 N 
ENDROOT
BRANCH  14  15
HETATM   15  N5  UNL     1      24.679   5.213  50.480  1.00  0.00    -0.274 N 
HETATM   16  H6  UNL     1      24.488   5.947  51.162  1.00  0.00     0.189 HD
BRANCH  15  17
HETATM   17  C9  UNL     1      25.862   5.485  49.741  1.00  0.00     0.051 A 
HETATM   18  C10 UNL     1      26.794   4.607  49.228  1.00  0.00     0.031 A 
HETATM   19  C11 UNL     1      27.912   4.897  48.499  1.00  0.00     0.004 A 
HETATM   20  C12 UNL     1      28.155   6.235  48.236  1.00  0.00     0.024 A 
HETATM   21  C13 UNL     1      27.299   7.215  48.696  1.00  0.00     0.036 A 
HETATM   22 CL1  UNL     1      27.625   8.915  48.374  1.00  0.00    -0.084 Cl
HETATM   23  C14 UNL     1      26.212   6.791  49.416  1.00  0.00     0.054 A 
ENDBRANCH  15  17
ENDBRANCH  14  15
TORSDOF 2
ENDMDL
MODEL 7
REMARK VINA RESULT:      -7.1      8.394     10.156
REMARK  2 active torsions:
REMARK  status: ('A' for Active; 'I' for Inactive)
REMARK    1  A    between atoms: N4_14  and  N5_15 
REMARK    2  A    between atoms: N5_15  and  C9_16 
ROOT
HETATM    1  O1  UNL     1      32.635   5.725  49.074  1.00  0.00    -0.234 OA
HETATM    2  C1  UNL     1      32.594   5.192  47.998  1.00  0.00     0.406 C 
HETATM    3  O2  UNL     1      33.097   4.030  47.856  1.00  0.00    -0.270 OA
HETATM    4  C2  UNL     1      33.602   2.874  47.725  1.00  0.00     0.160 C 
HETATM    5  C3  UNL     1      34.803   3.372  47.368  1.00  0.00    -0.001 C 
HETATM    6  C4  UNL     1      34.849   3.640  46.022  1.00  0.00     0.018 C 
HETATM    7  C5  UNL     1      33.900   4.647  45.699  1.00  0.00     0.053 C 
HETATM    8  C6  UNL     1      33.151   5.616  45.128  1.00  0.00     0.153 A 
HETATM    9  N1  UNL     1      33.419   6.086  43.822  1.00  0.00    -0.223 NA
HETATM   10  C7  UNL     1      32.791   7.105  43.357  1.00  0.00     0.236 A 
HETATM   11  N2  UNL     1      31.830   7.759  44.139  1.00  0.00    -0.235 NA
HETATM   12  C8  UNL     1      31.487   7.455  45.324  1.00  0.00     0.238 A 
HETATM   13  N3  UNL     1      32.146   6.368  45.861  1.00  0.00    -0.206 N 
HETATM   14  N4  UNL     1      31.920   6.226  47.264  1.00  0.00    -0.125 N 
ENDROOT
BRANCH  14  15
HETATM   15  N5  UNL     1      30.966   7.042  47.939  1.00  0.00    -0.274 N 
HETATM   16  H6  UNL     1      31.131   7.961  48.349  1.00  0.00     0.189 HD
BRANCH  15  17
HETATM   17  C9  UNL     1      29.625   6.617  48.138  1.00  0.00     0.051 A 
HETATM   18  C10 UNL     1      29.129   5.343  48.318  1.00  0.00     0.031 A 
HETATM   19  C11 UNL     1      27.832   4.967  48.532  1.00  0.00     0.004 A 
HETATM   20  C12 UNL     1      26.888   5.979  48.572  1.00  0.00     0.024 A 
HETATM   21  C13 UNL     1      27.255   7.298  48.403  1.00  0.00     0.036 A 
HETATM   22 CL1  UNL     1      26.045   8.577  48.437  1.00  0.00    -0.084 Cl
HETATM   23  C14 UNL     1      28.589   7.543  48.196  1.00  0.00     0.054 A 
ENDBRANCH  15  17
ENDBRANCH  14  15
TORSDOF 2
ENDMDL
MODEL 8
REMARK VINA RESULT:      -7.0      3.164      6.793
REMARK  2 active torsions:
REMARK  status: ('A' for Active; 'I' for Inactive)
REMARK    1  A    between atoms: N4_14  and  N5_15 
REMARK    2  A    between atoms: N5_15  and  C9_16 
ROOT
HETATM    1  O1  UNL     1      23.750   2.058  51.120  1.00  0.00    -0.234 OA
HETATM    2  C1  UNL     1      24.137   3.177  51.328  1.00  0.00     0.406 C 
HETATM    3  O2  UNL     1      23.417   3.969  52.019  1.00  0.00    -0.270 OA
HETATM    4  C2  UNL     1      22.692   4.750  52.706  1.00  0.00     0.160 C 
HETATM    5  C3  UNL     1      22.066   5.232  51.614  1.00  0.00    -0.001 C 
HETATM    6  C4  UNL     1      22.781   6.256  51.043  1.00  0.00     0.018 C 
HETATM    7  C5  UNL     1      24.038   5.771  50.589  1.00  0.00     0.053 C 
HETATM    8  C6  UNL     1      25.242   5.578  50.009  1.00  0.00     0.153 A 
HETATM    9  N1  UNL     1      25.826   6.554  49.169  1.00  0.00    -0.223 NA
HETATM   10  C7  UNL     1      26.898   6.290  48.513  1.00  0.00     0.236 A 
HETATM   11  N2  UNL     1      27.502   5.031  48.626  1.00  0.00    -0.235 NA
HETATM   12  C8  UNL     1      27.094   4.058  49.334  1.00  0.00     0.238 A 
HETATM   13  N3  UNL     1      25.939   4.302  50.050  1.00  0.00    -0.206 N 
HETATM   14  N4  UNL     1      25.383   3.116  50.616  1.00  0.00    -0.125 N 
ENDROOT
BRANCH  14  15
HETATM   15  N5  UNL     1      26.088   1.878  50.565  1.00  0.00    -0.274 N 
HETATM   16  H6  UNL     1      26.285   1.322  49.732  1.00  0.00     0.189 HD
BRANCH  15  17
HETATM   17  C9  UNL     1      26.591   1.254  51.738  1.00  0.00     0.051 A 
HETATM   18  C10 UNL     1      26.244   0.044  52.303  1.00  0.00     0.031 A 
HETATM   19  C11 UNL     1      26.765  -0.543  53.421  1.00  0.00     0.004 A 
HETATM   20  C12 UNL     1      27.765   0.152  54.082  1.00  0.00     0.024 A 
HETATM   21  C13 UNL     1      28.202   1.376  53.619  1.00  0.00     0.036 A 
HETATM   22 CL1  UNL     1      29.460   2.260  54.476  1.00  0.00    -0.084 Cl
HETATM   23  C14 UNL     1      27.597   1.855  52.485  1.00  0.00     0.054 A 
ENDBRANCH  15  17
ENDBRANCH  14  15
TORSDOF 2
ENDMDL
MODEL 9
REMARK VINA RESULT:      -6.8      8.009      9.924
REMARK  2 active torsions:
REMARK  status: ('A' for Active; 'I' for Inactive)
REMARK    1  A    between atoms: N4_14  and  N5_15 
REMARK    2  A    between atoms: N5_15  and  C9_16 
ROOT
HETATM    1  O1  UNL     1      27.657   9.124  50.161  1.00  0.00    -0.234 OA
HETATM    2  C1  UNL     1      28.031   8.408  49.272  1.00  0.00     0.406 C 
HETATM    3  O2  UNL     1      27.181   7.696  48.642  1.00  0.00    -0.270 OA
HETATM    4  C2  UNL     1      26.328   6.992  48.024  1.00  0.00     0.160 C 
HETATM    5  C3  UNL     1      26.495   5.946  48.858  1.00  0.00    -0.001 C 
HETATM    6  C4  UNL     1      27.554   5.163  48.468  1.00  0.00     0.018 C 
HETATM    7  C5  UNL     1      28.759   5.913  48.539  1.00  0.00     0.053 C 
HETATM    8  C6  UNL     1      30.036   6.352  48.577  1.00  0.00     0.153 A 
HETATM    9  N1  UNL     1      31.129   5.461  48.467  1.00  0.00    -0.223 NA
HETATM   10  C7  UNL     1      32.328   5.880  48.653  1.00  0.00     0.236 A 
HETATM   11  N2  UNL     1      32.567   7.225  48.964  1.00  0.00    -0.235 NA
HETATM   12  C8  UNL     1      31.691   8.135  49.098  1.00  0.00     0.238 A 
HETATM   13  N3  UNL     1      30.387   7.723  48.912  1.00  0.00    -0.206 N 
HETATM   14  N4  UNL     1      29.436   8.704  49.324  1.00  0.00    -0.125 N 
ENDROOT
BRANCH  14  15
HETATM   15  N5  UNL     1      29.851  10.013  49.705  1.00  0.00    -0.274 N 
HETATM   16  H6  UNL     1      30.280  10.283  50.590  1.00  0.00     0.189 HD
BRANCH  15  17
HETATM   17  C9  UNL     1      29.673  11.134  48.850  1.00  0.00     0.051 A 
HETATM   18  C10 UNL     1      28.814  12.205  48.979  1.00  0.00     0.031 A 
HETATM   19  C11 UNL     1      28.683  13.284  48.151  1.00  0.00     0.004 A 
HETATM   20  C12 UNL     1      29.507  13.319  47.038  1.00  0.00     0.024 A 
HETATM   21  C13 UNL     1      30.410  12.306  46.793  1.00  0.00     0.036 A 
HETATM   22 CL1  UNL     1      31.441  12.349  45.365  1.00  0.00    -0.084 Cl
HETATM   23  C14 UNL     1      30.443  11.279  47.702  1.00  0.00     0.054 A 
ENDBRANCH  15  17
ENDBRANCH  14  15
TORSDOF 2
ENDMDL
