MODEL 1
REMARK VINA RESULT:      -8.3      0.000      0.000
REMARK  2 active torsions:
REMARK  status: ('A' for Active; 'I' for Inactive)
REMARK    1  A    between atoms: C1_2  and  N2_3 
REMARK    2  A    between atoms: C2_4  and  C3_5 
ROOT
HETATM    1  C3  UNL     1      26.234   0.077  54.447  1.00  0.00     0.185 C 
HETATM    2  C4  UNL     1      26.019   0.599  53.050  1.00  0.00     0.012 C 
HETATM    3  C5  UNL     1      24.885   0.769  52.347  1.00  0.00     0.029 C 
HETATM    4  C6  UNL     1      23.489   0.517  52.671  1.00  0.00     0.042 C 
HETATM    5  C7  UNL     1      22.893  -0.153  53.643  1.00  0.00     0.041 C 
HETATM    6  C8  UNL     1      21.487  -0.391  53.945  1.00  0.00     0.059 C 
HETATM    7  C9  UNL     1      20.355  -0.270  53.230  1.00  0.00     0.117 C 
HETATM    8  F1  UNL     1      19.199  -0.595  53.874  1.00  0.00    -0.206 F 
HETATM    9  C10 UNL     1      20.089   0.158  51.841  1.00  0.00     0.040 C 
HETATM   10  C11 UNL     1      20.748   1.030  51.097  1.00  0.00    -0.004 C 
HETATM   11  C12 UNL     1      21.885   1.950  51.083  1.00  0.00     0.147 C 
HETATM   12  N3  UNL     1      23.075   1.271  51.538  1.00  0.00    -0.386 N 
HETATM   13  C13 UNL     1      23.224  -0.940  54.825  1.00  0.00     0.185 C 
HETATM   14  O1  UNL     1      22.223  -1.453  55.343  1.00  0.00    -0.290 OA
HETATM   15  C14 UNL     1      24.553  -1.179  55.438  1.00  0.00     0.253 C 
HETATM   16  O2  UNL     1      25.582  -1.136  54.524  1.00  0.00    -0.369 OA
HETATM   17  H12 UNL     1      23.909   1.314  50.881  1.00  0.00     0.160 HD
ENDROOT
BRANCH   1  18
HETATM   18  C2  UNL     1      27.697   0.002  54.650  1.00  0.00     0.126 C 
HETATM   19  N2  UNL     1      28.460  -0.647  53.812  1.00  0.00    -0.256 NA
BRANCH  19  20
HETATM   20  C1  UNL     1      29.852  -0.766  53.931  1.00  0.00     0.222 C 
HETATM   21  N1  UNL     1      30.072   0.426  53.486  1.00  0.00    -0.293 NA
HETATM   22  H1  UNL     1      29.335   1.094  53.191  1.00  0.00     0.187 HD
ENDBRANCH  19  20
ENDBRANCH   1  18
TORSDOF 2
ENDMDL
MODEL 2
REMARK VINA RESULT:      -7.9      3.386      6.961
REMARK  2 active torsions:
REMARK  status: ('A' for Active; 'I' for Inactive)
REMARK    1  A    between atoms: C1_2  and  N2_3 
REMARK    2  A    between atoms: C2_4  and  C3_5 
ROOT
HETATM    1  C3  UNL     1      20.863   0.008  53.202  1.00  0.00     0.185 C 
HETATM    2  C4  UNL     1      21.833  -0.821  54.003  1.00  0.00     0.012 C 
HETATM    3  C5  UNL     1      23.174  -0.765  54.077  1.00  0.00     0.029 C 
HETATM    4  C6  UNL     1      24.153   0.093  53.427  1.00  0.00     0.042 C 
HETATM    5  C7  UNL     1      24.084   0.931  52.406  1.00  0.00     0.041 C 
HETATM    6  C8  UNL     1      25.084   1.781  51.773  1.00  0.00     0.059 C 
HETATM    7  C9  UNL     1      26.428   1.810  51.804  1.00  0.00     0.117 C 
HETATM    8  F1  UNL     1      27.027   2.779  51.059  1.00  0.00    -0.206 F 
HETATM    9  C10 UNL     1      27.429   0.979  52.503  1.00  0.00     0.040 C 
HETATM   10  C11 UNL     1      27.335   0.362  53.668  1.00  0.00    -0.004 C 
HETATM   11  C12 UNL     1      26.446   0.109  54.802  1.00  0.00     0.147 C 
HETATM   12  N3  UNL     1      25.160  -0.347  54.329  1.00  0.00    -0.386 N 
HETATM   13  C13 UNL     1      23.117   1.440  51.441  1.00  0.00     0.185 C 
HETATM   14  O1  UNL     1      23.645   2.169  50.589  1.00  0.00    -0.290 OA
HETATM   15  C14 UNL     1      21.657   1.193  51.372  1.00  0.00     0.253 C 
HETATM   16  O2  UNL     1      21.293  -0.029  51.893  1.00  0.00    -0.369 OA
HETATM   17  H12 UNL     1      24.820  -1.268  54.737  1.00  0.00     0.160 HD
ENDROOT
BRANCH   1  18
HETATM   18  C2  UNL     1      19.523  -0.575  53.425  1.00  0.00     0.126 C 
HETATM   19  N2  UNL     1      18.611  -0.542  52.491  1.00  0.00    -0.256 NA
BRANCH  19  20
HETATM   20  C1  UNL     1      17.319  -1.071  52.621  1.00  0.00     0.222 C 
HETATM   21  N1  UNL     1      17.472  -1.350  53.873  1.00  0.00    -0.293 NA
HETATM   22  H1  UNL     1      18.336  -1.169  54.419  1.00  0.00     0.187 HD
ENDBRANCH  19  20
ENDBRANCH   1  18
TORSDOF 2
ENDMDL
MODEL 3
REMARK VINA RESULT:      -7.9      2.964      4.179
REMARK  2 active torsions:
REMARK  status: ('A' for Active; 'I' for Inactive)
REMARK    1  A    between atoms: C1_2  and  N2_3 
REMARK    2  A    between atoms: C2_4  and  C3_5 
ROOT
HETATM    1  C3  UNL     1      25.859   2.575  51.236  1.00  0.00     0.185 C 
HETATM    2  C4  UNL     1      24.413   2.638  50.817  1.00  0.00     0.012 C 
HETATM    3  C5  UNL     1      23.331   2.019  51.322  1.00  0.00     0.029 C 
HETATM    4  C6  UNL     1      23.166   1.090  52.428  1.00  0.00     0.042 C 
HETATM    5  C7  UNL     1      24.019   0.380  53.149  1.00  0.00     0.041 C 
HETATM    6  C8  UNL     1      23.826  -0.548  54.256  1.00  0.00     0.059 C 
HETATM    7  C9  UNL     1      22.756  -1.207  54.735  1.00  0.00     0.117 C 
HETATM    8  F1  UNL     1      22.976  -2.006  55.815  1.00  0.00    -0.206 F 
HETATM    9  C10 UNL     1      21.339  -1.248  54.319  1.00  0.00     0.040 C 
HETATM   10  C11 UNL     1      20.606  -0.301  53.759  1.00  0.00    -0.004 C 
HETATM   11  C12 UNL     1      20.629   1.079  53.274  1.00  0.00     0.147 C 
HETATM   12  N3  UNL     1      21.756   1.274  52.392  1.00  0.00    -0.386 N 
HETATM   13  C13 UNL     1      25.451   0.132  53.260  1.00  0.00     0.185 C 
HETATM   14  O1  UNL     1      25.710  -0.756  54.085  1.00  0.00    -0.290 OA
HETATM   15  C14 UNL     1      26.566   0.788  52.536  1.00  0.00     0.253 C 
HETATM   16  O2  UNL     1      26.202   1.241  51.287  1.00  0.00    -0.369 OA
HETATM   17  H12 UNL     1      21.526   1.662  51.430  1.00  0.00     0.160 HD
ENDROOT
BRANCH   1  18
HETATM   18  C2  UNL     1      26.620   3.369  50.248  1.00  0.00     0.126 C 
HETATM   19  N2  UNL     1      26.131   4.473  49.750  1.00  0.00    -0.256 NA
BRANCH  19  20
HETATM   20  C1  UNL     1      26.785   5.282  48.811  1.00  0.00     0.222 C 
HETATM   21  N1  UNL     1      27.962   4.968  49.243  1.00  0.00    -0.293 NA
HETATM   22  H1  UNL     1      28.151   4.319  50.030  1.00  0.00     0.187 HD
ENDBRANCH  19  20
ENDBRANCH   1  18
TORSDOF 2
ENDMDL
MODEL 4
REMARK VINA RESULT:      -7.8      1.194      1.397
REMARK  2 active torsions:
REMARK  status: ('A' for Active; 'I' for Inactive)
REMARK    1  A    between atoms: C1_2  and  N2_3 
REMARK    2  A    between atoms: C2_4  and  C3_5 
ROOT
HETATM    1  C3  UNL     1      25.076   0.545  53.930  1.00  0.00     0.185 C 
HETATM    2  C4  UNL     1      24.647   1.138  52.613  1.00  0.00     0.012 C 
HETATM    3  C5  UNL     1      23.438   1.174  52.025  1.00  0.00     0.029 C 
HETATM    4  C6  UNL     1      22.138   0.666  52.435  1.00  0.00     0.042 C 
HETATM    5  C7  UNL     1      21.753  -0.174  53.382  1.00  0.00     0.041 C 
HETATM    6  C8  UNL     1      20.438  -0.668  53.772  1.00  0.00     0.059 C 
HETATM    7  C9  UNL     1      19.237  -0.679  53.168  1.00  0.00     0.117 C 
HETATM    8  F1  UNL     1      18.216  -1.246  53.867  1.00  0.00    -0.206 F 
HETATM    9  C10 UNL     1      18.775  -0.187  51.853  1.00  0.00     0.040 C 
HETATM   10  C11 UNL     1      19.211   0.842  51.147  1.00  0.00    -0.004 C 
HETATM   11  C12 UNL     1      20.181   1.937  51.130  1.00  0.00     0.147 C 
HETATM   12  N3  UNL     1      21.502   1.431  51.419  1.00  0.00    -0.386 N 
HETATM   13  C13 UNL     1      22.317  -0.990  54.450  1.00  0.00     0.185 C 
HETATM   14  O1  UNL     1      21.465  -1.705  54.995  1.00  0.00    -0.290 OA
HETATM   15  C14 UNL     1      23.720  -1.053  54.927  1.00  0.00     0.253 C 
HETATM   16  O2  UNL     1      24.636  -0.762  53.940  1.00  0.00    -0.369 OA
HETATM   17  H12 UNL     1      22.252   1.667  50.704  1.00  0.00     0.160 HD
ENDROOT
BRANCH   1  18
HETATM   18  C2  UNL     1      26.545   0.699  54.005  1.00  0.00     0.126 C 
HETATM   19  N2  UNL     1      27.274  -0.132  54.700  1.00  0.00    -0.256 NA
BRANCH  19  20
HETATM   20  C1  UNL     1      28.668  -0.057  54.823  1.00  0.00     0.222 C 
HETATM   21  N1  UNL     1      28.689   1.230  54.707  1.00  0.00    -0.293 NA
HETATM   22  H1  UNL     1      27.850   1.826  54.573  1.00  0.00     0.187 HD
ENDBRANCH  19  20
ENDBRANCH   1  18
TORSDOF 2
ENDMDL
MODEL 5
REMARK VINA RESULT:      -7.8      2.078      2.557
REMARK  2 active torsions:
REMARK  status: ('A' for Active; 'I' for Inactive)
REMARK    1  A    between atoms: C1_2  and  N2_3 
REMARK    2  A    between atoms: C2_4  and  C3_5 
ROOT
HETATM    1  C3  UNL     1      26.170   0.125  53.814  1.00  0.00     0.185 C 
HETATM    2  C4  UNL     1      26.443   1.478  53.208  1.00  0.00     0.012 C 
HETATM    3  C5  UNL     1      25.594   2.425  52.772  1.00  0.00     0.029 C 
HETATM    4  C6  UNL     1      24.142   2.489  52.728  1.00  0.00     0.042 C 
HETATM    5  C7  UNL     1      23.191   1.581  52.882  1.00  0.00     0.041 C 
HETATM    6  C8  UNL     1      21.738   1.673  52.832  1.00  0.00     0.059 C 
HETATM    7  C9  UNL     1      20.885   2.595  52.353  1.00  0.00     0.117 C 
HETATM    8  F1  UNL     1      19.559   2.318  52.491  1.00  0.00    -0.206 F 
HETATM    9  C10 UNL     1      21.091   3.894  51.681  1.00  0.00     0.040 C 
HETATM   10  C11 UNL     1      22.074   4.765  51.833  1.00  0.00    -0.004 C 
HETATM   11  C12 UNL     1      23.319   5.027  52.556  1.00  0.00     0.147 C 
HETATM   12  N3  UNL     1      24.196   3.884  52.459  1.00  0.00    -0.386 N 
HETATM   13  C13 UNL     1      23.039   0.158  53.156  1.00  0.00     0.185 C 
HETATM   14  O1  UNL     1      21.859  -0.211  53.083  1.00  0.00    -0.290 OA
HETATM   15  C14 UNL     1      24.084  -0.839  53.493  1.00  0.00     0.253 C 
HETATM   16  O2  UNL     1      25.314  -0.531  52.955  1.00  0.00    -0.369 OA
HETATM   17  H12 UNL     1      25.171   4.083  52.086  1.00  0.00     0.160 HD
ENDROOT
BRANCH   1  18
HETATM   18  C2  UNL     1      27.483  -0.531  53.993  1.00  0.00     0.126 C 
HETATM   19  N2  UNL     1      27.900  -1.441  53.154  1.00  0.00    -0.256 NA
BRANCH  19  20
HETATM   20  C1  UNL     1      29.129  -2.110  53.251  1.00  0.00     0.222 C 
HETATM   21  N1  UNL     1      28.578  -3.276  53.327  1.00  0.00    -0.293 NA
HETATM   22  H1  UNL     1      27.555  -3.451  53.306  1.00  0.00     0.187 HD
ENDBRANCH  19  20
ENDBRANCH   1  18
TORSDOF 2
ENDMDL
MODEL 6
REMARK VINA RESULT:      -7.6      2.581      3.525
REMARK  2 active torsions:
REMARK  status: ('A' for Active; 'I' for Inactive)
REMARK    1  A    between atoms: C1_2  and  N2_3 
REMARK    2  A    between atoms: C2_4  and  C3_5 
ROOT
HETATM    1  C3  UNL     1      26.543   0.270  52.454  1.00  0.00     0.185 C 
HETATM    2  C4  UNL     1      25.476  -0.471  53.218  1.00  0.00     0.012 C 
HETATM    3  C5  UNL     1      24.159  -0.229  53.334  1.00  0.00     0.029 C 
HETATM    4  C6  UNL     1      23.305   0.811  52.781  1.00  0.00     0.042 C 
HETATM    5  C7  UNL     1      23.556   1.963  52.181  1.00  0.00     0.041 C 
HETATM    6  C8  UNL     1      22.678   2.990  51.635  1.00  0.00     0.059 C 
HETATM    7  C9  UNL     1      21.372   3.267  51.787  1.00  0.00     0.117 C 
HETATM    8  F1  UNL     1      20.898   4.339  51.093  1.00  0.00    -0.206 F 
HETATM    9  C10 UNL     1      20.300   2.629  52.579  1.00  0.00     0.040 C 
HETATM   10  C11 UNL     1      20.152   1.358  52.910  1.00  0.00    -0.004 C 
HETATM   11  C12 UNL     1      20.749   0.028  52.787  1.00  0.00     0.147 C 
HETATM   12  N3  UNL     1      22.145   0.077  53.151  1.00  0.00    -0.386 N 
HETATM   13  C13 UNL     1      24.687   2.783  51.764  1.00  0.00     0.185 C 
HETATM   14  O1  UNL     1      24.330   3.882  51.316  1.00  0.00    -0.290 OA
HETATM   15  C14 UNL     1      26.134   2.463  51.814  1.00  0.00     0.253 C 
HETATM   16  O2  UNL     1      26.457   1.593  52.832  1.00  0.00    -0.369 OA
HETATM   17  H12 UNL     1      22.448  -0.607  53.906  1.00  0.00     0.160 HD
ENDROOT
BRANCH   1  18
HETATM   18  C2  UNL     1      27.829  -0.381  52.784  1.00  0.00     0.126 C 
HETATM   19  N2  UNL     1      27.883  -1.651  53.080  1.00  0.00    -0.256 NA
BRANCH  19  20
HETATM   20  C1  UNL     1      29.058  -2.344  53.404  1.00  0.00     0.222 C 
HETATM   21  N1  UNL     1      28.556  -3.496  53.105  1.00  0.00    -0.293 NA
HETATM   22  H1  UNL     1      27.590  -3.650  52.760  1.00  0.00     0.187 HD
ENDBRANCH  19  20
ENDBRANCH   1  18
TORSDOF 2
ENDMDL
MODEL 7
REMARK VINA RESULT:      -7.5      2.006      2.940
REMARK  2 active torsions:
REMARK  status: ('A' for Active; 'I' for Inactive)
REMARK    1  A    between atoms: C1_2  and  N2_3 
REMARK    2  A    between atoms: C2_4  and  C3_5 
ROOT
HETATM    1  C3  UNL     1      26.534   0.279  52.948  1.00  0.00     0.185 C 
HETATM    2  C4  UNL     1      25.807  -0.384  54.090  1.00  0.00     0.012 C 
HETATM    3  C5  UNL     1      24.493  -0.586  54.287  1.00  0.00     0.029 C 
HETATM    4  C6  UNL     1      23.323  -0.246  53.492  1.00  0.00     0.042 C 
HETATM    5  C7  UNL     1      23.137   0.549  52.451  1.00  0.00     0.041 C 
HETATM    6  C8  UNL     1      21.949   0.873  51.670  1.00  0.00     0.059 C 
HETATM    7  C9  UNL     1      20.631   0.718  51.885  1.00  0.00     0.117 C 
HETATM    8  F1  UNL     1      19.805   1.157  50.895  1.00  0.00    -0.206 F 
HETATM    9  C10 UNL     1      19.861   0.153  53.011  1.00  0.00     0.040 C 
HETATM   10  C11 UNL     1      20.192  -0.820  53.843  1.00  0.00    -0.004 C 
HETATM   11  C12 UNL     1      21.244  -1.780  54.179  1.00  0.00     0.147 C 
HETATM   12  N3  UNL     1      22.514  -1.102  54.288  1.00  0.00    -0.386 N 
HETATM   13  C13 UNL     1      23.888   1.447  51.581  1.00  0.00     0.185 C 
HETATM   14  O1  UNL     1      23.155   2.052  50.787  1.00  0.00    -0.290 OA
HETATM   15  C14 UNL     1      25.348   1.699  51.547  1.00  0.00     0.253 C 
HETATM   16  O2  UNL     1      25.954   1.516  52.771  1.00  0.00    -0.369 OA
HETATM   17  H12 UNL     1      23.036  -1.248  55.203  1.00  0.00     0.160 HD
ENDROOT
BRANCH   1  18
HETATM   18  C2  UNL     1      27.964   0.318  53.323  1.00  0.00     0.126 C 
HETATM   19  N2  UNL     1      28.679  -0.774  53.361  1.00  0.00    -0.256 NA
BRANCH  19  20
HETATM   20  C1  UNL     1      30.037  -0.824  53.705  1.00  0.00     0.222 C 
HETATM   21  N1  UNL     1      30.227   0.430  53.463  1.00  0.00    -0.293 NA
HETATM   22  H1  UNL     1      29.496   1.087  53.132  1.00  0.00     0.187 HD
ENDBRANCH  19  20
ENDBRANCH   1  18
TORSDOF 2
ENDMDL
MODEL 8
REMARK VINA RESULT:      -7.1      3.615      5.384
REMARK  2 active torsions:
REMARK  status: ('A' for Active; 'I' for Inactive)
REMARK    1  A    between atoms: C1_2  and  N2_3 
REMARK    2  A    between atoms: C2_4  and  C3_5 
ROOT
HETATM    1  C3  UNL     1      23.254   4.599  51.316  1.00  0.00     0.185 C 
HETATM    2  C4  UNL     1      24.224   3.719  52.062  1.00  0.00     0.012 C 
HETATM    3  C5  UNL     1      24.033   2.545  52.688  1.00  0.00     0.029 C 
HETATM    4  C6  UNL     1      22.851   1.716  52.869  1.00  0.00     0.042 C 
HETATM    5  C7  UNL     1      21.558   1.932  52.686  1.00  0.00     0.041 C 
HETATM    6  C8  UNL     1      20.391   1.081  52.876  1.00  0.00     0.059 C 
HETATM    7  C9  UNL     1      20.182  -0.069  53.542  1.00  0.00     0.117 C 
HETATM    8  F1  UNL     1      18.920  -0.576  53.488  1.00  0.00    -0.206 F 
HETATM    9  C10 UNL     1      21.068  -0.930  54.352  1.00  0.00     0.040 C 
HETATM   10  C11 UNL     1      22.367  -1.145  54.224  1.00  0.00    -0.004 C 
HETATM   11  C12 UNL     1      23.549  -0.803  53.433  1.00  0.00     0.147 C 
HETATM   12  N3  UNL     1      23.660   0.631  53.306  1.00  0.00    -0.386 N 
HETATM   13  C13 UNL     1      20.652   2.986  52.248  1.00  0.00     0.185 C 
HETATM   14  O1  UNL     1      19.462   2.666  52.378  1.00  0.00    -0.290 OA
HETATM   15  C14 UNL     1      20.981   4.322  51.696  1.00  0.00     0.253 C 
HETATM   16  O2  UNL     1      22.183   4.813  52.157  1.00  0.00    -0.369 OA
HETATM   17  H12 UNL     1      24.587   1.050  53.613  1.00  0.00     0.160 HD
ENDROOT
BRANCH   1  18
HETATM   18  C2  UNL     1      23.994   5.822  50.939  1.00  0.00     0.126 C 
HETATM   19  N2  UNL     1      25.078   5.755  50.214  1.00  0.00    -0.256 NA
BRANCH  19  20
HETATM   20  C1  UNL     1      25.838   6.863  49.814  1.00  0.00     0.222 C 
HETATM   21  N1  UNL     1      25.769   7.429  50.973  1.00  0.00    -0.293 NA
HETATM   22  H1  UNL     1      25.270   7.038  51.795  1.00  0.00     0.187 HD
ENDBRANCH  19  20
ENDBRANCH   1  18
TORSDOF 2
ENDMDL
MODEL 9
REMARK VINA RESULT:      -6.9      2.732      6.689
REMARK  2 active torsions:
REMARK  status: ('A' for Active; 'I' for Inactive)
REMARK    1  A    between atoms: C1_2  and  N2_3 
REMARK    2  A    between atoms: C2_4  and  C3_5 
ROOT
HETATM    1  C3  UNL     1      20.156   0.221  51.605  1.00  0.00     0.185 C 
HETATM    2  C4  UNL     1      21.276   1.088  51.091  1.00  0.00     0.012 C 
HETATM    3  C5  UNL     1      22.552   1.198  51.500  1.00  0.00     0.029 C 
HETATM    4  C6  UNL     1      23.297   0.538  52.561  1.00  0.00     0.042 C 
HETATM    5  C7  UNL     1      22.934  -0.201  53.596  1.00  0.00     0.041 C 
HETATM    6  C8  UNL     1      23.705  -0.852  54.648  1.00  0.00     0.059 C 
HETATM    7  C9  UNL     1      24.965  -0.711  55.093  1.00  0.00     0.117 C 
HETATM    8  F1  UNL     1      25.334  -1.521  56.124  1.00  0.00    -0.206 F 
HETATM    9  C10 UNL     1      26.077   0.171  54.685  1.00  0.00     0.040 C 
HETATM   10  C11 UNL     1      26.360   0.658  53.489  1.00  0.00    -0.004 C 
HETATM   11  C12 UNL     1      25.925   0.686  52.092  1.00  0.00     0.147 C 
HETATM   12  N3  UNL     1      24.522   1.016  52.018  1.00  0.00    -0.386 N 
HETATM   13  C13 UNL     1      21.730  -0.736  54.221  1.00  0.00     0.185 C 
HETATM   14  O1  UNL     1      21.973  -1.307  55.293  1.00  0.00    -0.290 OA
HETATM   15  C14 UNL     1      20.330  -0.673  53.739  1.00  0.00     0.253 C 
HETATM   16  O2  UNL     1      20.076   0.437  52.964  1.00  0.00    -0.369 OA
HETATM   17  H12 UNL     1      24.276   1.843  51.397  1.00  0.00     0.160 HD
ENDROOT
BRANCH   1  18
HETATM   18  C2  UNL     1      18.943   0.604  50.850  1.00  0.00     0.126 C 
HETATM   19  N2  UNL     1      17.898  -0.178  50.815  1.00  0.00    -0.256 NA
BRANCH  19  20
HETATM   20  C1  UNL     1      16.712   0.109  50.125  1.00  0.00     0.222 C 
HETATM   21  N1  UNL     1      17.308   0.839  49.242  1.00  0.00    -0.293 NA
HETATM   22  H1  UNL     1      18.328   1.030  49.222  1.00  0.00     0.187 HD
ENDBRANCH  19  20
ENDBRANCH   1  18
TORSDOF 2
ENDMDL
