MODEL 1
REMARK VINA RESULT:      -6.7      0.000      0.000
REMARK  6 active torsions:
REMARK  status: ('A' for Active; 'I' for Inactive)
REMARK    1  A    between atoms: O1_2  and  C2_3 
REMARK    2  A    between atoms: C7_10  and  O2_11 
REMARK    3  A    between atoms: O2_11  and  C8_12 
REMARK    4  A    between atoms: C8_12  and  C9_13 
REMARK    5  A    between atoms: C10_14  and  C11_16 
REMARK    6  A    between atoms: C11_16  and  C12_17 
ROOT
HETATM    1  C2  UNL     1      20.671   0.741  50.964  1.00  0.00     0.070 C 
HETATM    2  C3  UNL     1      21.783   0.655  51.681  1.00  0.00     0.052 C 
HETATM    3  C4  UNL     1      22.094  -0.060  52.926  1.00  0.00     0.046 A 
HETATM    4  C5  UNL     1      21.086  -0.580  53.745  1.00  0.00     0.074 A 
HETATM    5  N1  UNL     1      21.458  -1.211  54.851  1.00  0.00    -0.243 NA
HETATM    6  C6  UNL     1      22.778  -1.334  55.154  1.00  0.00     0.236 A 
HETATM    7  N2  UNL     1      23.749  -0.832  54.363  1.00  0.00    -0.217 NA
HETATM    8  C7  UNL     1      23.433  -0.179  53.223  1.00  0.00     0.178 A 
HETATM    9  C13 UNL     1      19.601  -0.562  53.609  1.00  0.00     0.228 C 
HETATM   10  O3  UNL     1      19.157   0.375  52.684  1.00  0.00    -0.379 OA
HETATM   11  C14 UNL     1      19.410   0.032  51.374  1.00  0.00     0.232 C 
ENDROOT
BRANCH   8  12
HETATM   12  O2  UNL     1      24.248   0.402  52.287  1.00  0.00    -0.330 OA
BRANCH  12  13
HETATM   13  C8  UNL     1      25.484   0.977  52.579  1.00  0.00     0.206 C 
BRANCH  13  14
HETATM   14  C9  UNL     1      26.583   0.005  52.324  1.00  0.00     0.019 C 
HETATM   15  C10 UNL     1      27.360  -0.388  53.327  1.00  0.00     0.012 C 
HETATM   16 CL1  UNL     1      27.106   0.221  54.940  1.00  0.00    -0.089 Cl
BRANCH  15  17
HETATM   17  C11 UNL     1      28.464  -1.358  53.090  1.00  0.00     0.082 C 
BRANCH  17  18
HETATM   18  C12 UNL     1      29.675  -0.833  53.866  1.00  0.00     0.227 C 
HETATM   19  F1  UNL     1      30.060   0.337  53.240  1.00  0.00    -0.255 F 
ENDBRANCH  17  18
ENDBRANCH  15  17
ENDBRANCH  13  14
ENDBRANCH  12  13
ENDBRANCH   8  12
BRANCH   1  20
HETATM   20  O1  UNL     1      20.702   1.503  49.830  1.00  0.00    -0.358 OA
HETATM   21  C1  UNL     1      21.572   1.201  48.757  1.00  0.00     0.209 C 
ENDBRANCH   1  20
TORSDOF 6
ENDMDL
MODEL 2
REMARK VINA RESULT:      -6.7      3.520      6.657
REMARK  6 active torsions:
REMARK  status: ('A' for Active; 'I' for Inactive)
REMARK    1  A    between atoms: O1_2  and  C2_3 
REMARK    2  A    between atoms: C7_10  and  O2_11 
REMARK    3  A    between atoms: O2_11  and  C8_12 
REMARK    4  A    between atoms: C8_12  and  C9_13 
REMARK    5  A    between atoms: C10_14  and  C11_16 
REMARK    6  A    between atoms: C11_16  and  C12_17 
ROOT
HETATM    1  C2  UNL     1      27.023   2.111  52.238  1.00  0.00     0.070 C 
HETATM    2  C3  UNL     1      25.923   1.378  52.342  1.00  0.00     0.052 C 
HETATM    3  C4  UNL     1      25.447   0.467  53.392  1.00  0.00     0.046 A 
HETATM    4  C5  UNL     1      26.298  -0.001  54.398  1.00  0.00     0.074 A 
HETATM    5  N1  UNL     1      25.784  -0.821  55.305  1.00  0.00    -0.243 NA
HETATM    6  C6  UNL     1      24.473  -1.177  55.236  1.00  0.00     0.236 A 
HETATM    7  N2  UNL     1      23.653  -0.723  54.265  1.00  0.00    -0.217 NA
HETATM    8  C7  UNL     1      24.119   0.114  53.313  1.00  0.00     0.178 A 
HETATM    9  C13 UNL     1      27.743   0.255  54.662  1.00  0.00     0.228 C 
HETATM   10  O3  UNL     1      28.402   0.801  53.567  1.00  0.00    -0.379 OA
HETATM   11  C14 UNL     1      28.074   2.114  53.314  1.00  0.00     0.232 C 
ENDROOT
BRANCH   8  12
HETATM   12  O2  UNL     1      23.469   0.686  52.250  1.00  0.00    -0.330 OA
BRANCH  12  13
HETATM   13  C8  UNL     1      22.348   1.505  52.370  1.00  0.00     0.206 C 
BRANCH  13  14
HETATM   14  C9  UNL     1      21.148   0.832  51.803  1.00  0.00     0.019 C 
HETATM   15  C10 UNL     1      20.246   0.297  52.618  1.00  0.00     0.012 C 
HETATM   16 CL1  UNL     1      20.452   0.376  54.348  1.00  0.00    -0.089 Cl
BRANCH  15  17
HETATM   17  C11 UNL     1      19.040  -0.380  52.068  1.00  0.00     0.082 C 
BRANCH  17  18
HETATM   18  C12 UNL     1      18.262  -0.922  53.271  1.00  0.00     0.227 C 
HETATM   19  F1  UNL     1      18.651  -2.240  53.424  1.00  0.00    -0.255 F 
ENDBRANCH  17  18
ENDBRANCH  15  17
ENDBRANCH  13  14
ENDBRANCH  12  13
ENDBRANCH   8  12
BRANCH   1  20
HETATM   20  O1  UNL     1      27.178   2.871  51.113  1.00  0.00    -0.358 OA
HETATM   21  C1  UNL     1      26.067   3.337  50.374  1.00  0.00     0.209 C 
ENDBRANCH   1  20
TORSDOF 6
ENDMDL
MODEL 3
REMARK VINA RESULT:      -6.6      3.285      6.390
REMARK  6 active torsions:
REMARK  status: ('A' for Active; 'I' for Inactive)
REMARK    1  A    between atoms: O1_2  and  C2_3 
REMARK    2  A    between atoms: C7_10  and  O2_11 
REMARK    3  A    between atoms: O2_11  and  C8_12 
REMARK    4  A    between atoms: C8_12  and  C9_13 
REMARK    5  A    between atoms: C10_14  and  C11_16 
REMARK    6  A    between atoms: C11_16  and  C12_17 
ROOT
HETATM    1  C2  UNL     1      27.082   2.127  52.270  1.00  0.00     0.070 C 
HETATM    2  C3  UNL     1      25.998   1.372  52.389  1.00  0.00     0.052 C 
HETATM    3  C4  UNL     1      25.542   0.471  53.456  1.00  0.00     0.046 A 
HETATM    4  C5  UNL     1      26.405   0.040  54.470  1.00  0.00     0.074 A 
HETATM    5  N1  UNL     1      25.908  -0.774  55.393  1.00  0.00    -0.243 NA
HETATM    6  C6  UNL     1      24.606  -1.160  55.332  1.00  0.00     0.236 A 
HETATM    7  N2  UNL     1      23.775  -0.742  54.353  1.00  0.00    -0.217 NA
HETATM    8  C7  UNL     1      24.222   0.087  53.385  1.00  0.00     0.178 A 
HETATM    9  C13 UNL     1      27.844   0.332  54.728  1.00  0.00     0.228 C 
HETATM   10  O3  UNL     1      28.490   0.871  53.622  1.00  0.00    -0.379 OA
HETATM   11  C14 UNL     1      28.133   2.172  53.345  1.00  0.00     0.232 C 
ENDROOT
BRANCH   8  12
HETATM   12  O2  UNL     1      23.560   0.625  52.313  1.00  0.00    -0.330 OA
BRANCH  12  13
HETATM   13  C8  UNL     1      22.181   0.823  52.267  1.00  0.00     0.206 C 
BRANCH  13  14
HETATM   14  C9  UNL     1      21.672   0.625  50.883  1.00  0.00     0.019 C 
HETATM   15  C10 UNL     1      21.730   1.625  50.010  1.00  0.00     0.012 C 
HETATM   16 CL1  UNL     1      22.397   3.169  50.470  1.00  0.00    -0.089 Cl
BRANCH  15  17
HETATM   17  C11 UNL     1      21.225   1.445  48.622  1.00  0.00     0.082 C 
BRANCH  17  18
HETATM   18  C12 UNL     1      22.019   2.417  47.743  1.00  0.00     0.227 C 
HETATM   19  F1  UNL     1      22.978   1.661  47.096  1.00  0.00    -0.255 F 
ENDBRANCH  17  18
ENDBRANCH  15  17
ENDBRANCH  13  14
ENDBRANCH  12  13
ENDBRANCH   8  12
BRANCH   1  20
HETATM   20  O1  UNL     1      27.219   2.868  51.131  1.00  0.00    -0.358 OA
HETATM   21  C1  UNL     1      26.113   3.171  50.305  1.00  0.00     0.209 C 
ENDBRANCH   1  20
TORSDOF 6
ENDMDL
MODEL 4
REMARK VINA RESULT:      -6.6      2.734      5.067
REMARK  6 active torsions:
REMARK  status: ('A' for Active; 'I' for Inactive)
REMARK    1  A    between atoms: O1_2  and  C2_3 
REMARK    2  A    between atoms: C7_10  and  O2_11 
REMARK    3  A    between atoms: O2_11  and  C8_12 
REMARK    4  A    between atoms: C8_12  and  C9_13 
REMARK    5  A    between atoms: C10_14  and  C11_16 
REMARK    6  A    between atoms: C11_16  and  C12_17 
ROOT
HETATM    1  C2  UNL     1      25.872   0.394  53.405  1.00  0.00     0.070 C 
HETATM    2  C3  UNL     1      24.675   0.228  52.860  1.00  0.00     0.052 C 
HETATM    3  C4  UNL     1      23.398  -0.238  53.417  1.00  0.00     0.046 A 
HETATM    4  C5  UNL     1      23.332  -0.887  54.654  1.00  0.00     0.074 A 
HETATM    5  N1  UNL     1      22.137  -1.275  55.081  1.00  0.00    -0.243 NA
HETATM    6  C6  UNL     1      21.033  -1.037  54.324  1.00  0.00     0.236 A 
HETATM    7  N2  UNL     1      21.099  -0.410  53.130  1.00  0.00    -0.217 NA
HETATM    8  C7  UNL     1      22.287   0.008  52.643  1.00  0.00     0.178 A 
HETATM    9  C13 UNL     1      24.396  -1.246  55.635  1.00  0.00     0.228 C 
HETATM   10  O3  UNL     1      25.673  -1.191  55.089  1.00  0.00    -0.379 OA
HETATM   11  C14 UNL     1      26.127   0.088  54.855  1.00  0.00     0.232 C 
ENDROOT
BRANCH   8  12
HETATM   12  O2  UNL     1      22.578   0.655  51.470  1.00  0.00    -0.330 OA
BRANCH  12  13
HETATM   13  C8  UNL     1      22.114   1.929  51.146  1.00  0.00     0.206 C 
BRANCH  13  14
HETATM   14  C9  UNL     1      23.112   2.649  50.309  1.00  0.00     0.019 C 
HETATM   15  C10 UNL     1      24.012   3.436  50.887  1.00  0.00     0.012 C 
HETATM   16 CL1  UNL     1      24.038   3.635  52.619  1.00  0.00    -0.089 Cl
BRANCH  15  17
HETATM   17  C11 UNL     1      25.017   4.164  50.065  1.00  0.00     0.082 C 
BRANCH  17  18
HETATM   18  C12 UNL     1      26.287   3.308  50.076  1.00  0.00     0.227 C 
HETATM   19  F1  UNL     1      27.040   3.716  48.991  1.00  0.00    -0.255 F 
ENDBRANCH  17  18
ENDBRANCH  15  17
ENDBRANCH  13  14
ENDBRANCH  12  13
ENDBRANCH   8  12
BRANCH   1  20
HETATM   20  O1  UNL     1      26.879   0.853  52.604  1.00  0.00    -0.358 OA
HETATM   21  C1  UNL     1      27.906   1.685  53.106  1.00  0.00     0.209 C 
ENDBRANCH   1  20
TORSDOF 6
ENDMDL
MODEL 5
REMARK VINA RESULT:      -6.6      4.391      6.338
REMARK  6 active torsions:
REMARK  status: ('A' for Active; 'I' for Inactive)
REMARK    1  A    between atoms: O1_2  and  C2_3 
REMARK    2  A    between atoms: C7_10  and  O2_11 
REMARK    3  A    between atoms: O2_11  and  C8_12 
REMARK    4  A    between atoms: C8_12  and  C9_13 
REMARK    5  A    between atoms: C10_14  and  C11_16 
REMARK    6  A    between atoms: C11_16  and  C12_17 
ROOT
HETATM    1  C2  UNL     1      26.918   1.081  54.061  1.00  0.00     0.070 C 
HETATM    2  C3  UNL     1      26.230   1.473  52.997  1.00  0.00     0.052 C 
HETATM    3  C4  UNL     1      24.849   1.212  52.571  1.00  0.00     0.046 A 
HETATM    4  C5  UNL     1      24.082   0.197  53.152  1.00  0.00     0.074 A 
HETATM    5  N1  UNL     1      22.843   0.031  52.706  1.00  0.00    -0.243 NA
HETATM    6  C6  UNL     1      22.362   0.832  51.718  1.00  0.00     0.236 A 
HETATM    7  N2  UNL     1      23.104   1.812  51.159  1.00  0.00    -0.217 NA
HETATM    8  C7  UNL     1      24.372   2.029  51.571  1.00  0.00     0.178 A 
HETATM    9  C13 UNL     1      24.401  -0.784  54.230  1.00  0.00     0.228 C 
HETATM   10  O3  UNL     1      25.765  -0.891  54.473  1.00  0.00    -0.379 OA
HETATM   11  C14 UNL     1      26.306   0.201  55.116  1.00  0.00     0.232 C 
ENDROOT
BRANCH   8  12
HETATM   12  O2  UNL     1      25.288   2.955  51.147  1.00  0.00    -0.330 OA
BRANCH  12  13
HETATM   13  C8  UNL     1      25.298   3.514  49.870  1.00  0.00     0.206 C 
BRANCH  13  14
HETATM   14  C9  UNL     1      26.694   3.766  49.422  1.00  0.00     0.019 C 
HETATM   15  C10 UNL     1      27.007   4.929  48.861  1.00  0.00     0.012 C 
HETATM   16 CL1  UNL     1      25.798   6.165  48.644  1.00  0.00    -0.089 Cl
BRANCH  15  17
HETATM   17  C11 UNL     1      28.399   5.198  48.407  1.00  0.00     0.082 C 
BRANCH  17  18
HETATM   18  C12 UNL     1      28.417   6.641  47.896  1.00  0.00     0.227 C 
HETATM   19  F1  UNL     1      29.548   6.762  47.111  1.00  0.00    -0.255 F 
ENDBRANCH  17  18
ENDBRANCH  15  17
ENDBRANCH  13  14
ENDBRANCH  12  13
ENDBRANCH   8  12
BRANCH   1  20
HETATM   20  O1  UNL     1      28.213   1.502  54.173  1.00  0.00    -0.358 OA
HETATM   21  C1  UNL     1      29.299   0.645  53.882  1.00  0.00     0.209 C 
ENDBRANCH   1  20
TORSDOF 6
ENDMDL
MODEL 6
REMARK VINA RESULT:      -6.6      3.348      6.090
REMARK  6 active torsions:
REMARK  status: ('A' for Active; 'I' for Inactive)
REMARK    1  A    between atoms: O1_2  and  C2_3 
REMARK    2  A    between atoms: C7_10  and  O2_11 
REMARK    3  A    between atoms: O2_11  and  C8_12 
REMARK    4  A    between atoms: C8_12  and  C9_13 
REMARK    5  A    between atoms: C10_14  and  C11_16 
REMARK    6  A    between atoms: C11_16  and  C12_17 
ROOT
HETATM    1  C2  UNL     1      27.144   2.164  52.305  1.00  0.00     0.070 C 
HETATM    2  C3  UNL     1      26.039   1.435  52.375  1.00  0.00     0.052 C 
HETATM    3  C4  UNL     1      25.534   0.514  53.402  1.00  0.00     0.046 A 
HETATM    4  C5  UNL     1      26.360   0.031  54.423  1.00  0.00     0.074 A 
HETATM    5  N1  UNL     1      25.820  -0.797  55.308  1.00  0.00    -0.243 NA
HETATM    6  C6  UNL     1      24.510  -1.147  55.204  1.00  0.00     0.236 A 
HETATM    7  N2  UNL     1      23.715  -0.679  54.218  1.00  0.00    -0.217 NA
HETATM    8  C7  UNL     1      24.207   0.167  53.287  1.00  0.00     0.178 A 
HETATM    9  C13 UNL     1      27.799   0.279  54.724  1.00  0.00     0.228 C 
HETATM   10  O3  UNL     1      28.486   0.833  53.651  1.00  0.00    -0.379 OA
HETATM   11  C14 UNL     1      28.169   2.151  53.405  1.00  0.00     0.232 C 
ENDROOT
BRANCH   8  12
HETATM   12  O2  UNL     1      23.586   0.753  52.216  1.00  0.00    -0.330 OA
BRANCH  12  13
HETATM   13  C8  UNL     1      22.459   1.568  52.317  1.00  0.00     0.206 C 
BRANCH  13  14
HETATM   14  C9  UNL     1      22.482   2.621  51.266  1.00  0.00     0.019 C 
HETATM   15  C10 UNL     1      23.068   3.787  51.515  1.00  0.00     0.012 C 
HETATM   16 CL1  UNL     1      23.812   4.097  53.061  1.00  0.00    -0.089 Cl
BRANCH  15  17
HETATM   17  C11 UNL     1      23.100   4.853  50.476  1.00  0.00     0.082 C 
BRANCH  17  18
HETATM   18  C12 UNL     1      23.788   6.062  51.116  1.00  0.00     0.227 C 
HETATM   19  F1  UNL     1      25.099   6.038  50.681  1.00  0.00    -0.255 F 
ENDBRANCH  17  18
ENDBRANCH  15  17
ENDBRANCH  13  14
ENDBRANCH  12  13
ENDBRANCH   8  12
BRANCH   1  20
HETATM   20  O1  UNL     1      27.329   2.936  51.192  1.00  0.00    -0.358 OA
HETATM   21  C1  UNL     1      26.373   2.978  50.152  1.00  0.00     0.209 C 
ENDBRANCH   1  20
TORSDOF 6
ENDMDL
MODEL 7
REMARK VINA RESULT:      -6.6      4.086      7.436
REMARK  6 active torsions:
REMARK  status: ('A' for Active; 'I' for Inactive)
REMARK    1  A    between atoms: O1_2  and  C2_3 
REMARK    2  A    between atoms: C7_10  and  O2_11 
REMARK    3  A    between atoms: O2_11  and  C8_12 
REMARK    4  A    between atoms: C8_12  and  C9_13 
REMARK    5  A    between atoms: C10_14  and  C11_16 
REMARK    6  A    between atoms: C11_16  and  C12_17 
ROOT
HETATM    1  C2  UNL     1      26.304  -0.047  54.657  1.00  0.00     0.070 C 
HETATM    2  C3  UNL     1      25.512   0.597  53.811  1.00  0.00     0.052 C 
HETATM    3  C4  UNL     1      25.802   1.479  52.672  1.00  0.00     0.046 A 
HETATM    4  C5  UNL     1      27.075   2.024  52.473  1.00  0.00     0.074 A 
HETATM    5  N1  UNL     1      27.247   2.810  51.418  1.00  0.00    -0.243 NA
HETATM    6  C6  UNL     1      26.208   3.060  50.578  1.00  0.00     0.236 A 
HETATM    7  N2  UNL     1      24.981   2.532  50.771  1.00  0.00    -0.217 NA
HETATM    8  C7  UNL     1      24.743   1.724  51.827  1.00  0.00     0.178 A 
HETATM    9  C13 UNL     1      28.337   1.886  53.254  1.00  0.00     0.228 C 
HETATM   10  O3  UNL     1      28.127   1.383  54.533  1.00  0.00    -0.379 OA
HETATM   11  C14 UNL     1      27.802   0.045  54.560  1.00  0.00     0.232 C 
ENDROOT
BRANCH   8  12
HETATM   12  O2  UNL     1      23.589   1.091  52.208  1.00  0.00    -0.330 OA
BRANCH  12  13
HETATM   13  C8  UNL     1      22.431   1.047  51.432  1.00  0.00     0.206 C 
BRANCH  13  14
HETATM   14  C9  UNL     1      21.475   0.049  51.983  1.00  0.00     0.019 C 
HETATM   15  C10 UNL     1      20.296   0.452  52.446  1.00  0.00     0.012 C 
HETATM   16 CL1  UNL     1      19.858   2.139  52.416  1.00  0.00    -0.089 Cl
BRANCH  15  17
HETATM   17  C11 UNL     1      19.327  -0.533  53.001  1.00  0.00     0.082 C 
BRANCH  17  18
HETATM   18  C12 UNL     1      18.013  -0.320  52.244  1.00  0.00     0.227 C 
HETATM   19  F1  UNL     1      18.332  -0.343  50.899  1.00  0.00    -0.255 F 
ENDBRANCH  17  18
ENDBRANCH  15  17
ENDBRANCH  13  14
ENDBRANCH  12  13
ENDBRANCH   8  12
BRANCH   1  20
HETATM   20  O1  UNL     1      25.715  -0.805  55.630  1.00  0.00    -0.358 OA
HETATM   21  C1  UNL     1      24.362  -1.204  55.542  1.00  0.00     0.209 C 
ENDBRANCH   1  20
TORSDOF 6
ENDMDL
MODEL 8
REMARK VINA RESULT:      -6.6      3.956      6.086
REMARK  6 active torsions:
REMARK  status: ('A' for Active; 'I' for Inactive)
REMARK    1  A    between atoms: O1_2  and  C2_3 
REMARK    2  A    between atoms: C7_10  and  O2_11 
REMARK    3  A    between atoms: O2_11  and  C8_12 
REMARK    4  A    between atoms: C8_12  and  C9_13 
REMARK    5  A    between atoms: C10_14  and  C11_16 
REMARK    6  A    between atoms: C11_16  and  C12_17 
ROOT
HETATM    1  C2  UNL     1      26.727   1.538  54.142  1.00  0.00     0.070 C 
HETATM    2  C3  UNL     1      25.748   1.992  53.371  1.00  0.00     0.052 C 
HETATM    3  C4  UNL     1      24.401   1.478  53.091  1.00  0.00     0.046 A 
HETATM    4  C5  UNL     1      24.031   0.171  53.424  1.00  0.00     0.074 A 
HETATM    5  N1  UNL     1      22.794  -0.210  53.133  1.00  0.00    -0.243 NA
HETATM    6  C6  UNL     1      21.937   0.659  52.534  1.00  0.00     0.236 A 
HETATM    7  N2  UNL     1      22.295   1.921  52.215  1.00  0.00    -0.217 NA
HETATM    8  C7  UNL     1      23.541   2.366  52.485  1.00  0.00     0.178 A 
HETATM    9  C13 UNL     1      24.795  -0.933  54.073  1.00  0.00     0.228 C 
HETATM   10  O3  UNL     1      26.167  -0.713  54.068  1.00  0.00    -0.379 OA
HETATM   11  C14 UNL     1      26.580   0.271  54.939  1.00  0.00     0.232 C 
ENDROOT
BRANCH   8  12
HETATM   12  O2  UNL     1      24.108   3.591  52.249  1.00  0.00    -0.330 OA
BRANCH  12  13
HETATM   13  C8  UNL     1      23.705   4.454  51.230  1.00  0.00     0.206 C 
BRANCH  13  14
HETATM   14  C9  UNL     1      24.731   4.501  50.152  1.00  0.00     0.019 C 
HETATM   15  C10 UNL     1      25.372   5.637  49.903  1.00  0.00     0.012 C 
HETATM   16 CL1  UNL     1      25.025   7.076  50.824  1.00  0.00    -0.089 Cl
BRANCH  15  17
HETATM   17  C11 UNL     1      26.400   5.703  48.828  1.00  0.00     0.082 C 
BRANCH  17  18
HETATM   18  C12 UNL     1      27.263   4.446  48.978  1.00  0.00     0.227 C 
HETATM   19  F1  UNL     1      28.406   4.669  48.233  1.00  0.00    -0.255 F 
ENDBRANCH  17  18
ENDBRANCH  15  17
ENDBRANCH  13  14
ENDBRANCH  12  13
ENDBRANCH   8  12
BRANCH   1  20
HETATM   20  O1  UNL     1      27.886   2.260  54.192  1.00  0.00    -0.358 OA
HETATM   21  C1  UNL     1      29.152   1.632  54.183  1.00  0.00     0.209 C 
ENDBRANCH   1  20
TORSDOF 6
ENDMDL
MODEL 9
REMARK VINA RESULT:      -6.5      2.186      2.502
REMARK  6 active torsions:
REMARK  status: ('A' for Active; 'I' for Inactive)
REMARK    1  A    between atoms: O1_2  and  C2_3 
REMARK    2  A    between atoms: C7_10  and  O2_11 
REMARK    3  A    between atoms: O2_11  and  C8_12 
REMARK    4  A    between atoms: C8_12  and  C9_13 
REMARK    5  A    between atoms: C10_14  and  C11_16 
REMARK    6  A    between atoms: C11_16  and  C12_17 
ROOT
HETATM    1  C2  UNL     1      22.852   2.971  51.956  1.00  0.00     0.070 C 
HETATM    2  C3  UNL     1      23.192   1.956  52.738  1.00  0.00     0.052 C 
HETATM    3  C4  UNL     1      22.424   0.813  53.250  1.00  0.00     0.046 A 
HETATM    4  C5  UNL     1      21.027   0.783  53.192  1.00  0.00     0.074 A 
HETATM    5  N1  UNL     1      20.415  -0.290  53.678  1.00  0.00    -0.243 NA
HETATM    6  C6  UNL     1      21.144  -1.308  54.207  1.00  0.00     0.236 A 
HETATM    7  N2  UNL     1      22.493  -1.278  54.262  1.00  0.00    -0.217 NA
HETATM    8  C7  UNL     1      23.172  -0.213  53.783  1.00  0.00     0.178 A 
HETATM    9  C13 UNL     1      20.043   1.771  52.664  1.00  0.00     0.228 C 
HETATM   10  O3  UNL     1      20.593   3.034  52.481  1.00  0.00    -0.379 OA
HETATM   11  C14 UNL     1      21.458   3.117  51.413  1.00  0.00     0.232 C 
ENDROOT
BRANCH   8  12
HETATM   12  O2  UNL     1      24.521   0.022  53.739  1.00  0.00    -0.330 OA
BRANCH  12  13
HETATM   13  C8  UNL     1      25.443  -0.833  53.139  1.00  0.00     0.206 C 
BRANCH  13  14
HETATM   14  C9  UNL     1      26.823  -0.516  53.597  1.00  0.00     0.019 C 
HETATM   15  C10 UNL     1      27.502   0.466  53.013  1.00  0.00     0.012 C 
HETATM   16 CL1  UNL     1      26.792   1.388  51.715  1.00  0.00    -0.089 Cl
BRANCH  15  17
HETATM   17  C11 UNL     1      28.883   0.797  53.458  1.00  0.00     0.082 C 
BRANCH  17  18
HETATM   18  C12 UNL     1      29.448  -0.475  54.098  1.00  0.00     0.227 C 
HETATM   19  F1  UNL     1      30.041  -1.193  53.077  1.00  0.00    -0.255 F 
ENDBRANCH  17  18
ENDBRANCH  15  17
ENDBRANCH  13  14
ENDBRANCH  12  13
ENDBRANCH   8  12
BRANCH   1  20
HETATM   20  O1  UNL     1      23.816   3.893  51.655  1.00  0.00    -0.358 OA
HETATM   21  C1  UNL     1      23.501   5.256  51.454  1.00  0.00     0.209 C 
ENDBRANCH   1  20
TORSDOF 6
ENDMDL
