MODEL 1
REMARK VINA RESULT:      -7.1      0.000      0.000
REMARK  4 active torsions:
REMARK  status: ('A' for Active; 'I' for Inactive)
REMARK    1  A    between atoms: O1_2  and  C2_3 
REMARK    2  A    between atoms: C5_6  and  N1_7 
REMARK    3  A    between atoms: C14_18  and  O2_19 
REMARK    4  A    between atoms: C16_21  and  O3_22 
ROOT
HETATM    1  C2  UNL     1      21.278   2.997  52.345  1.00  0.00     0.101 A 
HETATM    2  C3  UNL     1      21.161   1.665  52.472  1.00  0.00     0.030 A 
HETATM    3  C4  UNL     1      22.069   0.483  52.481  1.00  0.00     0.115 A 
HETATM    4  C5  UNL     1      21.850  -0.385  53.625  1.00  0.00     0.013 C 
HETATM    5  C6  UNL     1      21.778  -1.153  54.679  1.00  0.00    -0.001 C 
HETATM    6  C7  UNL     1      23.085  -1.345  55.403  1.00  0.00     0.001 C 
HETATM    7  C8  UNL     1      24.422  -1.104  55.528  1.00  0.00     0.033 C 
HETATM    8  C9  UNL     1      25.710  -0.479  55.097  1.00  0.00     0.071 C 
HETATM    9  C10 UNL     1      26.513   0.294  54.295  1.00  0.00     0.065 C 
HETATM   10  N2  UNL     1      26.647   1.175  53.114  1.00  0.00    -0.399 N 
HETATM   11  C11 UNL     1      27.514   2.276  53.567  1.00  0.00     0.144 C 
HETATM   12  C12 UNL     1      25.878   0.564  52.060  1.00  0.00     0.267 C 
HETATM   13  N3  UNL     1      24.510   0.358  52.226  1.00  0.00    -0.271 NA
HETATM   14  C13 UNL     1      23.465   1.025  52.294  1.00  0.00     0.080 A 
HETATM   15  C14 UNL     1      23.632   2.496  52.149  1.00  0.00     0.129 A 
HETATM   16  C16 UNL     1      22.655   3.383  52.172  1.00  0.00     0.137 A 
ENDROOT
BRANCH   4  17
HETATM   17  N1  UNL     1      20.416  -0.595  53.426  1.00  0.00    -0.402 N 
HETATM   18  H6  UNL     1      19.500  -1.074  53.319  1.00  0.00     0.156 HD
HETATM   19  H7  UNL     1      19.377  -0.804  53.286  1.00  0.00     0.156 HD
ENDBRANCH   4  17
BRANCH   1  20
HETATM   20  O1  UNL     1      20.085   3.696  52.407  1.00  0.00    -0.353 OA
HETATM   21  C1  UNL     1      18.980   3.215  51.620  1.00  0.00     0.210 C 
ENDBRANCH   1  20
BRANCH  15  22
HETATM   22  O2  UNL     1      24.889   3.023  51.975  1.00  0.00    -0.351 OA
HETATM   23  C15 UNL     1      25.368   3.516  50.771  1.00  0.00     0.210 C 
ENDBRANCH  15  22
BRANCH  16  24
HETATM   24  O3  UNL     1      22.769   4.764  52.040  1.00  0.00    -0.351 OA
HETATM   25  C17 UNL     1      22.361   5.372  50.826  1.00  0.00     0.210 C 
ENDBRANCH  16  24
TORSDOF 4
ENDMDL
MODEL 2
REMARK VINA RESULT:      -6.8      2.349      5.433
REMARK  4 active torsions:
REMARK  status: ('A' for Active; 'I' for Inactive)
REMARK    1  A    between atoms: O1_2  and  C2_3 
REMARK    2  A    between atoms: C5_6  and  N1_7 
REMARK    3  A    between atoms: C14_18  and  O2_19 
REMARK    4  A    between atoms: C16_21  and  O3_22 
ROOT
HETATM    1  C2  UNL     1      23.586   0.188  52.971  1.00  0.00     0.101 A 
HETATM    2  C3  UNL     1      22.437  -0.038  53.628  1.00  0.00     0.030 A 
HETATM    3  C4  UNL     1      21.085   0.583  53.713  1.00  0.00     0.115 A 
HETATM    4  C5  UNL     1      20.012  -0.377  53.524  1.00  0.00     0.013 C 
HETATM    5  C6  UNL     1      19.003  -1.163  53.261  1.00  0.00    -0.001 C 
HETATM    6  C7  UNL     1      18.105  -0.679  52.152  1.00  0.00     0.001 C 
HETATM    7  C8  UNL     1      17.782   0.242  51.201  1.00  0.00     0.033 C 
HETATM    8  C9  UNL     1      18.004   1.514  50.446  1.00  0.00     0.071 C 
HETATM    9  C10 UNL     1      18.661   2.677  50.132  1.00  0.00     0.065 C 
HETATM   10  N2  UNL     1      19.791   3.600  50.386  1.00  0.00    -0.399 N 
HETATM   11  C11 UNL     1      20.263   3.989  49.046  1.00  0.00     0.144 C 
HETATM   12  C12 UNL     1      19.917   3.704  51.818  1.00  0.00     0.267 C 
HETATM   13  N3  UNL     1      20.179   2.567  52.578  1.00  0.00    -0.271 NA
HETATM   14  C13 UNL     1      21.110   1.770  52.780  1.00  0.00     0.080 A 
HETATM   15  C14 UNL     1      22.368   2.051  52.036  1.00  0.00     0.129 A 
HETATM   16  C16 UNL     1      23.479   1.344  52.119  1.00  0.00     0.137 A 
ENDROOT
BRANCH   4  17
HETATM   17  N1  UNL     1      20.423  -1.320  54.563  1.00  0.00    -0.402 N 
HETATM   18  H6  UNL     1      20.898  -1.714  55.399  1.00  0.00     0.156 HD
HETATM   19  H7  UNL     1      20.755  -1.969  55.345  1.00  0.00     0.156 HD
ENDBRANCH   4  17
BRANCH   1  20
HETATM   20  O1  UNL     1      24.601  -0.714  53.243  1.00  0.00    -0.353 OA
HETATM   21  C1  UNL     1      25.260  -0.622  54.520  1.00  0.00     0.210 C 
ENDBRANCH   1  20
BRANCH  15  22
HETATM   22  O2  UNL     1      22.426   3.125  51.181  1.00  0.00    -0.351 OA
HETATM   23  C15 UNL     1      23.098   4.305  51.456  1.00  0.00     0.210 C 
ENDBRANCH  15  22
BRANCH  16  24
HETATM   24  O3  UNL     1      24.673   1.573  51.442  1.00  0.00    -0.351 OA
HETATM   25  C17 UNL     1      25.746   2.189  52.135  1.00  0.00     0.210 C 
ENDBRANCH  16  24
TORSDOF 4
ENDMDL
MODEL 3
REMARK VINA RESULT:      -6.7      2.649      6.876
REMARK  4 active torsions:
REMARK  status: ('A' for Active; 'I' for Inactive)
REMARK    1  A    between atoms: O1_2  and  C2_3 
REMARK    2  A    between atoms: C5_6  and  N1_7 
REMARK    3  A    between atoms: C14_18  and  O2_19 
REMARK    4  A    between atoms: C16_21  and  O3_22 
ROOT
HETATM    1  C2  UNL     1      26.597   2.082  51.806  1.00  0.00     0.101 A 
HETATM    2  C3  UNL     1      26.629   2.943  50.776  1.00  0.00     0.030 A 
HETATM    3  C4  UNL     1      25.645   3.616  49.882  1.00  0.00     0.115 A 
HETATM    4  C5  UNL     1      25.849   5.052  49.800  1.00  0.00     0.013 C 
HETATM    5  C6  UNL     1      25.911   6.356  49.761  1.00  0.00    -0.001 C 
HETATM    6  C7  UNL     1      24.623   7.053  50.115  1.00  0.00     0.001 C 
HETATM    7  C8  UNL     1      23.312   7.012  50.489  1.00  0.00     0.033 C 
HETATM    8  C9  UNL     1      22.053   6.294  50.858  1.00  0.00     0.071 C 
HETATM    9  C10 UNL     1      21.273   5.192  51.101  1.00  0.00     0.065 C 
HETATM   10  N2  UNL     1      21.152   3.718  51.166  1.00  0.00    -0.399 N 
HETATM   11  C11 UNL     1      20.380   3.461  52.393  1.00  0.00     0.144 C 
HETATM   12  C12 UNL     1      21.836   3.202  50.007  1.00  0.00     0.267 C 
HETATM   13  N3  UNL     1      23.192   3.463  49.825  1.00  0.00    -0.271 NA
HETATM   14  C13 UNL     1      24.282   3.146  50.330  1.00  0.00     0.080 A 
HETATM   15  C14 UNL     1      24.209   2.191  51.469  1.00  0.00     0.129 A 
HETATM   16  C16 UNL     1      25.244   1.713  52.132  1.00  0.00     0.137 A 
ENDROOT
BRANCH   4  17
HETATM   17  N1  UNL     1      27.256   5.016  49.403  1.00  0.00    -0.402 N 
HETATM   18  H6  UNL     1      28.257   5.280  49.310  1.00  0.00     0.156 HD
HETATM   19  H7  UNL     1      28.293   5.036  49.143  1.00  0.00     0.156 HD
ENDBRANCH   4  17
BRANCH   1  20
HETATM   20  O1  UNL     1      27.837   1.743  52.322  1.00  0.00    -0.353 OA
HETATM   21  C1  UNL     1      28.294   2.446  53.491  1.00  0.00     0.210 C 
ENDBRANCH   1  20
BRANCH  15  22
HETATM   22  O2  UNL     1      22.984   1.742  51.900  1.00  0.00    -0.351 OA
HETATM   23  C15 UNL     1      22.514   0.453  51.705  1.00  0.00     0.210 C 
ENDBRANCH  15  22
BRANCH  16  24
HETATM   24  O3  UNL     1      25.218   0.820  53.200  1.00  0.00    -0.351 OA
HETATM   25  C17 UNL     1      25.658  -0.512  52.990  1.00  0.00     0.210 C 
ENDBRANCH  16  24
TORSDOF 4
ENDMDL
MODEL 4
REMARK VINA RESULT:      -6.6      2.080      4.654
REMARK  4 active torsions:
REMARK  status: ('A' for Active; 'I' for Inactive)
REMARK    1  A    between atoms: O1_2  and  C2_3 
REMARK    2  A    between atoms: C5_6  and  N1_7 
REMARK    3  A    between atoms: C14_18  and  O2_19 
REMARK    4  A    between atoms: C16_21  and  O3_22 
ROOT
HETATM    1  C2  UNL     1      20.622   2.200  52.213  1.00  0.00     0.101 A 
HETATM    2  C3  UNL     1      21.182   3.420  52.254  1.00  0.00     0.030 A 
HETATM    3  C4  UNL     1      22.531   3.996  52.518  1.00  0.00     0.115 A 
HETATM    4  C5  UNL     1      22.960   4.921  51.484  1.00  0.00     0.013 C 
HETATM    5  C6  UNL     1      23.452   5.681  50.542  1.00  0.00    -0.001 C 
HETATM    6  C7  UNL     1      24.795   5.240  50.021  1.00  0.00     0.001 C 
HETATM    7  C8  UNL     1      25.850   4.377  50.032  1.00  0.00     0.033 C 
HETATM    8  C9  UNL     1      26.582   3.172  50.533  1.00  0.00     0.071 C 
HETATM    9  C10 UNL     1      26.761   2.061  51.317  1.00  0.00     0.065 C 
HETATM   10  N2  UNL     1      26.246   1.163  52.376  1.00  0.00    -0.399 N 
HETATM   11  C11 UNL     1      26.543  -0.195  51.891  1.00  0.00     0.144 C 
HETATM   12  C12 UNL     1      25.693   2.016  53.398  1.00  0.00     0.267 C 
HETATM   13  N3  UNL     1      24.645   2.881  53.092  1.00  0.00    -0.271 NA
HETATM   14  C13 UNL     1      23.439   2.824  52.804  1.00  0.00     0.080 A 
HETATM   15  C14 UNL     1      22.851   1.457  52.768  1.00  0.00     0.129 A 
HETATM   16  C16 UNL     1      21.590   1.174  52.503  1.00  0.00     0.137 A 
ENDROOT
BRANCH   4  17
HETATM   17  N1  UNL     1      21.794   5.802  51.528  1.00  0.00    -0.402 N 
HETATM   18  H6  UNL     1      21.213   6.657  51.633  1.00  0.00     0.156 HD
HETATM   19  H7  UNL     1      20.976   6.489  51.571  1.00  0.00     0.156 HD
ENDBRANCH   4  17
BRANCH   1  20
HETATM   20  O1  UNL     1      19.271   2.188  51.908  1.00  0.00    -0.353 OA
HETATM   21  C1  UNL     1      18.657   3.430  51.520  1.00  0.00     0.210 C 
ENDBRANCH   1  20
BRANCH  15  22
HETATM   22  O2  UNL     1      23.649   0.368  53.026  1.00  0.00    -0.351 OA
HETATM   23  C15 UNL     1      23.523  -0.443  54.142  1.00  0.00     0.210 C 
ENDBRANCH  15  22
BRANCH  16  24
HETATM   24  O3  UNL     1      21.002  -0.087  52.460  1.00  0.00    -0.351 OA
HETATM   25  C17 UNL     1      20.127  -0.471  53.508  1.00  0.00     0.210 C 
ENDBRANCH  16  24
TORSDOF 4
ENDMDL
MODEL 5
REMARK VINA RESULT:      -6.6      2.494      4.884
REMARK  4 active torsions:
REMARK  status: ('A' for Active; 'I' for Inactive)
REMARK    1  A    between atoms: O1_2  and  C2_3 
REMARK    2  A    between atoms: C5_6  and  N1_7 
REMARK    3  A    between atoms: C14_18  and  O2_19 
REMARK    4  A    between atoms: C16_21  and  O3_22 
ROOT
HETATM    1  C2  UNL     1      22.979  -0.381  53.855  1.00  0.00     0.101 A 
HETATM    2  C3  UNL     1      21.890   0.231  53.361  1.00  0.00     0.030 A 
HETATM    3  C4  UNL     1      21.589   1.466  52.584  1.00  0.00     0.115 A 
HETATM    4  C5  UNL     1      20.753   1.211  51.424  1.00  0.00     0.013 C 
HETATM    5  C6  UNL     1      20.092   1.040  50.311  1.00  0.00    -0.001 C 
HETATM    6  C7  UNL     1      20.778   1.587  49.086  1.00  0.00     0.001 C 
HETATM    7  C8  UNL     1      21.829   2.226  48.497  1.00  0.00     0.033 C 
HETATM    8  C9  UNL     1      23.157   2.913  48.525  1.00  0.00     0.071 C 
HETATM    9  C10 UNL     1      24.291   3.408  49.118  1.00  0.00     0.065 C 
HETATM   10  N2  UNL     1      25.083   3.622  50.351  1.00  0.00    -0.399 N 
HETATM   11  C11 UNL     1      26.468   3.304  49.963  1.00  0.00     0.144 C 
HETATM   12  C12 UNL     1      24.151   4.044  51.365  1.00  0.00     0.267 C 
HETATM   13  N3  UNL     1      23.097   3.211  51.733  1.00  0.00    -0.271 NA
HETATM   14  C13 UNL     1      22.917   2.139  52.333  1.00  0.00     0.080 A 
HETATM   15  C14 UNL     1      24.144   1.488  52.867  1.00  0.00     0.129 A 
HETATM   16  C16 UNL     1      24.176   0.359  53.548  1.00  0.00     0.137 A 
ENDROOT
BRANCH   4  17
HETATM   17  N1  UNL     1      19.664   0.533  52.126  1.00  0.00    -0.402 N 
HETATM   18  H6  UNL     1      18.813   0.380  52.703  1.00  0.00     0.156 HD
HETATM   19  H7  UNL     1      18.849   0.088  52.655  1.00  0.00     0.156 HD
ENDBRANCH   4  17
BRANCH   1  20
HETATM   20  O1  UNL     1      22.727  -1.562  54.533  1.00  0.00    -0.353 OA
HETATM   21  C1  UNL     1      21.367  -2.031  54.588  1.00  0.00     0.210 C 
ENDBRANCH   1  20
BRANCH  15  22
HETATM   22  O2  UNL     1      25.369   2.075  52.659  1.00  0.00    -0.351 OA
HETATM   23  C15 UNL     1      26.239   2.443  53.672  1.00  0.00     0.210 C 
ENDBRANCH  15  22
BRANCH  16  24
HETATM   24  O3  UNL     1      25.299  -0.281  54.064  1.00  0.00    -0.351 OA
HETATM   25  C17 UNL     1      26.023  -1.172  53.232  1.00  0.00     0.210 C 
ENDBRANCH  16  24
TORSDOF 4
ENDMDL
MODEL 6
REMARK VINA RESULT:      -6.4      2.210      5.035
REMARK  4 active torsions:
REMARK  status: ('A' for Active; 'I' for Inactive)
REMARK    1  A    between atoms: O1_2  and  C2_3 
REMARK    2  A    between atoms: C5_6  and  N1_7 
REMARK    3  A    between atoms: C14_18  and  O2_19 
REMARK    4  A    between atoms: C16_21  and  O3_22 
ROOT
HETATM    1  C2  UNL     1      24.240   3.971  49.785  1.00  0.00     0.101 A 
HETATM    2  C3  UNL     1      24.593   3.692  51.051  1.00  0.00     0.030 A 
HETATM    3  C4  UNL     1      23.926   3.199  52.288  1.00  0.00     0.115 A 
HETATM    4  C5  UNL     1      24.623   2.079  52.895  1.00  0.00     0.013 C 
HETATM    5  C6  UNL     1      25.140   1.008  53.436  1.00  0.00    -0.001 C 
HETATM    6  C7  UNL     1      24.173  -0.135  53.606  1.00  0.00     0.001 C 
HETATM    7  C8  UNL     1      22.924  -0.666  53.472  1.00  0.00     0.033 C 
HETATM    8  C9  UNL     1      21.486  -0.605  53.066  1.00  0.00     0.071 C 
HETATM    9  C10 UNL     1      20.364  -0.015  52.542  1.00  0.00     0.065 C 
HETATM   10  N2  UNL     1      19.731   1.171  51.921  1.00  0.00    -0.399 N 
HETATM   11  C11 UNL     1      18.894   0.624  50.840  1.00  0.00     0.144 C 
HETATM   12  C12 UNL     1      20.213   2.317  52.649  1.00  0.00     0.267 C 
HETATM   13  N3  UNL     1      21.577   2.594  52.689  1.00  0.00    -0.271 NA
HETATM   14  C13 UNL     1      22.476   2.984  51.926  1.00  0.00     0.080 A 
HETATM   15  C14 UNL     1      22.049   3.284  50.533  1.00  0.00     0.129 A 
HETATM   16  C16 UNL     1      22.837   3.726  49.571  1.00  0.00     0.137 A 
ENDROOT
BRANCH   4  17
HETATM   17  N1  UNL     1      25.935   2.715  53.004  1.00  0.00    -0.402 N 
HETATM   18  H6  UNL     1      26.947   2.911  52.864  1.00  0.00     0.156 HD
HETATM   19  H7  UNL     1      26.914   3.143  53.048  1.00  0.00     0.156 HD
ENDBRANCH   4  17
BRANCH   1  20
HETATM   20  O1  UNL     1      25.271   4.422  48.978  1.00  0.00    -0.353 OA
HETATM   21  C1  UNL     1      26.620   4.120  49.377  1.00  0.00     0.210 C 
ENDBRANCH   1  20
BRANCH  15  22
HETATM   22  O2  UNL     1      20.737   3.101  50.170  1.00  0.00    -0.351 OA
HETATM   23  C15 UNL     1      19.861   4.132  49.870  1.00  0.00     0.210 C 
ENDBRANCH  15  22
BRANCH  16  24
HETATM   24  O3  UNL     1      22.478   4.018  48.258  1.00  0.00    -0.351 OA
HETATM   25  C17 UNL     1      22.358   2.954  47.328  1.00  0.00     0.210 C 
ENDBRANCH  16  24
TORSDOF 4
ENDMDL
MODEL 7
REMARK VINA RESULT:      -6.2      2.300      5.303
REMARK  4 active torsions:
REMARK  status: ('A' for Active; 'I' for Inactive)
REMARK    1  A    between atoms: O1_2  and  C2_3 
REMARK    2  A    between atoms: C5_6  and  N1_7 
REMARK    3  A    between atoms: C14_18  and  O2_19 
REMARK    4  A    between atoms: C16_21  and  O3_22 
ROOT
HETATM    1  C2  UNL     1      25.811   2.108  51.937  1.00  0.00     0.101 A 
HETATM    2  C3  UNL     1      24.808   1.564  52.645  1.00  0.00     0.030 A 
HETATM    3  C4  UNL     1      23.371   1.858  52.910  1.00  0.00     0.115 A 
HETATM    4  C5  UNL     1      22.511   0.710  52.683  1.00  0.00     0.013 C 
HETATM    5  C6  UNL     1      21.669  -0.248  52.399  1.00  0.00    -0.001 C 
HETATM    6  C7  UNL     1      20.583   0.141  51.431  1.00  0.00     0.001 C 
HETATM    7  C8  UNL     1      19.977   1.065  50.631  1.00  0.00     0.033 C 
HETATM    8  C9  UNL     1      19.849   2.428  50.029  1.00  0.00     0.071 C 
HETATM    9  C10 UNL     1      20.210   3.735  49.817  1.00  0.00     0.065 C 
HETATM   10  N2  UNL     1      21.140   4.852  50.100  1.00  0.00    -0.399 N 
HETATM   11  C11 UNL     1      21.381   5.477  48.788  1.00  0.00     0.144 C 
HETATM   12  C12 UNL     1      21.386   4.827  51.519  1.00  0.00     0.267 C 
HETATM   13  N3  UNL     1      21.957   3.701  52.107  1.00  0.00    -0.271 NA
HETATM   14  C13 UNL     1      23.051   3.114  52.136  1.00  0.00     0.080 A 
HETATM   15  C14 UNL     1      24.139   3.744  51.341  1.00  0.00     0.129 A 
HETATM   16  C16 UNL     1      25.376   3.296  51.249  1.00  0.00     0.137 A 
ENDROOT
BRANCH   4  17
HETATM   17  N1  UNL     1      23.215  -0.225  53.559  1.00  0.00    -0.402 N 
HETATM   18  H6  UNL     1      23.985  -0.753  54.015  1.00  0.00     0.156 HD
HETATM   19  H7  UNL     1      23.778  -0.891  54.178  1.00  0.00     0.156 HD
ENDBRANCH   4  17
BRANCH   1  20
HETATM   20  O1  UNL     1      27.016   1.429  52.016  1.00  0.00    -0.353 OA
HETATM   21  C1  UNL     1      26.991   0.064  52.468  1.00  0.00     0.210 C 
ENDBRANCH   1  20
BRANCH  15  22
HETATM   22  O2  UNL     1      23.882   4.889  50.627  1.00  0.00    -0.351 OA
HETATM   23  C15 UNL     1      24.427   6.130  50.920  1.00  0.00     0.210 C 
ENDBRANCH  15  22
BRANCH  16  24
HETATM   24  O3  UNL     1      26.421   3.855  50.519  1.00  0.00    -0.351 OA
HETATM   25  C17 UNL     1      26.652   3.401  49.196  1.00  0.00     0.210 C 
ENDBRANCH  16  24
TORSDOF 4
ENDMDL
MODEL 8
REMARK VINA RESULT:      -5.9      2.402      6.600
REMARK  4 active torsions:
REMARK  status: ('A' for Active; 'I' for Inactive)
REMARK    1  A    between atoms: O1_2  and  C2_3 
REMARK    2  A    between atoms: C5_6  and  N1_7 
REMARK    3  A    between atoms: C14_18  and  O2_19 
REMARK    4  A    between atoms: C16_21  and  O3_22 
ROOT
HETATM    1  C2  UNL     1      24.281   1.274  52.782  1.00  0.00     0.101 A 
HETATM    2  C3  UNL     1      24.801   2.021  51.794  1.00  0.00     0.030 A 
HETATM    3  C4  UNL     1      24.296   2.775  50.612  1.00  0.00     0.115 A 
HETATM    4  C5  UNL     1      24.793   4.139  50.561  1.00  0.00     0.013 C 
HETATM    5  C6  UNL     1      25.117   5.403  50.508  1.00  0.00    -0.001 C 
HETATM    6  C7  UNL     1      23.945   6.345  50.408  1.00  0.00     0.001 C 
HETATM    7  C8  UNL     1      22.602   6.569  50.338  1.00  0.00     0.033 C 
HETATM    8  C9  UNL     1      21.176   6.121  50.300  1.00  0.00     0.071 C 
HETATM    9  C10 UNL     1      20.160   5.199  50.307  1.00  0.00     0.065 C 
HETATM   10  N2  UNL     1      19.739   3.781  50.371  1.00  0.00    -0.399 N 
HETATM   11  C11 UNL     1      18.587   3.775  51.289  1.00  0.00     0.144 C 
HETATM   12  C12 UNL     1      20.635   3.052  49.510  1.00  0.00     0.267 C 
HETATM   13  N3  UNL     1      22.004   3.052  49.770  1.00  0.00    -0.271 NA
HETATM   14  C13 UNL     1      22.797   2.594  50.608  1.00  0.00     0.080 A 
HETATM   15  C14 UNL     1      22.187   1.772  51.687  1.00  0.00     0.129 A 
HETATM   16  C16 UNL     1      22.849   1.180  52.663  1.00  0.00     0.137 A 
ENDROOT
BRANCH   4  17
HETATM   17  N1  UNL     1      26.218   3.820  50.641  1.00  0.00    -0.402 N 
HETATM   18  H6  UNL     1      27.243   3.857  50.475  1.00  0.00     0.156 HD
HETATM   19  H7  UNL     1      27.269   3.630  50.665  1.00  0.00     0.156 HD
ENDBRANCH   4  17
BRANCH   1  20
HETATM   20  O1  UNL     1      25.206   0.769  53.680  1.00  0.00    -0.353 OA
HETATM   21  C1  UNL     1      26.046  -0.315  53.245  1.00  0.00     0.210 C 
ENDBRANCH   1  20
BRANCH  15  22
HETATM   22  O2  UNL     1      20.826   1.586  51.712  1.00  0.00    -0.351 OA
HETATM   23  C15 UNL     1      20.194   0.408  51.347  1.00  0.00     0.210 C 
ENDBRANCH  15  22
BRANCH  16  24
HETATM   24  O3  UNL     1      22.317   0.404  53.690  1.00  0.00    -0.351 OA
HETATM   25  C17 UNL     1      22.439  -1.007  53.616  1.00  0.00     0.210 C 
ENDBRANCH  16  24
TORSDOF 4
ENDMDL
MODEL 9
REMARK VINA RESULT:      -5.9      9.135     12.019
REMARK  4 active torsions:
REMARK  status: ('A' for Active; 'I' for Inactive)
REMARK    1  A    between atoms: O1_2  and  C2_3 
REMARK    2  A    between atoms: C5_6  and  N1_7 
REMARK    3  A    between atoms: C14_18  and  O2_19 
REMARK    4  A    between atoms: C16_21  and  O3_22 
ROOT
HETATM    1  C2  UNL     1      31.979  10.319  47.394  1.00  0.00     0.101 A 
HETATM    2  C3  UNL     1      31.960   9.210  48.153  1.00  0.00     0.030 A 
HETATM    3  C4  UNL     1      30.998   8.521  49.058  1.00  0.00     0.115 A 
HETATM    4  C5  UNL     1      30.841   7.112  48.744  1.00  0.00     0.013 C 
HETATM    5  C6  UNL     1      30.573   5.867  48.454  1.00  0.00    -0.001 C 
HETATM    6  C7  UNL     1      29.110   5.574  48.246  1.00  0.00     0.001 C 
HETATM    7  C8  UNL     1      27.810   5.983  48.202  1.00  0.00     0.033 C 
HETATM    8  C9  UNL     1      26.732   7.014  48.313  1.00  0.00     0.071 C 
HETATM    9  C10 UNL     1      26.230   8.273  48.527  1.00  0.00     0.065 C 
HETATM   10  N2  UNL     1      26.480   9.697  48.847  1.00  0.00    -0.399 N 
HETATM   11  C11 UNL     1      25.607  10.445  47.926  1.00  0.00     0.144 C 
HETATM   12  C12 UNL     1      27.455   9.710  49.908  1.00  0.00     0.267 C 
HETATM   13  N3  UNL     1      28.710   9.141  49.708  1.00  0.00    -0.271 NA
HETATM   14  C13 UNL     1      29.746   9.364  49.059  1.00  0.00     0.080 A 
HETATM   15  C14 UNL     1      29.731  10.600  48.231  1.00  0.00     0.129 A 
HETATM   16  C16 UNL     1      30.730  11.030  47.484  1.00  0.00     0.137 A 
ENDROOT
BRANCH   4  17
HETATM   17  N1  UNL     1      32.256   6.749  48.807  1.00  0.00    -0.402 N 
HETATM   18  H6  UNL     1      33.272   6.792  49.022  1.00  0.00     0.156 HD
HETATM   19  H7  UNL     1      33.300   6.531  48.882  1.00  0.00     0.156 HD
ENDBRANCH   4  17
BRANCH   1  20
HETATM   20  O1  UNL     1      33.161  10.535  46.706  1.00  0.00    -0.353 OA
HETATM   21  C1  UNL     1      33.533   9.586  45.691  1.00  0.00     0.210 C 
ENDBRANCH   1  20
BRANCH  15  22
HETATM   22  O2  UNL     1      28.608  11.390  48.211  1.00  0.00    -0.351 OA
HETATM   23  C15 UNL     1      28.539  12.660  48.762  1.00  0.00     0.210 C 
ENDBRANCH  15  22
BRANCH  16  24
HETATM   24  O3  UNL     1      30.757  12.178  46.696  1.00  0.00    -0.351 OA
HETATM   25  C17 UNL     1      30.397  12.079  45.328  1.00  0.00     0.210 C 
ENDBRANCH  16  24
TORSDOF 4
ENDMDL
