MODEL 1
REMARK VINA RESULT:      -8.5      0.000      0.000
REMARK  3 active torsions:
REMARK  status: ('A' for Active; 'I' for Inactive)
REMARK    1  A    between atoms: C2_2  and  C3_4 
REMARK    2  A    between atoms: C8_11  and  C9_12 
REMARK    3  A    between atoms: C14_18  and  N3_19 
ROOT
HETATM    1  C3  UNL     1      22.667   0.057  53.686  1.00  0.00     0.010 A 
HETATM    2  C4  UNL     1      21.644   0.828  53.113  1.00  0.00     0.017 A 
HETATM    3  C5  UNL     1      22.038   1.829  52.253  1.00  0.00     0.033 A 
HETATM    4  C6  UNL     1      23.369   2.033  51.990  1.00  0.00     0.070 A 
HETATM    5  N1  UNL     1      23.756   3.016  51.140  1.00  0.00    -0.241 NA
HETATM    6  C7  UNL     1      25.059   3.209  50.886  1.00  0.00     0.234 A 
HETATM    7  N2  UNL     1      25.952   2.426  51.477  1.00  0.00    -0.240 NA
HETATM    8  C8  UNL     1      25.727   1.426  52.329  1.00  0.00     0.082 A 
HETATM    9  C15 UNL     1      24.390   1.300  52.529  1.00  0.00     0.023 A 
HETATM   10  C16 UNL     1      23.962   0.322  53.374  1.00  0.00     0.031 A 
ENDROOT
BRANCH   8  11
HETATM   11  C9  UNL     1      26.819   0.701  52.848  1.00  0.00     0.016 A 
HETATM   12  C10 UNL     1      27.345  -0.533  52.793  1.00  0.00     0.034 A 
HETATM   13  C11 UNL     1      28.442  -1.072  53.381  1.00  0.00     0.011 A 
HETATM   14 BR1  UNL     1      28.975  -2.873  53.131  1.00  0.00    -0.051 Br
HETATM   15  C12 UNL     1      29.185  -0.255  54.191  1.00  0.00     0.021 A 
HETATM   16  C13 UNL     1      28.765   1.039  54.344  1.00  0.00     0.025 A 
HETATM   17  C14 UNL     1      27.633   1.441  53.681  1.00  0.00     0.018 A 
BRANCH  17  18
HETATM   18  N3  UNL     1      27.388   2.831  53.983  1.00  0.00    -0.302 NA
HETATM   19  H10 UNL     1      26.985   3.763  53.950  1.00  0.00     0.124 HD
HETATM   20  H11 UNL     1      26.981   3.761  53.945  1.00  0.00     0.124 HD
ENDBRANCH  17  18
ENDBRANCH   8  11
BRANCH   1  21
HETATM   21  C2  UNL     1      22.222  -1.013  54.605  1.00  0.00     0.155 C 
HETATM   22  C1  UNL     1      20.889  -1.644  54.318  1.00  0.00     0.096 C 
HETATM   23  O1  UNL     1      22.962  -1.336  55.557  1.00  0.00    -0.293 OA
ENDBRANCH   1  21
TORSDOF 3
ENDMDL
MODEL 2
REMARK VINA RESULT:      -7.7      3.360      5.710
REMARK  3 active torsions:
REMARK  status: ('A' for Active; 'I' for Inactive)
REMARK    1  A    between atoms: C2_2  and  C3_4 
REMARK    2  A    between atoms: C8_11  and  C9_12 
REMARK    3  A    between atoms: C14_18  and  N3_19 
ROOT
HETATM    1  C3  UNL     1      26.461   1.259  53.421  1.00  0.00     0.010 A 
HETATM    2  C4  UNL     1      25.870   0.058  53.842  1.00  0.00     0.017 A 
HETATM    3  C5  UNL     1      24.571  -0.162  53.437  1.00  0.00     0.033 A 
HETATM    4  C6  UNL     1      23.921   0.764  52.662  1.00  0.00     0.070 A 
HETATM    5  N1  UNL     1      22.644   0.546  52.261  1.00  0.00    -0.241 NA
HETATM    6  C7  UNL     1      22.014   1.455  51.501  1.00  0.00     0.234 A 
HETATM    7  N2  UNL     1      22.661   2.561  51.154  1.00  0.00    -0.240 NA
HETATM    8  C8  UNL     1      23.907   2.914  51.469  1.00  0.00     0.082 A 
HETATM    9  C15 UNL     1      24.468   1.943  52.234  1.00  0.00     0.023 A 
HETATM   10  C16 UNL     1      25.750   2.125  52.654  1.00  0.00     0.031 A 
ENDROOT
BRANCH   8  11
HETATM   11  C9  UNL     1      24.419   4.138  50.994  1.00  0.00     0.016 A 
HETATM   12  C10 UNL     1      25.333   4.594  50.122  1.00  0.00     0.034 A 
HETATM   13  C11 UNL     1      25.706   5.853  49.784  1.00  0.00     0.011 A 
HETATM   14 BR1  UNL     1      27.046   6.229  48.497  1.00  0.00    -0.051 Br
HETATM   15  C12 UNL     1      25.068   6.887  50.415  1.00  0.00     0.021 A 
HETATM   16  C13 UNL     1      24.106   6.572  51.336  1.00  0.00     0.025 A 
HETATM   17  C14 UNL     1      23.838   5.247  51.572  1.00  0.00     0.018 A 
BRANCH  17  18
HETATM   18  N3  UNL     1      22.795   5.156  52.566  1.00  0.00    -0.302 NA
HETATM   19  H10 UNL     1      22.306   4.919  53.425  1.00  0.00     0.124 HD
HETATM   20  H11 UNL     1      22.311   4.916  53.427  1.00  0.00     0.124 HD
ENDBRANCH  17  18
ENDBRANCH   8  11
BRANCH   1  21
HETATM   21  C2  UNL     1      27.855   1.474  53.866  1.00  0.00     0.155 C 
HETATM   22  C1  UNL     1      28.772   0.283  53.826  1.00  0.00     0.096 C 
HETATM   23  O1  UNL     1      28.198   2.613  54.244  1.00  0.00    -0.293 OA
ENDBRANCH   1  21
TORSDOF 3
ENDMDL
MODEL 3
REMARK VINA RESULT:      -7.6      2.925      4.910
REMARK  3 active torsions:
REMARK  status: ('A' for Active; 'I' for Inactive)
REMARK    1  A    between atoms: C2_2  and  C3_4 
REMARK    2  A    between atoms: C8_11  and  C9_12 
REMARK    3  A    between atoms: C14_18  and  N3_19 
ROOT
HETATM    1  C3  UNL     1      22.922  -0.508  54.164  1.00  0.00     0.010 A 
HETATM    2  C4  UNL     1      23.885  -1.160  54.948  1.00  0.00     0.017 A 
HETATM    3  C5  UNL     1      25.198  -0.797  54.738  1.00  0.00     0.033 A 
HETATM    4  C6  UNL     1      25.510   0.158  53.803  1.00  0.00     0.070 A 
HETATM    5  N1  UNL     1      26.802   0.518  53.598  1.00  0.00    -0.241 NA
HETATM    6  C7  UNL     1      27.101   1.452  52.684  1.00  0.00     0.234 A 
HETATM    7  N2  UNL     1      26.117   2.012  51.992  1.00  0.00    -0.240 NA
HETATM    8  C8  UNL     1      24.810   1.765  52.080  1.00  0.00     0.082 A 
HETATM    9  C15 UNL     1      24.597   0.812  53.023  1.00  0.00     0.023 A 
HETATM   10  C16 UNL     1      23.313   0.426  53.259  1.00  0.00     0.031 A 
ENDROOT
BRANCH   8  11
HETATM   11  C9  UNL     1      23.915   2.476  51.254  1.00  0.00     0.016 A 
HETATM   12  C10 UNL     1      23.253   2.323  50.097  1.00  0.00     0.034 A 
HETATM   13  C11 UNL     1      22.404   3.144  49.429  1.00  0.00     0.011 A 
HETATM   14 BR1  UNL     1      21.588   2.678  47.783  1.00  0.00    -0.051 Br
HETATM   15  C12 UNL     1      22.139   4.364  49.993  1.00  0.00     0.021 A 
HETATM   16  C13 UNL     1      22.748   4.660  51.182  1.00  0.00     0.025 A 
HETATM   17  C14 UNL     1      23.584   3.724  51.738  1.00  0.00     0.018 A 
BRANCH  17  18
HETATM   18  N3  UNL     1      24.102   4.247  52.980  1.00  0.00    -0.302 NA
HETATM   19  H10 UNL     1      24.427   4.288  53.941  1.00  0.00     0.124 HD
HETATM   20  H11 UNL     1      24.425   4.282  53.942  1.00  0.00     0.124 HD
ENDBRANCH  17  18
ENDBRANCH   8  11
BRANCH   1  21
HETATM   21  C2  UNL     1      21.521  -0.913  54.407  1.00  0.00     0.155 C 
HETATM   22  C1  UNL     1      20.449   0.002  53.884  1.00  0.00     0.096 C 
HETATM   23  O1  UNL     1      21.298  -1.976  55.022  1.00  0.00    -0.293 OA
ENDBRANCH   1  21
TORSDOF 3
ENDMDL
MODEL 4
REMARK VINA RESULT:      -7.5      3.258      5.083
REMARK  3 active torsions:
REMARK  status: ('A' for Active; 'I' for Inactive)
REMARK    1  A    between atoms: C2_2  and  C3_4 
REMARK    2  A    between atoms: C8_11  and  C9_12 
REMARK    3  A    between atoms: C14_18  and  N3_19 
ROOT
HETATM    1  C3  UNL     1      20.596  -0.503  53.258  1.00  0.00     0.010 A 
HETATM    2  C4  UNL     1      20.939  -1.411  54.272  1.00  0.00     0.017 A 
HETATM    3  C5  UNL     1      22.270  -1.465  54.624  1.00  0.00     0.033 A 
HETATM    4  C6  UNL     1      23.186  -0.659  53.996  1.00  0.00     0.070 A 
HETATM    5  N1  UNL     1      24.495  -0.711  54.344  1.00  0.00    -0.241 NA
HETATM    6  C7  UNL     1      25.385   0.081  53.728  1.00  0.00     0.234 A 
HETATM    7  N2  UNL     1      24.962   0.907  52.780  1.00  0.00    -0.240 NA
HETATM    8  C8  UNL     1      23.718   1.070  52.331  1.00  0.00     0.082 A 
HETATM    9  C15 UNL     1      22.885   0.235  53.006  1.00  0.00     0.023 A 
HETATM   10  C16 UNL     1      21.563   0.260  52.685  1.00  0.00     0.031 A 
ENDROOT
BRANCH   8  11
HETATM   11  C9  UNL     1      23.468   2.012  51.313  1.00  0.00     0.016 A 
HETATM   12  C10 UNL     1      23.039   2.052  50.042  1.00  0.00     0.034 A 
HETATM   13  C11 UNL     1      22.855   3.087  49.184  1.00  0.00     0.011 A 
HETATM   14 BR1  UNL     1      22.225   2.868  47.410  1.00  0.00    -0.051 Br
HETATM   15  C12 UNL     1      23.145   4.343  49.647  1.00  0.00     0.021 A 
HETATM   16  C13 UNL     1      23.596   4.457  50.934  1.00  0.00     0.025 A 
HETATM   17  C14 UNL     1      23.731   3.314  51.682  1.00  0.00     0.018 A 
BRANCH  17  18
HETATM   18  N3  UNL     1      24.210   3.675  52.996  1.00  0.00    -0.302 NA
HETATM   19  H10 UNL     1      24.286   4.145  53.893  1.00  0.00     0.124 HD
HETATM   20  H11 UNL     1      24.281   4.148  53.892  1.00  0.00     0.124 HD
ENDBRANCH  17  18
ENDBRANCH   8  11
BRANCH   1  21
HETATM   21  C2  UNL     1      19.163  -0.460  52.898  1.00  0.00     0.155 C 
HETATM   22  C1  UNL     1      18.782   0.407  51.730  1.00  0.00     0.096 C 
HETATM   23  O1  UNL     1      18.352  -1.134  53.566  1.00  0.00    -0.293 OA
ENDBRANCH   1  21
TORSDOF 3
ENDMDL
MODEL 5
REMARK VINA RESULT:      -7.5      3.410      5.686
REMARK  3 active torsions:
REMARK  status: ('A' for Active; 'I' for Inactive)
REMARK    1  A    between atoms: C2_2  and  C3_4 
REMARK    2  A    between atoms: C8_11  and  C9_12 
REMARK    3  A    between atoms: C14_18  and  N3_19 
ROOT
HETATM    1  C3  UNL     1      24.739  -0.432  53.909  1.00  0.00     0.010 A 
HETATM    2  C4  UNL     1      24.091  -1.182  54.901  1.00  0.00     0.017 A 
HETATM    3  C5  UNL     1      22.722  -1.043  54.981  1.00  0.00     0.033 A 
HETATM    4  C6  UNL     1      22.060  -0.207  54.118  1.00  0.00     0.070 A 
HETATM    5  N1  UNL     1      20.713  -0.072  54.195  1.00  0.00    -0.241 NA
HETATM    6  C7  UNL     1      20.070   0.746  53.348  1.00  0.00     0.234 A 
HETATM    7  N2  UNL     1      20.774   1.413  52.442  1.00  0.00    -0.240 NA
HETATM    8  C8  UNL     1      22.092   1.385  52.245  1.00  0.00     0.082 A 
HETATM    9  C15 UNL     1      22.661   0.537  53.141  1.00  0.00     0.023 A 
HETATM   10  C16 UNL     1      24.011   0.374  53.093  1.00  0.00     0.031 A 
ENDROOT
BRANCH   8  11
HETATM   11  C9  UNL     1      22.654   2.169  51.217  1.00  0.00     0.016 A 
HETATM   12  C10 UNL     1      23.468   3.226  51.068  1.00  0.00     0.034 A 
HETATM   13  C11 UNL     1      23.916   3.869  49.961  1.00  0.00     0.011 A 
HETATM   14 BR1  UNL     1      25.082   5.362  50.027  1.00  0.00    -0.051 Br
HETATM   15  C12 UNL     1      23.491   3.398  48.747  1.00  0.00     0.021 A 
HETATM   16  C13 UNL     1      22.651   2.318  48.744  1.00  0.00     0.025 A 
HETATM   17  C14 UNL     1      22.285   1.772  49.949  1.00  0.00     0.018 A 
BRANCH  17  18
HETATM   18  N3  UNL     1      21.409   0.651  49.703  1.00  0.00    -0.302 NA
HETATM   19  H10 UNL     1      20.779   0.014  49.225  1.00  0.00     0.124 HD
HETATM   20  H11 UNL     1      20.779   0.017  49.220  1.00  0.00     0.124 HD
ENDBRANCH  17  18
ENDBRANCH   8  11
BRANCH   1  21
HETATM   21  C2  UNL     1      26.207  -0.598  53.840  1.00  0.00     0.155 C 
HETATM   22  C1  UNL     1      26.794  -0.895  52.489  1.00  0.00     0.096 C 
HETATM   23  O1  UNL     1      26.876  -0.483  54.888  1.00  0.00    -0.293 OA
ENDBRANCH   1  21
TORSDOF 3
ENDMDL
MODEL 6
REMARK VINA RESULT:      -7.4      6.471      7.955
REMARK  3 active torsions:
REMARK  status: ('A' for Active; 'I' for Inactive)
REMARK    1  A    between atoms: C2_2  and  C3_4 
REMARK    2  A    between atoms: C8_11  and  C9_12 
REMARK    3  A    between atoms: C14_18  and  N3_19 
ROOT
HETATM    1  C3  UNL     1      26.365   5.023  49.082  1.00  0.00     0.010 A 
HETATM    2  C4  UNL     1      25.248   5.836  48.838  1.00  0.00     0.017 A 
HETATM    3  C5  UNL     1      25.483   7.020  48.173  1.00  0.00     0.033 A 
HETATM    4  C6  UNL     1      26.755   7.355  47.784  1.00  0.00     0.070 A 
HETATM    5  N1  UNL     1      26.986   8.518  47.127  1.00  0.00    -0.241 NA
HETATM    6  C7  UNL     1      28.232   8.839  46.747  1.00  0.00     0.234 A 
HETATM    7  N2  UNL     1      29.224   8.002  47.024  1.00  0.00    -0.240 NA
HETATM    8  C8  UNL     1      29.154   6.831  47.657  1.00  0.00     0.082 A 
HETATM    9  C15 UNL     1      27.864   6.586  48.005  1.00  0.00     0.023 A 
HETATM   10  C16 UNL     1      27.593   5.426  48.664  1.00  0.00     0.031 A 
ENDROOT
BRANCH   8  11
HETATM   11  C9  UNL     1      30.331   6.079  47.851  1.00  0.00     0.016 A 
HETATM   12  C10 UNL     1      30.926   4.974  47.375  1.00  0.00     0.034 A 
HETATM   13  C11 UNL     1      32.102   4.376  47.692  1.00  0.00     0.011 A 
HETATM   14 BR1  UNL     1      32.723   2.795  46.852  1.00  0.00    -0.051 Br
HETATM   15  C12 UNL     1      32.860   4.963  48.670  1.00  0.00     0.021 A 
HETATM   16  C13 UNL     1      32.375   6.104  49.251  1.00  0.00     0.025 A 
HETATM   17  C14 UNL     1      31.166   6.591  48.822  1.00  0.00     0.018 A 
BRANCH  17  18
HETATM   18  N3  UNL     1      30.862   7.792  49.563  1.00  0.00    -0.302 NA
HETATM   19  H10 UNL     1      30.827   8.772  49.829  1.00  0.00     0.124 HD
HETATM   20  H11 UNL     1      30.831   8.774  49.824  1.00  0.00     0.124 HD
ENDBRANCH  17  18
ENDBRANCH   8  11
BRANCH   1  21
HETATM   21  C2  UNL     1      26.090   3.757  49.794  1.00  0.00     0.155 C 
HETATM   22  C1  UNL     1      24.689   3.218  49.706  1.00  0.00     0.096 C 
HETATM   23  O1  UNL     1      27.016   3.205  50.423  1.00  0.00    -0.293 OA
ENDBRANCH   1  21
TORSDOF 3
ENDMDL
MODEL 7
REMARK VINA RESULT:      -6.8      3.190      5.269
REMARK  3 active torsions:
REMARK  status: ('A' for Active; 'I' for Inactive)
REMARK    1  A    between atoms: C2_2  and  C3_4 
REMARK    2  A    between atoms: C8_11  and  C9_12 
REMARK    3  A    between atoms: C14_18  and  N3_19 
ROOT
HETATM    1  C3  UNL     1      23.983   2.864  49.960  1.00  0.00     0.010 A 
HETATM    2  C4  UNL     1      25.123   3.523  49.476  1.00  0.00     0.017 A 
HETATM    3  C5  UNL     1      26.292   3.326  50.179  1.00  0.00     0.033 A 
HETATM    4  C6  UNL     1      26.304   2.519  51.289  1.00  0.00     0.070 A 
HETATM    5  N1  UNL     1      27.455   2.323  51.979  1.00  0.00    -0.241 NA
HETATM    6  C7  UNL     1      27.461   1.532  53.062  1.00  0.00     0.234 A 
HETATM    7  N2  UNL     1      26.329   0.951  53.441  1.00  0.00    -0.240 NA
HETATM    8  C8  UNL     1      25.129   1.048  52.869  1.00  0.00     0.082 A 
HETATM    9  C15 UNL     1      25.212   1.863  51.786  1.00  0.00     0.023 A 
HETATM   10  C16 UNL     1      24.078   2.082  51.066  1.00  0.00     0.031 A 
ENDROOT
BRANCH   8  11
HETATM   11  C9  UNL     1      24.041   0.342  53.423  1.00  0.00     0.016 A 
HETATM   12  C10 UNL     1      22.709   0.251  53.288  1.00  0.00     0.034 A 
HETATM   13  C11 UNL     1      21.788  -0.511  53.932  1.00  0.00     0.011 A 
HETATM   14 BR1  UNL     1      19.935  -0.450  53.542  1.00  0.00    -0.051 Br
HETATM   15  C12 UNL     1      22.246  -1.357  54.907  1.00  0.00     0.021 A 
HETATM   16  C13 UNL     1      23.591  -1.370  55.156  1.00  0.00     0.025 A 
HETATM   17  C14 UNL     1      24.400  -0.541  54.419  1.00  0.00     0.018 A 
BRANCH  17  18
HETATM   18  N3  UNL     1      25.766  -0.728  54.847  1.00  0.00    -0.302 NA
HETATM   19  H10 UNL     1      26.773  -0.857  54.810  1.00  0.00     0.124 HD
HETATM   20  H11 UNL     1      26.773  -0.858  54.804  1.00  0.00     0.124 HD
ENDBRANCH  17  18
ENDBRANCH   8  11
BRANCH   1  21
HETATM   21  C2  UNL     1      22.741   3.088  49.189  1.00  0.00     0.155 C 
HETATM   22  C1  UNL     1      22.686   2.507  47.804  1.00  0.00     0.096 C 
HETATM   23  O1  UNL     1      21.813   3.736  49.717  1.00  0.00    -0.293 OA
ENDBRANCH   1  21
TORSDOF 3
ENDMDL
MODEL 8
REMARK VINA RESULT:      -6.7      4.078      6.965
REMARK  3 active torsions:
REMARK  status: ('A' for Active; 'I' for Inactive)
REMARK    1  A    between atoms: C2_2  and  C3_4 
REMARK    2  A    between atoms: C8_11  and  C9_12 
REMARK    3  A    between atoms: C14_18  and  N3_19 
ROOT
HETATM    1  C3  UNL     1      22.345  -0.249  53.317  1.00  0.00     0.010 A 
HETATM    2  C4  UNL     1      23.722   0.013  53.263  1.00  0.00     0.017 A 
HETATM    3  C5  UNL     1      24.141   0.903  52.298  1.00  0.00     0.033 A 
HETATM    4  C6  UNL     1      23.232   1.485  51.452  1.00  0.00     0.070 A 
HETATM    5  N1  UNL     1      23.644   2.363  50.504  1.00  0.00    -0.241 NA
HETATM    6  C7  UNL     1      22.751   2.931  49.681  1.00  0.00     0.234 A 
HETATM    7  N2  UNL     1      21.468   2.619  49.812  1.00  0.00    -0.240 NA
HETATM    8  C8  UNL     1      20.914   1.780  50.687  1.00  0.00     0.082 A 
HETATM    9  C15 UNL     1      21.885   1.253  51.478  1.00  0.00     0.023 A 
HETATM   10  C16 UNL     1      21.509   0.369  52.442  1.00  0.00     0.031 A 
ENDROOT
BRANCH   8  11
HETATM   11  C9  UNL     1      19.518   1.585  50.671  1.00  0.00     0.016 A 
HETATM   12  C10 UNL     1      18.613   0.722  50.182  1.00  0.00     0.034 A 
HETATM   13  C11 UNL     1      17.259   0.692  50.267  1.00  0.00     0.011 A 
HETATM   14 BR1  UNL     1      16.199  -0.664  49.474  1.00  0.00    -0.051 Br
HETATM   15  C12 UNL     1      16.653   1.701  50.966  1.00  0.00     0.021 A 
HETATM   16  C13 UNL     1      17.455   2.660  51.523  1.00  0.00     0.025 A 
HETATM   17  C14 UNL     1      18.813   2.555  51.352  1.00  0.00     0.018 A 
BRANCH  17  18
HETATM   18  N3  UNL     1      19.451   3.661  52.025  1.00  0.00    -0.302 NA
HETATM   19  H10 UNL     1      20.169   4.236  52.456  1.00  0.00     0.124 HD
HETATM   20  H11 UNL     1      20.174   4.231  52.455  1.00  0.00     0.124 HD
ENDBRANCH  17  18
ENDBRANCH   8  11
BRANCH   1  21
HETATM   21  C2  UNL     1      21.917  -1.206  54.360  1.00  0.00     0.155 C 
HETATM   22  C1  UNL     1      22.904  -1.504  55.454  1.00  0.00     0.096 C 
HETATM   23  O1  UNL     1      20.777  -1.709  54.286  1.00  0.00    -0.293 OA
ENDBRANCH   1  21
TORSDOF 3
ENDMDL
MODEL 9
REMARK VINA RESULT:      -6.6      5.296      8.090
REMARK  3 active torsions:
REMARK  status: ('A' for Active; 'I' for Inactive)
REMARK    1  A    between atoms: C2_2  and  C3_4 
REMARK    2  A    between atoms: C8_11  and  C9_12 
REMARK    3  A    between atoms: C14_18  and  N3_19 
ROOT
HETATM    1  C3  UNL     1      27.125   6.404  48.388  1.00  0.00     0.010 A 
HETATM    2  C4  UNL     1      27.340   7.630  47.741  1.00  0.00     0.017 A 
HETATM    3  C5  UNL     1      26.289   8.522  47.749  1.00  0.00     0.033 A 
HETATM    4  C6  UNL     1      25.109   8.195  48.368  1.00  0.00     0.070 A 
HETATM    5  N1  UNL     1      24.076   9.074  48.378  1.00  0.00    -0.241 NA
HETATM    6  C7  UNL     1      22.925   8.750  48.985  1.00  0.00     0.234 A 
HETATM    7  N2  UNL     1      22.819   7.563  49.571  1.00  0.00    -0.240 NA
HETATM    8  C8  UNL     1      23.739   6.602  49.644  1.00  0.00     0.082 A 
HETATM    9  C15 UNL     1      24.867   7.011  49.007  1.00  0.00     0.023 A 
HETATM   10  C16 UNL     1      25.926   6.157  48.977  1.00  0.00     0.031 A 
ENDROOT
BRANCH   8  11
HETATM   11  C9  UNL     1      23.435   5.404  50.322  1.00  0.00     0.016 A 
HETATM   12  C10 UNL     1      22.946   4.181  50.064  1.00  0.00     0.034 A 
HETATM   13  C11 UNL     1      22.711   3.115  50.871  1.00  0.00     0.011 A 
HETATM   14 BR1  UNL     1      22.005   1.472  50.244  1.00  0.00    -0.051 Br
HETATM   15  C12 UNL     1      23.009   3.258  52.200  1.00  0.00     0.021 A 
HETATM   16  C13 UNL     1      23.518   4.460  52.611  1.00  0.00     0.025 A 
HETATM   17  C14 UNL     1      23.701   5.446  51.674  1.00  0.00     0.018 A 
BRANCH  17  18
HETATM   18  N3  UNL     1      24.249   6.611  52.329  1.00  0.00    -0.302 NA
HETATM   19  H10 UNL     1      24.520   7.260  53.061  1.00  0.00     0.124 HD
HETATM   20  H11 UNL     1      24.517   7.257  53.066  1.00  0.00     0.124 HD
ENDBRANCH  17  18
ENDBRANCH   8  11
BRANCH   1  21
HETATM   21  C2  UNL     1      28.266   5.464  48.369  1.00  0.00     0.155 C 
HETATM   22  C1  UNL     1      29.623   6.048  48.093  1.00  0.00     0.096 C 
HETATM   23  O1  UNL     1      28.052   4.252  48.580  1.00  0.00    -0.293 OA
ENDBRANCH   1  21
TORSDOF 3
ENDMDL
