MODEL 1
REMARK VINA RESULT:      -8.1      0.000      0.000
REMARK  5 active torsions:
REMARK  status: ('A' for Active; 'I' for Inactive)
REMARK    1  A    between atoms: C5_5  and  N1_6 
REMARK    2  A    between atoms: N1_6  and  C6_7 
REMARK    3  A    between atoms: C10_14  and  C11_15 
REMARK    4  A    between atoms: C11_15  and  N5_16 
REMARK    5  A    between atoms: C14_19  and  N6_20 
ROOT
HETATM    1  C6  UNL     1      23.816  -0.239  53.633  1.00  0.00     0.159 A 
HETATM    2  N2  UNL     1      24.123  -0.939  54.766  1.00  0.00    -0.220 NA
HETATM    3  C7  UNL     1      23.090  -1.516  55.449  1.00  0.00     0.258 A 
HETATM    4  N3  UNL     1      21.828  -1.422  55.062  1.00  0.00    -0.161 NA
HETATM    5  N4  UNL     1      21.512  -0.760  53.986  1.00  0.00    -0.240 N 
HETATM    6  C8  UNL     1      20.346  -0.472  53.334  1.00  0.00     0.119 A 
HETATM    7  C9  UNL     1      20.601   0.293  52.219  1.00  0.00     0.030 A 
HETATM    8  C10 UNL     1      21.969   0.474  52.196  1.00  0.00     0.004 A 
HETATM    9  C17 UNL     1      22.490  -0.169  53.270  1.00  0.00     0.112 A 
ENDROOT
BRANCH   8  10
HETATM   10  C11 UNL     1      22.652   1.228  51.143  1.00  0.00     0.313 C 
BRANCH  10  11
HETATM   11  N5  UNL     1      22.189   2.586  51.077  1.00  0.00     0.092 N 
HETATM   12  C12 UNL     1      22.631   3.293  49.927  1.00  0.00     0.275 C 
HETATM   13  C13 UNL     1      23.158   4.674  50.240  1.00  0.00     0.065 C 
HETATM   14  C14 UNL     1      24.133   4.715  51.374  1.00  0.00     0.221 C 
HETATM   15  C15 UNL     1      23.759   3.748  52.469  1.00  0.00     0.065 C 
HETATM   16  C16 UNL     1      22.321   3.341  52.271  1.00  0.00     0.275 C 
BRANCH  14  17
HETATM   17  N6  UNL     1      24.041   6.062  51.943  1.00  0.00     0.083 N 
HETATM   18  H17 UNL     1      24.398   6.773  51.259  1.00  0.00     0.313 HD
HETATM   19  H18 UNL     1      24.462   6.105  52.878  1.00  0.00     0.313 HD
ENDBRANCH  14  17
ENDBRANCH  10  11
ENDBRANCH   8  10
BRANCH   1  20
HETATM   20  N1  UNL     1      24.966   0.324  53.033  1.00  0.00    -0.338 N 
HETATM   21  H6  UNL     1      24.971   1.295  52.659  1.00  0.00     0.167 HD
BRANCH  20  22
HETATM   22  C5  UNL     1      26.224  -0.441  52.892  1.00  0.00     0.044 A 
HETATM   23  C3  UNL     1      27.687  -0.825  53.002  1.00  0.00    -0.011 A 
HETATM   24  C2  UNL     1      28.560  -0.034  53.621  1.00  0.00    -0.017 C 
HETATM   25  C4  UNL     1      26.618  -1.603  52.343  1.00  0.00     0.043 A 
HETATM   26  C1  UNL     1      29.885  -0.702  53.596  1.00  0.00     0.037 C 
ENDBRANCH  20  22
ENDBRANCH   1  20
TORSDOF 5
ENDMDL
MODEL 2
REMARK VINA RESULT:      -7.7      2.089      6.126
REMARK  5 active torsions:
REMARK  status: ('A' for Active; 'I' for Inactive)
REMARK    1  A    between atoms: C5_5  and  N1_6 
REMARK    2  A    between atoms: N1_6  and  C6_7 
REMARK    3  A    between atoms: C10_14  and  C11_15 
REMARK    4  A    between atoms: C11_15  and  N5_16 
REMARK    5  A    between atoms: C14_19  and  N6_20 
ROOT
HETATM    1  C6  UNL     1      27.218   1.838  53.302  1.00  0.00     0.159 A 
HETATM    2  N2  UNL     1      28.267   2.618  53.701  1.00  0.00    -0.220 NA
HETATM    3  C7  UNL     1      29.436   1.987  54.017  1.00  0.00     0.258 A 
HETATM    4  N3  UNL     1      29.588   0.674  53.952  1.00  0.00    -0.161 NA
HETATM    5  N4  UNL     1      28.604  -0.089  53.575  1.00  0.00    -0.240 N 
HETATM    6  C8  UNL     1      28.429  -1.435  53.412  1.00  0.00     0.119 A 
HETATM    7  C9  UNL     1      27.147  -1.700  52.988  1.00  0.00     0.030 A 
HETATM    8  C10 UNL     1      26.524  -0.472  52.891  1.00  0.00     0.004 A 
HETATM    9  C17 UNL     1      27.423   0.478  53.250  1.00  0.00     0.112 A 
ENDROOT
BRANCH   8  10
HETATM   10  C11 UNL     1      25.137  -0.319  52.448  1.00  0.00     0.313 C 
BRANCH  10  11
HETATM   11  N5  UNL     1      24.270   0.047  53.533  1.00  0.00     0.092 N 
HETATM   12  C12 UNL     1      24.223  -0.908  54.583  1.00  0.00     0.275 C 
HETATM   13  C13 UNL     1      22.819  -1.215  55.050  1.00  0.00     0.065 C 
HETATM   14  C14 UNL     1      21.854  -1.501  53.943  1.00  0.00     0.221 C 
HETATM   15  C15 UNL     1      22.111  -0.630  52.738  1.00  0.00     0.065 C 
HETATM   16  C16 UNL     1      22.986   0.522  53.163  1.00  0.00     0.275 C 
BRANCH  14  17
HETATM   17  N6  UNL     1      20.530  -1.143  54.454  1.00  0.00     0.083 N 
HETATM   18  H17 UNL     1      20.481  -0.114  54.655  1.00  0.00     0.313 HD
HETATM   19  H18 UNL     1      20.248  -1.753  55.230  1.00  0.00     0.313 HD
ENDBRANCH  14  17
ENDBRANCH  10  11
ENDBRANCH   8  10
BRANCH   1  20
HETATM   20  N1  UNL     1      26.064   2.606  53.025  1.00  0.00    -0.338 N 
HETATM   21  H6  UNL     1      25.451   2.969  53.783  1.00  0.00     0.167 HD
BRANCH  20  22
HETATM   22  C5  UNL     1      25.656   2.927  51.640  1.00  0.00     0.044 A 
HETATM   23  C3  UNL     1      24.798   3.093  50.401  1.00  0.00    -0.011 A 
HETATM   24  C2  UNL     1      23.506   2.773  50.413  1.00  0.00    -0.017 C 
HETATM   25  C4  UNL     1      26.237   3.403  50.525  1.00  0.00     0.043 A 
HETATM   26  C1  UNL     1      22.941   3.085  49.077  1.00  0.00     0.037 C 
ENDBRANCH  20  22
ENDBRANCH   1  20
TORSDOF 5
ENDMDL
MODEL 3
REMARK VINA RESULT:      -7.7      2.388      5.743
REMARK  5 active torsions:
REMARK  status: ('A' for Active; 'I' for Inactive)
REMARK    1  A    between atoms: C5_5  and  N1_6 
REMARK    2  A    between atoms: N1_6  and  C6_7 
REMARK    3  A    between atoms: C10_14  and  C11_15 
REMARK    4  A    between atoms: C11_15  and  N5_16 
REMARK    5  A    between atoms: C14_19  and  N6_20 
ROOT
HETATM    1  C6  UNL     1      23.642   3.048  51.233  1.00  0.00     0.159 A 
HETATM    2  N2  UNL     1      22.781   3.579  50.313  1.00  0.00    -0.220 NA
HETATM    3  C7  UNL     1      21.625   2.896  50.065  1.00  0.00     0.258 A 
HETATM    4  N3  UNL     1      21.314   1.761  50.670  1.00  0.00    -0.161 NA
HETATM    5  N4  UNL     1      22.117   1.237  51.550  1.00  0.00    -0.240 N 
HETATM    6  C8  UNL     1      22.103   0.112  52.326  1.00  0.00     0.119 A 
HETATM    7  C9  UNL     1      23.246   0.047  53.091  1.00  0.00     0.030 A 
HETATM    8  C10 UNL     1      23.978   1.170  52.764  1.00  0.00     0.004 A 
HETATM    9  C17 UNL     1      23.275   1.867  51.837  1.00  0.00     0.112 A 
ENDROOT
BRANCH   8  10
HETATM   10  C11 UNL     1      25.268   1.483  53.382  1.00  0.00     0.313 C 
BRANCH  10  11
HETATM   11  N5  UNL     1      26.355   0.846  52.692  1.00  0.00     0.092 N 
HETATM   12  C12 UNL     1      26.738  -0.404  53.247  1.00  0.00     0.275 C 
HETATM   13  C13 UNL     1      28.233  -0.553  53.406  1.00  0.00     0.065 C 
HETATM   14  C14 UNL     1      28.901   0.616  54.058  1.00  0.00     0.221 C 
HETATM   15  C15 UNL     1      28.281   1.923  53.631  1.00  0.00     0.065 C 
HETATM   16  C16 UNL     1      27.464   1.677  52.389  1.00  0.00     0.275 C 
BRANCH  14  17
HETATM   17  N6  UNL     1      30.283   0.619  53.574  1.00  0.00     0.083 N 
HETATM   18  H17 UNL     1      30.392  -0.053  52.775  1.00  0.00     0.313 HD
HETATM   19  H18 UNL     1      30.951   0.496  54.343  1.00  0.00     0.313 HD
ENDBRANCH  14  17
ENDBRANCH  10  11
ENDBRANCH   8  10
BRANCH   1  20
HETATM   20  N1  UNL     1      24.807   3.836  51.382  1.00  0.00    -0.338 N 
HETATM   21  H6  UNL     1      25.051   4.289  52.286  1.00  0.00     0.167 HD
BRANCH  20  22
HETATM   22  C5  UNL     1      25.739   4.069  50.257  1.00  0.00     0.044 A 
HETATM   23  C3  UNL     1      26.567   4.784  49.209  1.00  0.00    -0.011 A 
HETATM   24  C2  UNL     1      26.548   6.111  49.106  1.00  0.00    -0.017 C 
HETATM   25  C4  UNL     1      26.492   3.326  49.428  1.00  0.00     0.043 A 
HETATM   26  C1  UNL     1      27.485   6.504  48.024  1.00  0.00     0.037 C 
ENDBRANCH  20  22
ENDBRANCH   1  20
TORSDOF 5
ENDMDL
MODEL 4
REMARK VINA RESULT:      -7.6      1.785      2.133
REMARK  5 active torsions:
REMARK  status: ('A' for Active; 'I' for Inactive)
REMARK    1  A    between atoms: C5_5  and  N1_6 
REMARK    2  A    between atoms: N1_6  and  C6_7 
REMARK    3  A    between atoms: C10_14  and  C11_15 
REMARK    4  A    between atoms: C11_15  and  N5_16 
REMARK    5  A    between atoms: C14_19  and  N6_20 
ROOT
HETATM    1  C6  UNL     1      23.687  -0.130  53.245  1.00  0.00     0.159 A 
HETATM    2  N2  UNL     1      23.474  -0.978  54.296  1.00  0.00    -0.220 NA
HETATM    3  C7  UNL     1      22.271  -0.896  54.938  1.00  0.00     0.258 A 
HETATM    4  N3  UNL     1      21.323  -0.042  54.587  1.00  0.00    -0.161 NA
HETATM    5  N4  UNL     1      21.503   0.774  53.589  1.00  0.00    -0.240 N 
HETATM    6  C8  UNL     1      20.758   1.753  52.992  1.00  0.00     0.119 A 
HETATM    7  C9  UNL     1      21.462   2.319  51.954  1.00  0.00     0.030 A 
HETATM    8  C10 UNL     1      22.675   1.663  51.924  1.00  0.00     0.004 A 
HETATM    9  C17 UNL     1      22.672   0.739  52.917  1.00  0.00     0.112 A 
ENDROOT
BRANCH   8  10
HETATM   10  C11 UNL     1      23.715   1.964  50.938  1.00  0.00     0.313 C 
BRANCH  10  11
HETATM   11  N5  UNL     1      24.512   3.090  51.335  1.00  0.00     0.092 N 
HETATM   12  C12 UNL     1      24.075   4.328  50.792  1.00  0.00     0.275 C 
HETATM   13  C13 UNL     1      25.200   5.162  50.224  1.00  0.00     0.065 C 
HETATM   14  C14 UNL     1      26.124   4.410  49.320  1.00  0.00     0.221 C 
HETATM   15  C15 UNL     1      26.356   3.001  49.804  1.00  0.00     0.065 C 
HETATM   16  C16 UNL     1      25.917   2.915  51.243  1.00  0.00     0.275 C 
BRANCH  14  17
HETATM   17  N6  UNL     1      27.413   5.103  49.387  1.00  0.00     0.083 N 
HETATM   18  H17 UNL     1      28.065   4.600  50.036  1.00  0.00     0.313 HD
HETATM   19  H18 UNL     1      27.292   6.104  49.577  1.00  0.00     0.313 HD
ENDBRANCH  14  17
ENDBRANCH  10  11
ENDBRANCH   8  10
BRANCH   1  20
HETATM   20  N1  UNL     1      24.973  -0.300  52.682  1.00  0.00    -0.338 N 
HETATM   21  H6  UNL     1      25.104  -0.588  51.691  1.00  0.00     0.167 HD
BRANCH  20  22
HETATM   22  C5  UNL     1      26.204  -0.088  53.475  1.00  0.00     0.044 A 
HETATM   23  C3  UNL     1      27.649  -0.169  53.925  1.00  0.00    -0.011 A 
HETATM   24  C2  UNL     1      28.542  -0.881  53.241  1.00  0.00    -0.017 C 
HETATM   25  C4  UNL     1      26.559   0.575  54.589  1.00  0.00     0.043 A 
HETATM   26  C1  UNL     1      29.860  -0.728  53.907  1.00  0.00     0.037 C 
ENDBRANCH  20  22
ENDBRANCH   1  20
TORSDOF 5
ENDMDL
MODEL 5
REMARK VINA RESULT:      -7.6      2.466      5.352
REMARK  5 active torsions:
REMARK  status: ('A' for Active; 'I' for Inactive)
REMARK    1  A    between atoms: C5_5  and  N1_6 
REMARK    2  A    between atoms: N1_6  and  C6_7 
REMARK    3  A    between atoms: C10_14  and  C11_15 
REMARK    4  A    between atoms: C11_15  and  N5_16 
REMARK    5  A    between atoms: C14_19  and  N6_20 
ROOT
HETATM    1  C6  UNL     1      26.812   1.699  52.244  1.00  0.00     0.159 A 
HETATM    2  N2  UNL     1      27.948   2.450  52.364  1.00  0.00    -0.220 NA
HETATM    3  C7  UNL     1      28.640   2.362  53.538  1.00  0.00     0.258 A 
HETATM    4  N3  UNL     1      28.257   1.592  54.545  1.00  0.00    -0.161 NA
HETATM    5  N4  UNL     1      27.179   0.869  54.453  1.00  0.00    -0.240 N 
HETATM    6  C8  UNL     1      26.521   0.002  55.280  1.00  0.00     0.119 A 
HETATM    7  C9  UNL     1      25.396  -0.487  54.658  1.00  0.00     0.030 A 
HETATM    8  C10 UNL     1      25.371   0.105  53.412  1.00  0.00     0.004 A 
HETATM    9  C17 UNL     1      26.455   0.915  53.316  1.00  0.00     0.112 A 
ENDROOT
BRANCH   8  10
HETATM   10  C11 UNL     1      24.327  -0.172  52.423  1.00  0.00     0.313 C 
BRANCH  10  11
HETATM   11  N5  UNL     1      23.086   0.461  52.770  1.00  0.00     0.092 N 
HETATM   12  C12 UNL     1      21.968  -0.416  52.768  1.00  0.00     0.275 C 
HETATM   13  C13 UNL     1      20.763   0.154  52.057  1.00  0.00     0.065 C 
HETATM   14  C14 UNL     1      21.063   0.738  50.713  1.00  0.00     0.221 C 
HETATM   15  C15 UNL     1      22.395   1.445  50.695  1.00  0.00     0.065 C 
HETATM   16  C16 UNL     1      22.819   1.694  52.120  1.00  0.00     0.275 C 
BRANCH  14  17
HETATM   17  N6  UNL     1      20.036   1.754  50.471  1.00  0.00     0.083 N 
HETATM   18  H17 UNL     1      19.088   1.308  50.412  1.00  0.00     0.313 HD
HETATM   19  H18 UNL     1      20.285   2.359  49.679  1.00  0.00     0.313 HD
ENDBRANCH  14  17
ENDBRANCH  10  11
ENDBRANCH   8  10
BRANCH   1  20
HETATM   20  N1  UNL     1      26.180   1.895  50.994  1.00  0.00    -0.338 N 
HETATM   21  H6  UNL     1      25.804   1.100  50.439  1.00  0.00     0.167 HD
BRANCH  20  22
HETATM   22  C5  UNL     1      26.027   3.242  50.401  1.00  0.00     0.044 A 
HETATM   23  C3  UNL     1      26.327   4.503  49.617  1.00  0.00    -0.011 A 
HETATM   24  C2  UNL     1      27.474   4.644  48.955  1.00  0.00    -0.017 C 
HETATM   25  C4  UNL     1      25.105   4.219  50.396  1.00  0.00     0.043 A 
HETATM   26  C1  UNL     1      27.448   5.956  48.262  1.00  0.00     0.037 C 
ENDBRANCH  20  22
ENDBRANCH   1  20
TORSDOF 5
ENDMDL
MODEL 6
REMARK VINA RESULT:      -7.5      1.842      5.016
REMARK  5 active torsions:
REMARK  status: ('A' for Active; 'I' for Inactive)
REMARK    1  A    between atoms: C5_5  and  N1_6 
REMARK    2  A    between atoms: N1_6  and  C6_7 
REMARK    3  A    between atoms: C10_14  and  C11_15 
REMARK    4  A    between atoms: C11_15  and  N5_16 
REMARK    5  A    between atoms: C14_19  and  N6_20 
ROOT
HETATM    1  C6  UNL     1      25.644   2.808  51.471  1.00  0.00     0.159 A 
HETATM    2  N2  UNL     1      26.820   2.997  50.800  1.00  0.00    -0.220 NA
HETATM    3  C7  UNL     1      26.770   3.691  49.625  1.00  0.00     0.258 A 
HETATM    4  N3  UNL     1      25.646   4.177  49.122  1.00  0.00    -0.161 NA
HETATM    5  N4  UNL     1      24.515   4.010  49.743  1.00  0.00    -0.240 N 
HETATM    6  C8  UNL     1      23.217   4.364  49.504  1.00  0.00     0.119 A 
HETATM    7  C9  UNL     1      22.405   3.909  50.517  1.00  0.00     0.030 A 
HETATM    8  C10 UNL     1      23.240   3.256  51.400  1.00  0.00     0.004 A 
HETATM    9  C17 UNL     1      24.503   3.333  50.910  1.00  0.00     0.112 A 
ENDROOT
BRANCH   8  10
HETATM   10  C11 UNL     1      22.760   2.637  52.637  1.00  0.00     0.313 C 
BRANCH  10  11
HETATM   11  N5  UNL     1      21.943   1.486  52.372  1.00  0.00     0.092 N 
HETATM   12  C12 UNL     1      20.724   1.461  53.101  1.00  0.00     0.275 C 
HETATM   13  C13 UNL     1      20.435   0.121  53.736  1.00  0.00     0.065 C 
HETATM   14  C14 UNL     1      21.590  -0.464  54.487  1.00  0.00     0.221 C 
HETATM   15  C15 UNL     1      22.903  -0.185  53.799  1.00  0.00     0.065 C 
HETATM   16  C16 UNL     1      22.615   0.237  52.381  1.00  0.00     0.275 C 
BRANCH  14  17
HETATM   17  N6  UNL     1      21.396  -1.915  54.467  1.00  0.00     0.083 N 
HETATM   18  H17 UNL     1      21.841  -2.355  55.309  1.00  0.00     0.313 HD
HETATM   19  H18 UNL     1      21.674  -2.319  53.565  1.00  0.00     0.313 HD
ENDBRANCH  14  17
ENDBRANCH  10  11
ENDBRANCH   8  10
BRANCH   1  20
HETATM   20  N1  UNL     1      25.828   2.060  52.657  1.00  0.00    -0.338 N 
HETATM   21  H6  UNL     1      25.429   2.368  53.568  1.00  0.00     0.167 HD
BRANCH  20  22
HETATM   22  C5  UNL     1      26.607   0.803  52.672  1.00  0.00     0.044 A 
HETATM   23  C3  UNL     1      27.730  -0.183  52.924  1.00  0.00    -0.011 A 
HETATM   24  C2  UNL     1      28.844   0.190  53.549  1.00  0.00    -0.017 C 
HETATM   25  C4  UNL     1      26.450  -0.461  52.241  1.00  0.00     0.043 A 
HETATM   26  C1  UNL     1      29.722  -0.999  53.677  1.00  0.00     0.037 C 
ENDBRANCH  20  22
ENDBRANCH   1  20
TORSDOF 5
ENDMDL
MODEL 7
REMARK VINA RESULT:      -7.5      1.845      4.942
REMARK  5 active torsions:
REMARK  status: ('A' for Active; 'I' for Inactive)
REMARK    1  A    between atoms: C5_5  and  N1_6 
REMARK    2  A    between atoms: N1_6  and  C6_7 
REMARK    3  A    between atoms: C10_14  and  C11_15 
REMARK    4  A    between atoms: C11_15  and  N5_16 
REMARK    5  A    between atoms: C14_19  and  N6_20 
ROOT
HETATM    1  C6  UNL     1      22.387   0.997  51.958  1.00  0.00     0.159 A 
HETATM    2  N2  UNL     1      21.091   1.362  51.721  1.00  0.00    -0.220 NA
HETATM    3  C7  UNL     1      20.146   0.941  52.613  1.00  0.00     0.258 A 
HETATM    4  N3  UNL     1      20.433   0.208  53.677  1.00  0.00    -0.161 NA
HETATM    5  N4  UNL     1      21.660  -0.150  53.923  1.00  0.00    -0.240 N 
HETATM    6  C8  UNL     1      22.277  -0.887  54.894  1.00  0.00     0.119 A 
HETATM    7  C9  UNL     1      23.630  -0.956  54.652  1.00  0.00     0.030 A 
HETATM    8  C10 UNL     1      23.838  -0.237  53.492  1.00  0.00     0.004 A 
HETATM    9  C17 UNL     1      22.637   0.236  53.077  1.00  0.00     0.112 A 
ENDROOT
BRANCH   8  10
HETATM   10  C11 UNL     1      25.165  -0.053  52.901  1.00  0.00     0.313 C 
BRANCH  10  11
HETATM   11  N5  UNL     1      25.789   1.155  53.364  1.00  0.00     0.092 N 
HETATM   12  C12 UNL     1      26.606   1.793  52.392  1.00  0.00     0.275 C 
HETATM   13  C13 UNL     1      27.949   2.226  52.932  1.00  0.00     0.065 C 
HETATM   14  C14 UNL     1      28.667   1.168  53.709  1.00  0.00     0.221 C 
HETATM   15  C15 UNL     1      27.716   0.340  54.536  1.00  0.00     0.065 C 
HETATM   16  C16 UNL     1      26.407   1.080  54.638  1.00  0.00     0.275 C 
BRANCH  14  17
HETATM   17  N6  UNL     1      29.544   1.875  54.646  1.00  0.00     0.083 N 
HETATM   18  H17 UNL     1      28.996   2.577  55.200  1.00  0.00     0.313 HD
HETATM   19  H18 UNL     1      30.378   2.244  54.175  1.00  0.00     0.313 HD
ENDBRANCH  14  17
ENDBRANCH  10  11
ENDBRANCH   8  10
BRANCH   1  20
HETATM   20  N1  UNL     1      23.262   1.475  50.955  1.00  0.00    -0.338 N 
HETATM   21  H6  UNL     1      23.617   0.858  50.196  1.00  0.00     0.167 HD
BRANCH  20  22
HETATM   22  C5  UNL     1      23.730   2.878  50.934  1.00  0.00     0.044 A 
HETATM   23  C3  UNL     1      24.483   4.131  50.532  1.00  0.00    -0.011 A 
HETATM   24  C2  UNL     1      25.358   4.114  49.530  1.00  0.00    -0.017 C 
HETATM   25  C4  UNL     1      23.494   4.008  51.623  1.00  0.00     0.043 A 
HETATM   26  C1  UNL     1      25.891   5.489  49.360  1.00  0.00     0.037 C 
ENDBRANCH  20  22
ENDBRANCH   1  20
TORSDOF 5
ENDMDL
MODEL 8
REMARK VINA RESULT:      -7.1      1.726      5.132
REMARK  5 active torsions:
REMARK  status: ('A' for Active; 'I' for Inactive)
REMARK    1  A    between atoms: C5_5  and  N1_6 
REMARK    2  A    between atoms: N1_6  and  C6_7 
REMARK    3  A    between atoms: C10_14  and  C11_15 
REMARK    4  A    between atoms: C11_15  and  N5_16 
REMARK    5  A    between atoms: C14_19  and  N6_20 
ROOT
HETATM    1  C6  UNL     1      22.026   0.335  53.303  1.00  0.00     0.159 A 
HETATM    2  N2  UNL     1      21.446  -0.384  54.311  1.00  0.00    -0.220 NA
HETATM    3  C7  UNL     1      22.268  -1.133  55.103  1.00  0.00     0.258 A 
HETATM    4  N3  UNL     1      23.579  -1.189  54.933  1.00  0.00    -0.161 NA
HETATM    5  N4  UNL     1      24.153  -0.513  53.980  1.00  0.00    -0.240 N 
HETATM    6  C8  UNL     1      25.438  -0.359  53.540  1.00  0.00     0.119 A 
HETATM    7  C9  UNL     1      25.472   0.492  52.459  1.00  0.00     0.030 A 
HETATM    8  C10 UNL     1      24.163   0.865  52.237  1.00  0.00     0.004 A 
HETATM    9  C17 UNL     1      23.392   0.246  53.166  1.00  0.00     0.112 A 
ENDROOT
BRANCH   8  10
HETATM   10  C11 UNL     1      23.772   1.791  51.172  1.00  0.00     0.313 C 
BRANCH  10  11
HETATM   11  N5  UNL     1      24.208   3.131  51.448  1.00  0.00     0.092 N 
HETATM   12  C12 UNL     1      23.891   3.585  52.756  1.00  0.00     0.275 C 
HETATM   13  C13 UNL     1      23.298   4.974  52.780  1.00  0.00     0.065 C 
HETATM   14  C14 UNL     1      22.193   5.186  51.795  1.00  0.00     0.221 C 
HETATM   15  C15 UNL     1      22.456   4.465  50.496  1.00  0.00     0.065 C 
HETATM   16  C16 UNL     1      23.915   4.093  50.447  1.00  0.00     0.275 C 
BRANCH  14  17
HETATM   17  N6  UNL     1      22.185   6.619  51.493  1.00  0.00     0.083 N 
HETATM   18  H17 UNL     1      21.202   6.958  51.354  1.00  0.00     0.313 HD
HETATM   19  H18 UNL     1      22.838   6.847  50.734  1.00  0.00     0.313 HD
ENDBRANCH  14  17
ENDBRANCH  10  11
ENDBRANCH   8  10
BRANCH   1  20
HETATM   20  N1  UNL     1      21.068   1.049  52.546  1.00  0.00    -0.338 N 
HETATM   21  H6  UNL     1      21.221   2.038  52.261  1.00  0.00     0.167 HD
BRANCH  20  22
HETATM   22  C5  UNL     1      19.791   0.433  52.126  1.00  0.00     0.044 A 
HETATM   23  C3  UNL     1      18.536  -0.417  52.146  1.00  0.00    -0.011 A 
HETATM   24  C2  UNL     1      18.251  -1.196  53.186  1.00  0.00    -0.017 C 
HETATM   25  C4  UNL     1      18.974   0.484  51.060  1.00  0.00     0.043 A 
HETATM   26  C1  UNL     1      16.950  -1.861  52.922  1.00  0.00     0.037 C 
ENDBRANCH  20  22
ENDBRANCH   1  20
TORSDOF 5
ENDMDL
MODEL 9
REMARK VINA RESULT:      -7.0      2.676      7.104
REMARK  5 active torsions:
REMARK  status: ('A' for Active; 'I' for Inactive)
REMARK    1  A    between atoms: C5_5  and  N1_6 
REMARK    2  A    between atoms: N1_6  and  C6_7 
REMARK    3  A    between atoms: C10_14  and  C11_15 
REMARK    4  A    between atoms: C11_15  and  N5_16 
REMARK    5  A    between atoms: C14_19  and  N6_20 
ROOT
HETATM    1  C6  UNL     1      24.327   5.297  51.364  1.00  0.00     0.159 A 
HETATM    2  N2  UNL     1      23.913   6.594  51.235  1.00  0.00    -0.220 NA
HETATM    3  C7  UNL     1      24.497   7.348  50.258  1.00  0.00     0.258 A 
HETATM    4  N3  UNL     1      25.432   6.879  49.447  1.00  0.00    -0.161 NA
HETATM    5  N4  UNL     1      25.842   5.648  49.550  1.00  0.00    -0.240 N 
HETATM    6  C8  UNL     1      26.764   4.877  48.900  1.00  0.00     0.119 A 
HETATM    7  C9  UNL     1      26.793   3.612  49.441  1.00  0.00     0.030 A 
HETATM    8  C10 UNL     1      25.857   3.619  50.455  1.00  0.00     0.004 A 
HETATM    9  C17 UNL     1      25.301   4.855  50.497  1.00  0.00     0.112 A 
ENDROOT
BRANCH   8  10
HETATM   10  C11 UNL     1      25.567   2.440  51.275  1.00  0.00     0.313 C 
BRANCH  10  11
HETATM   11  N5  UNL     1      26.764   1.720  51.610  1.00  0.00     0.092 N 
HETATM   12  C12 UNL     1      26.630   0.308  51.532  1.00  0.00     0.275 C 
HETATM   13  C13 UNL     1      27.206  -0.414  52.727  1.00  0.00     0.065 C 
HETATM   14  C14 UNL     1      26.783   0.150  54.047  1.00  0.00     0.221 C 
HETATM   15  C15 UNL     1      26.687   1.655  54.007  1.00  0.00     0.065 C 
HETATM   16  C16 UNL     1      27.429   2.145  52.789  1.00  0.00     0.275 C 
BRANCH  14  17
HETATM   17  N6  UNL     1      27.848  -0.185  54.994  1.00  0.00     0.083 N 
HETATM   18  H17 UNL     1      28.729  -0.433  54.482  1.00  0.00     0.313 HD
HETATM   19  H18 UNL     1      27.534  -0.878  55.683  1.00  0.00     0.313 HD
ENDBRANCH  14  17
ENDBRANCH  10  11
ENDBRANCH   8  10
BRANCH   1  20
HETATM   20  N1  UNL     1      23.663   4.633  52.421  1.00  0.00    -0.338 N 
HETATM   21  H6  UNL     1      23.986   4.711  53.407  1.00  0.00     0.167 HD
BRANCH  20  22
HETATM   22  C5  UNL     1      22.479   3.780  52.182  1.00  0.00     0.044 A 
HETATM   23  C3  UNL     1      21.614   2.548  52.000  1.00  0.00    -0.011 A 
HETATM   24  C2  UNL     1      22.134   1.326  52.083  1.00  0.00    -0.017 C 
HETATM   25  C4  UNL     1      21.170   3.956  51.929  1.00  0.00     0.043 A 
HETATM   26  C1  UNL     1      21.036   0.344  51.901  1.00  0.00     0.037 C 
ENDBRANCH  20  22
ENDBRANCH   1  20
TORSDOF 5
ENDMDL
