MODEL 1
REMARK VINA RESULT:      -7.0      0.000      0.000
REMARK  10 active torsions:
REMARK  status: ('A' for Active; 'I' for Inactive)
REMARK    1  A    between atoms: C2_2  and  C3_3 
REMARK    2  A    between atoms: C3_3  and  C4_4 
REMARK    3  A    between atoms: C4_4  and  C5_5 
REMARK    4  A    between atoms: C5_5  and  C6_6 
REMARK    5  A    between atoms: C6_6  and  C7_7 
REMARK    6  A    between atoms: C7_7  and  C8_8 
REMARK    7  A    between atoms: C8_8  and  C9_9 
REMARK    8  A    between atoms: C9_9  and  N1_10 
REMARK    9  A    between atoms: C9_9  and  C10_11 
REMARK       I    between atoms: C10_11  and  N2_13 
REMARK   10  A    between atoms: N2_13  and  C11_14 
ROOT
HETATM    1  C10 UNL     1      26.165   3.274  50.654  1.00  0.00     0.256 C 
HETATM    2  O1  UNL     1      26.819   2.724  49.728  1.00  0.00    -0.271 OA
HETATM    3  N2  UNL     1      26.181   2.870  52.019  1.00  0.00    -0.310 N 
HETATM    4  H21 UNL     1      25.627   3.348  52.757  1.00  0.00     0.170 HD
ENDROOT
BRANCH   1   5
HETATM    5  C9  UNL     1      25.307   4.447  50.272  1.00  0.00     0.309 C 
BRANCH   5   6
HETATM    6  C8  UNL     1      24.332   3.912  49.232  1.00  0.00     0.045 C 
BRANCH   6   7
HETATM    7  C7  UNL     1      22.955   3.679  49.838  1.00  0.00     0.003 C 
BRANCH   7   8
HETATM    8  C6  UNL     1      22.782   2.196  50.022  1.00  0.00     0.000 C 
BRANCH   8   9
HETATM    9  C5  UNL     1      22.256   1.897  51.432  1.00  0.00     0.000 C 
BRANCH   9  10
HETATM   10  C4  UNL     1      22.862   0.637  51.962  1.00  0.00     0.000 C 
BRANCH  10  11
HETATM   11  C3  UNL     1      22.846   0.687  53.471  1.00  0.00    -0.000 C 
BRANCH  11  12
HETATM   12  C2  UNL     1      22.997  -0.670  54.067  1.00  0.00    -0.005 C 
HETATM   13  C1  UNL     1      21.620  -1.203  54.486  1.00  0.00     0.005 C 
ENDBRANCH  11  12
ENDBRANCH  10  11
ENDBRANCH   9  10
ENDBRANCH   8   9
ENDBRANCH   7   8
ENDBRANCH   6   7
ENDBRANCH   5   6
BRANCH   5  14
HETATM   14  N1  UNL     1      24.649   4.934  51.449  1.00  0.00     0.092 N 
HETATM   15  H19 UNL     1      24.677   5.955  51.567  1.00  0.00     0.313 HD
HETATM   16  H20 UNL     1      23.665   4.531  51.505  1.00  0.00     0.313 HD
ENDBRANCH   5  14
ENDBRANCH   1   5
BRANCH   3  17
HETATM   17  C11 UNL     1      26.989   1.761  52.390  1.00  0.00     0.129 C 
HETATM   18  C12 UNL     1      26.481   0.502  52.567  1.00  0.00     0.055 C 
HETATM   19  C13 UNL     1      26.615  -0.758  52.028  1.00  0.00     0.067 C 
HETATM   20  C14 UNL     1      27.475  -1.617  52.708  1.00  0.00     0.211 C 
HETATM   21  F1  UNL     1      26.670  -2.722  52.704  1.00  0.00    -0.184 F 
HETATM   22  N3  UNL     1      28.657  -1.088  53.076  1.00  0.00    -0.214 NA
HETATM   23  C15 UNL     1      28.782  -0.299  54.164  1.00  0.00     0.235 C 
HETATM   24  N4  UNL     1      28.776   0.751  55.022  1.00  0.00    -0.253 NA
HETATM   25  C16 UNL     1      29.249   1.967  54.725  1.00  0.00     0.137 C 
HETATM   26  C17 UNL     1      28.718   2.641  53.640  1.00  0.00     0.138 C 
HETATM   27  N5  UNL     1      28.309   1.887  52.588  1.00  0.00    -0.242 NA
ENDBRANCH   3  17
TORSDOF 10
ENDMDL
MODEL 2
REMARK VINA RESULT:      -6.7      2.250      2.667
REMARK  10 active torsions:
REMARK  status: ('A' for Active; 'I' for Inactive)
REMARK    1  A    between atoms: C2_2  and  C3_3 
REMARK    2  A    between atoms: C3_3  and  C4_4 
REMARK    3  A    between atoms: C4_4  and  C5_5 
REMARK    4  A    between atoms: C5_5  and  C6_6 
REMARK    5  A    between atoms: C6_6  and  C7_7 
REMARK    6  A    between atoms: C7_7  and  C8_8 
REMARK    7  A    between atoms: C8_8  and  C9_9 
REMARK    8  A    between atoms: C9_9  and  N1_10 
REMARK    9  A    between atoms: C9_9  and  C10_11 
REMARK       I    between atoms: C10_11  and  N2_13 
REMARK   10  A    between atoms: N2_13  and  C11_14 
ROOT
HETATM    1  C10 UNL     1      23.929   3.302  51.410  1.00  0.00     0.256 C 
HETATM    2  O1  UNL     1      24.018   3.835  52.548  1.00  0.00    -0.271 OA
HETATM    3  N2  UNL     1      24.364   1.986  51.086  1.00  0.00    -0.310 N 
HETATM    4  H21 UNL     1      24.274   1.579  50.134  1.00  0.00     0.170 HD
ENDROOT
BRANCH   1   5
HETATM    5  C9  UNL     1      23.311   4.133  50.320  1.00  0.00     0.309 C 
BRANCH   5   6
HETATM    6  C8  UNL     1      23.479   3.314  49.047  1.00  0.00     0.045 C 
BRANCH   6   7
HETATM    7  C7  UNL     1      22.134   3.046  48.385  1.00  0.00     0.003 C 
BRANCH   7   8
HETATM    8  C6  UNL     1      21.936   1.555  48.342  1.00  0.00     0.000 C 
BRANCH   8   9
HETATM    9  C5  UNL     1      20.812   1.144  49.302  1.00  0.00     0.000 C 
BRANCH   9  10
HETATM   10  C4  UNL     1      21.375   0.460  50.507  1.00  0.00     0.000 C 
BRANCH  10  11
HETATM   11  C3  UNL     1      20.735   1.046  51.742  1.00  0.00    -0.000 C 
BRANCH  11  12
HETATM   12  C2  UNL     1      19.661   0.163  52.277  1.00  0.00    -0.005 C 
HETATM   13  C1  UNL     1      20.149  -0.517  53.564  1.00  0.00     0.005 C 
ENDBRANCH  11  12
ENDBRANCH  10  11
ENDBRANCH   9  10
ENDBRANCH   8   9
ENDBRANCH   7   8
ENDBRANCH   6   7
ENDBRANCH   5   6
BRANCH   5  14
HETATM   14  N1  UNL     1      21.936   4.370  50.649  1.00  0.00     0.092 N 
HETATM   15  H19 UNL     1      21.450   3.568  51.072  1.00  0.00     0.313 HD
HETATM   16  H20 UNL     1      21.851   5.263  51.222  1.00  0.00     0.313 HD
ENDBRANCH   5  14
ENDBRANCH   1   5
BRANCH   3  17
HETATM   17  C11 UNL     1      24.949   1.193  52.110  1.00  0.00     0.129 C 
HETATM   18  C12 UNL     1      24.233   0.715  53.175  1.00  0.00     0.055 C 
HETATM   19  C13 UNL     1      23.868  -0.495  53.722  1.00  0.00     0.067 C 
HETATM   20  C14 UNL     1      24.663  -0.948  54.772  1.00  0.00     0.211 C 
HETATM   21  F1  UNL     1      23.655  -1.326  55.615  1.00  0.00    -0.184 F 
HETATM   22  N3  UNL     1      25.992  -0.852  54.579  1.00  0.00    -0.214 NA
HETATM   23  C15 UNL     1      26.658   0.311  54.738  1.00  0.00     0.235 C 
HETATM   24  N4  UNL     1      27.193   1.544  54.556  1.00  0.00    -0.253 NA
HETATM   25  C16 UNL     1      27.827   1.931  53.443  1.00  0.00     0.137 C 
HETATM   26  C17 UNL     1      27.152   1.867  52.236  1.00  0.00     0.138 C 
HETATM   27  N5  UNL     1      26.249   0.864  52.090  1.00  0.00    -0.242 NA
ENDBRANCH   3  17
TORSDOF 10
ENDMDL
MODEL 3
REMARK VINA RESULT:      -6.6      2.901      5.330
REMARK  10 active torsions:
REMARK  status: ('A' for Active; 'I' for Inactive)
REMARK    1  A    between atoms: C2_2  and  C3_3 
REMARK    2  A    between atoms: C3_3  and  C4_4 
REMARK    3  A    between atoms: C4_4  and  C5_5 
REMARK    4  A    between atoms: C5_5  and  C6_6 
REMARK    5  A    between atoms: C6_6  and  C7_7 
REMARK    6  A    between atoms: C7_7  and  C8_8 
REMARK    7  A    between atoms: C8_8  and  C9_9 
REMARK    8  A    between atoms: C9_9  and  N1_10 
REMARK    9  A    between atoms: C9_9  and  C10_11 
REMARK       I    between atoms: C10_11  and  N2_13 
REMARK   10  A    between atoms: N2_13  and  C11_14 
ROOT
HETATM    1  C10 UNL     1      23.743   3.381  51.567  1.00  0.00     0.256 C 
HETATM    2  O1  UNL     1      23.923   3.896  52.703  1.00  0.00    -0.271 OA
HETATM    3  N2  UNL     1      24.089   2.048  51.209  1.00  0.00    -0.310 N 
HETATM    4  H21 UNL     1      23.927   1.656  50.260  1.00  0.00     0.170 HD
ENDROOT
BRANCH   1   5
HETATM    5  C9  UNL     1      23.114   4.256  50.519  1.00  0.00     0.309 C 
BRANCH   5   6
HETATM    6  C8  UNL     1      23.935   4.027  49.257  1.00  0.00     0.045 C 
BRANCH   6   7
HETATM    7  C7  UNL     1      25.179   4.905  49.244  1.00  0.00     0.003 C 
BRANCH   7   8
HETATM    8  C6  UNL     1      26.378   3.998  49.295  1.00  0.00     0.000 C 
BRANCH   8   9
HETATM    9  C5  UNL     1      27.602   4.710  48.702  1.00  0.00     0.000 C 
BRANCH   9  10
HETATM   10  C4  UNL     1      27.292   6.146  48.427  1.00  0.00     0.000 C 
BRANCH  10  11
HETATM   11  C3  UNL     1      28.578   6.866  48.097  1.00  0.00    -0.000 C 
BRANCH  11  12
HETATM   12  C2  UNL     1      29.703   5.913  47.887  1.00  0.00    -0.005 C 
HETATM   13  C1  UNL     1      30.980   6.476  48.526  1.00  0.00     0.005 C 
ENDBRANCH  11  12
ENDBRANCH  10  11
ENDBRANCH   9  10
ENDBRANCH   8   9
ENDBRANCH   7   8
ENDBRANCH   6   7
ENDBRANCH   5   6
BRANCH   5  14
HETATM   14  N1  UNL     1      21.742   3.868  50.364  1.00  0.00     0.092 N 
HETATM   15  H19 UNL     1      21.602   2.920  49.991  1.00  0.00     0.313 HD
HETATM   16  H20 UNL     1      21.213   4.046  51.271  1.00  0.00     0.313 HD
ENDBRANCH   5  14
ENDBRANCH   1   5
BRANCH   3  17
HETATM   17  C11 UNL     1      24.685   1.213  52.193  1.00  0.00     0.129 C 
HETATM   18  C12 UNL     1      23.986   0.707  53.256  1.00  0.00     0.055 C 
HETATM   19  C13 UNL     1      23.617  -0.516  53.768  1.00  0.00     0.067 C 
HETATM   20  C14 UNL     1      24.428  -1.014  54.786  1.00  0.00     0.211 C 
HETATM   21  F1  UNL     1      23.432  -1.409  55.636  1.00  0.00    -0.184 F 
HETATM   22  N3  UNL     1      25.754  -0.927  54.569  1.00  0.00    -0.214 NA
HETATM   23  C15 UNL     1      26.437   0.222  54.754  1.00  0.00     0.235 C 
HETATM   24  N4  UNL     1      26.983   1.454  54.602  1.00  0.00    -0.253 NA
HETATM   25  C16 UNL     1      27.599   1.871  53.490  1.00  0.00     0.137 C 
HETATM   26  C17 UNL     1      26.899   1.856  52.296  1.00  0.00     0.138 C 
HETATM   27  N5  UNL     1      25.980   0.870  52.135  1.00  0.00    -0.242 NA
ENDBRANCH   3  17
TORSDOF 10
ENDMDL
MODEL 4
REMARK VINA RESULT:      -6.5      2.283      3.207
REMARK  10 active torsions:
REMARK  status: ('A' for Active; 'I' for Inactive)
REMARK    1  A    between atoms: C2_2  and  C3_3 
REMARK    2  A    between atoms: C3_3  and  C4_4 
REMARK    3  A    between atoms: C4_4  and  C5_5 
REMARK    4  A    between atoms: C5_5  and  C6_6 
REMARK    5  A    between atoms: C6_6  and  C7_7 
REMARK    6  A    between atoms: C7_7  and  C8_8 
REMARK    7  A    between atoms: C8_8  and  C9_9 
REMARK    8  A    between atoms: C9_9  and  N1_10 
REMARK    9  A    between atoms: C9_9  and  C10_11 
REMARK       I    between atoms: C10_11  and  N2_13 
REMARK   10  A    between atoms: N2_13  and  C11_14 
ROOT
HETATM    1  C10 UNL     1      24.016   3.911  51.920  1.00  0.00     0.256 C 
HETATM    2  O1  UNL     1      24.068   4.175  53.151  1.00  0.00    -0.271 OA
HETATM    3  N2  UNL     1      24.439   2.688  51.328  1.00  0.00    -0.310 N 
HETATM    4  H21 UNL     1      24.382   2.504  50.306  1.00  0.00     0.170 HD
ENDROOT
BRANCH   1   5
HETATM    5  C9  UNL     1      23.462   4.980  51.020  1.00  0.00     0.309 C 
BRANCH   5   6
HETATM    6  C8  UNL     1      22.126   4.439  50.529  1.00  0.00     0.045 C 
BRANCH   6   7
HETATM    7  C7  UNL     1      21.031   4.657  51.564  1.00  0.00     0.003 C 
BRANCH   7   8
HETATM    8  C6  UNL     1      20.131   3.452  51.537  1.00  0.00     0.000 C 
BRANCH   8   9
HETATM    9  C5  UNL     1      20.857   2.237  52.130  1.00  0.00     0.000 C 
BRANCH   9  10
HETATM   10  C4  UNL     1      20.542   1.003  51.346  1.00  0.00     0.000 C 
BRANCH  10  11
HETATM   11  C3  UNL     1      21.629   0.789  50.321  1.00  0.00    -0.000 C 
BRANCH  11  12
HETATM   12  C2  UNL     1      21.139   1.049  48.938  1.00  0.00    -0.005 C 
HETATM   13  C1  UNL     1      22.210   1.815  48.149  1.00  0.00     0.005 C 
ENDBRANCH  11  12
ENDBRANCH  10  11
ENDBRANCH   9  10
ENDBRANCH   8   9
ENDBRANCH   7   8
ENDBRANCH   6   7
ENDBRANCH   5   6
BRANCH   5  14
HETATM   14  N1  UNL     1      23.325   6.189  51.778  1.00  0.00     0.092 N 
HETATM   15  H19 UNL     1      23.926   6.963  51.465  1.00  0.00     0.313 HD
HETATM   16  H20 UNL     1      22.297   6.456  51.848  1.00  0.00     0.313 HD
ENDBRANCH   5  14
ENDBRANCH   1   5
BRANCH   3  17
HETATM   17  C11 UNL     1      24.965   1.671  52.170  1.00  0.00     0.129 C 
HETATM   18  C12 UNL     1      24.223   1.063  53.147  1.00  0.00     0.055 C 
HETATM   19  C13 UNL     1      23.760  -0.192  53.470  1.00  0.00     0.067 C 
HETATM   20  C14 UNL     1      24.525  -0.899  54.396  1.00  0.00     0.211 C 
HETATM   21  F1  UNL     1      23.497  -1.342  55.182  1.00  0.00    -0.184 F 
HETATM   22  N3  UNL     1      25.855  -0.880  54.187  1.00  0.00    -0.214 NA
HETATM   23  C15 UNL     1      26.621   0.173  54.540  1.00  0.00     0.235 C 
HETATM   24  N4  UNL     1      27.260   1.369  54.575  1.00  0.00    -0.253 NA
HETATM   25  C16 UNL     1      27.912   1.903  53.536  1.00  0.00     0.137 C 
HETATM   26  C17 UNL     1      27.220   2.122  52.357  1.00  0.00     0.138 C 
HETATM   27  N5  UNL     1      26.231   1.244  52.053  1.00  0.00    -0.242 NA
ENDBRANCH   3  17
TORSDOF 10
ENDMDL
MODEL 5
REMARK VINA RESULT:      -6.3      1.899      2.793
REMARK  10 active torsions:
REMARK  status: ('A' for Active; 'I' for Inactive)
REMARK    1  A    between atoms: C2_2  and  C3_3 
REMARK    2  A    between atoms: C3_3  and  C4_4 
REMARK    3  A    between atoms: C4_4  and  C5_5 
REMARK    4  A    between atoms: C5_5  and  C6_6 
REMARK    5  A    between atoms: C6_6  and  C7_7 
REMARK    6  A    between atoms: C7_7  and  C8_8 
REMARK    7  A    between atoms: C8_8  and  C9_9 
REMARK    8  A    between atoms: C9_9  and  N1_10 
REMARK    9  A    between atoms: C9_9  and  C10_11 
REMARK       I    between atoms: C10_11  and  N2_13 
REMARK   10  A    between atoms: N2_13  and  C11_14 
ROOT
HETATM    1  C10 UNL     1      24.859   3.026  51.467  1.00  0.00     0.256 C 
HETATM    2  O1  UNL     1      24.442   3.349  52.611  1.00  0.00    -0.271 OA
HETATM    3  N2  UNL     1      25.957   2.157  51.212  1.00  0.00    -0.310 N 
HETATM    4  H21 UNL     1      26.275   1.913  50.253  1.00  0.00     0.170 HD
ENDROOT
BRANCH   1   5
HETATM    5  C9  UNL     1      24.131   3.612  50.290  1.00  0.00     0.309 C 
BRANCH   5   6
HETATM    6  C8  UNL     1      23.481   2.427  49.588  1.00  0.00     0.045 C 
BRANCH   6   7
HETATM    7  C7  UNL     1      21.963   2.497  49.685  1.00  0.00     0.003 C 
BRANCH   7   8
HETATM    8  C6  UNL     1      21.511   1.377  50.581  1.00  0.00     0.000 C 
BRANCH   8   9
HETATM    9  C5  UNL     1      21.002   1.940  51.915  1.00  0.00     0.000 C 
BRANCH   9  10
HETATM   10  C4  UNL     1      21.527   1.134  53.059  1.00  0.00     0.000 C 
BRANCH  10  11
HETATM   11  C3  UNL     1      22.244  -0.077  52.512  1.00  0.00    -0.000 C 
BRANCH  11  12
HETATM   12  C2  UNL     1      22.428  -1.124  53.555  1.00  0.00    -0.005 C 
HETATM   13  C1  UNL     1      21.638  -0.741  54.814  1.00  0.00     0.005 C 
ENDBRANCH  11  12
ENDBRANCH  10  11
ENDBRANCH   9  10
ENDBRANCH   8   9
ENDBRANCH   7   8
ENDBRANCH   6   7
ENDBRANCH   5   6
BRANCH   5  14
HETATM   14  N1  UNL     1      23.173   4.563  50.772  1.00  0.00     0.092 N 
HETATM   15  H19 UNL     1      22.661   4.269  51.615  1.00  0.00     0.313 HD
HETATM   16  H20 UNL     1      23.632   5.519  50.871  1.00  0.00     0.313 HD
ENDBRANCH   5  14
ENDBRANCH   1   5
BRANCH   3  17
HETATM   17  C11 UNL     1      26.653   1.598  52.318  1.00  0.00     0.129 C 
HETATM   18  C12 UNL     1      27.895   2.027  52.703  1.00  0.00     0.055 C 
HETATM   19  C13 UNL     1      28.501   2.606  53.795  1.00  0.00     0.067 C 
HETATM   20  C14 UNL     1      29.151   1.730  54.662  1.00  0.00     0.211 C 
HETATM   21  F1  UNL     1      30.304   2.449  54.817  1.00  0.00    -0.184 F 
HETATM   22  N3  UNL     1      28.467   0.617  54.986  1.00  0.00    -0.214 NA
HETATM   23  C15 UNL     1      28.394  -0.447  54.160  1.00  0.00     0.235 C 
HETATM   24  N4  UNL     1      28.060  -1.307  53.166  1.00  0.00    -0.253 NA
HETATM   25  C16 UNL     1      26.802  -1.614  52.830  1.00  0.00     0.137 C 
HETATM   26  C17 UNL     1      25.945  -0.593  52.456  1.00  0.00     0.138 C 
HETATM   27  N5  UNL     1      26.125   0.611  53.056  1.00  0.00    -0.242 NA
ENDBRANCH   3  17
TORSDOF 10
ENDMDL
MODEL 6
REMARK VINA RESULT:      -6.3      1.962      2.336
REMARK  10 active torsions:
REMARK  status: ('A' for Active; 'I' for Inactive)
REMARK    1  A    between atoms: C2_2  and  C3_3 
REMARK    2  A    between atoms: C3_3  and  C4_4 
REMARK    3  A    between atoms: C4_4  and  C5_5 
REMARK    4  A    between atoms: C5_5  and  C6_6 
REMARK    5  A    between atoms: C6_6  and  C7_7 
REMARK    6  A    between atoms: C7_7  and  C8_8 
REMARK    7  A    between atoms: C8_8  and  C9_9 
REMARK    8  A    between atoms: C9_9  and  N1_10 
REMARK    9  A    between atoms: C9_9  and  C10_11 
REMARK       I    between atoms: C10_11  and  N2_13 
REMARK   10  A    between atoms: N2_13  and  C11_14 
ROOT
HETATM    1  C10 UNL     1      24.491   3.333  51.024  1.00  0.00     0.256 C 
HETATM    2  O1  UNL     1      24.043   2.280  50.498  1.00  0.00    -0.271 OA
HETATM    3  N2  UNL     1      25.392   3.379  52.126  1.00  0.00    -0.310 N 
HETATM    4  H21 UNL     1      25.741   4.268  52.535  1.00  0.00     0.170 HD
ENDROOT
BRANCH   1   5
HETATM    5  C9  UNL     1      24.030   4.636  50.431  1.00  0.00     0.309 C 
BRANCH   5   6
HETATM    6  C8  UNL     1      22.745   4.982  51.171  1.00  0.00     0.045 C 
BRANCH   6   7
HETATM    7  C7  UNL     1      21.536   4.874  50.253  1.00  0.00     0.003 C 
BRANCH   7   8
HETATM    8  C6  UNL     1      20.359   4.461  51.094  1.00  0.00     0.000 C 
BRANCH   8   9
HETATM    9  C5  UNL     1      20.829   3.588  52.266  1.00  0.00     0.000 C 
BRANCH   9  10
HETATM   10  C4  UNL     1      20.121   2.271  52.256  1.00  0.00     0.000 C 
BRANCH  10  11
HETATM   11  C3  UNL     1      20.962   1.262  53.001  1.00  0.00    -0.000 C 
BRANCH  11  12
HETATM   12  C2  UNL     1      21.216   0.045  52.181  1.00  0.00    -0.005 C 
HETATM   13  C1  UNL     1      21.123   0.401  50.691  1.00  0.00     0.005 C 
ENDBRANCH  11  12
ENDBRANCH  10  11
ENDBRANCH   9  10
ENDBRANCH   8   9
ENDBRANCH   7   8
ENDBRANCH   6   7
ENDBRANCH   5   6
BRANCH   5  14
HETATM   14  N1  UNL     1      25.060   5.614  50.622  1.00  0.00     0.092 N 
HETATM   15  H19 UNL     1      24.730   6.588  50.644  1.00  0.00     0.313 HD
HETATM   16  H20 UNL     1      25.655   5.353  51.466  1.00  0.00     0.313 HD
ENDBRANCH   5  14
ENDBRANCH   1   5
BRANCH   3  17
HETATM   17  C11 UNL     1      25.833   2.153  52.693  1.00  0.00     0.129 C 
HETATM   18  C12 UNL     1      25.067   1.422  53.562  1.00  0.00     0.055 C 
HETATM   19  C13 UNL     1      24.479   0.180  53.635  1.00  0.00     0.067 C 
HETATM   20  C14 UNL     1      25.196  -0.788  54.335  1.00  0.00     0.211 C 
HETATM   21  F1  UNL     1      24.157  -1.288  55.071  1.00  0.00    -0.184 F 
HETATM   22  N3  UNL     1      26.510  -0.858  54.051  1.00  0.00    -0.214 NA
HETATM   23  C15 UNL     1      27.404   0.007  54.574  1.00  0.00     0.235 C 
HETATM   24  N4  UNL     1      28.174   1.095  54.825  1.00  0.00    -0.253 NA
HETATM   25  C16 UNL     1      28.840   1.777  53.886  1.00  0.00     0.137 C 
HETATM   26  C17 UNL     1      28.130   2.321  52.829  1.00  0.00     0.138 C 
HETATM   27  N5  UNL     1      27.037   1.637  52.406  1.00  0.00    -0.242 NA
ENDBRANCH   3  17
TORSDOF 10
ENDMDL
MODEL 7
REMARK VINA RESULT:      -6.2      6.521      7.642
REMARK  10 active torsions:
REMARK  status: ('A' for Active; 'I' for Inactive)
REMARK    1  A    between atoms: C2_2  and  C3_3 
REMARK    2  A    between atoms: C3_3  and  C4_4 
REMARK    3  A    between atoms: C4_4  and  C5_5 
REMARK    4  A    between atoms: C5_5  and  C6_6 
REMARK    5  A    between atoms: C6_6  and  C7_7 
REMARK    6  A    between atoms: C7_7  and  C8_8 
REMARK    7  A    between atoms: C8_8  and  C9_9 
REMARK    8  A    between atoms: C9_9  and  N1_10 
REMARK    9  A    between atoms: C9_9  and  C10_11 
REMARK       I    between atoms: C10_11  and  N2_13 
REMARK   10  A    between atoms: N2_13  and  C11_14 
ROOT
HETATM    1  C10 UNL     1      30.423   7.453  47.451  1.00  0.00     0.256 C 
HETATM    2  O1  UNL     1      30.578   7.408  46.202  1.00  0.00    -0.271 OA
HETATM    3  N2  UNL     1      31.189   6.716  48.398  1.00  0.00    -0.310 N 
HETATM    4  H21 UNL     1      31.032   6.777  49.424  1.00  0.00     0.170 HD
ENDROOT
BRANCH   1   5
HETATM    5  C9  UNL     1      29.341   8.360  47.968  1.00  0.00     0.309 C 
BRANCH   5   6
HETATM    6  C8  UNL     1      28.032   7.696  47.562  1.00  0.00     0.045 C 
BRANCH   6   7
HETATM    7  C7  UNL     1      27.664   6.574  48.523  1.00  0.00     0.003 C 
BRANCH   7   8
HETATM    8  C6  UNL     1      26.163   6.495  48.580  1.00  0.00     0.000 C 
BRANCH   8   9
HETATM    9  C5  UNL     1      25.727   5.142  49.158  1.00  0.00     0.000 C 
BRANCH   9  10
HETATM   10  C4  UNL     1      26.867   4.175  49.147  1.00  0.00     0.000 C 
BRANCH  10  11
HETATM   11  C3  UNL     1      26.392   2.858  49.712  1.00  0.00    -0.000 C 
BRANCH  11  12
HETATM   12  C2  UNL     1      26.577   2.794  51.188  1.00  0.00    -0.005 C 
HETATM   13  C1  UNL     1      26.556   1.330  51.647  1.00  0.00     0.005 C 
ENDBRANCH  11  12
ENDBRANCH  10  11
ENDBRANCH   9  10
ENDBRANCH   8   9
ENDBRANCH   7   8
ENDBRANCH   6   7
ENDBRANCH   5   6
BRANCH   5  14
HETATM   14  N1  UNL     1      29.484   8.479  49.389  1.00  0.00     0.092 N 
HETATM   15  H19 UNL     1      29.194   9.387  49.776  1.00  0.00     0.313 HD
HETATM   16  H20 UNL     1      29.021   7.650  49.869  1.00  0.00     0.313 HD
ENDBRANCH   5  14
ENDBRANCH   1   5
BRANCH   3  17
HETATM   17  C11 UNL     1      32.214   5.855  47.921  1.00  0.00     0.129 C 
HETATM   18  C12 UNL     1      32.065   4.496  47.850  1.00  0.00     0.055 C 
HETATM   19  C13 UNL     1      32.059   3.500  46.899  1.00  0.00     0.067 C 
HETATM   20  C14 UNL     1      33.260   2.813  46.736  1.00  0.00     0.211 C 
HETATM   21  F1  UNL     1      32.744   1.546  46.713  1.00  0.00    -0.184 F 
HETATM   22  N3  UNL     1      34.364   3.579  46.669  1.00  0.00    -0.214 NA
HETATM   23  C15 UNL     1      34.949   4.093  47.772  1.00  0.00     0.235 C 
HETATM   24  N4  UNL     1      35.263   4.861  48.844  1.00  0.00    -0.253 NA
HETATM   25  C16 UNL     1      35.325   6.197  48.820  1.00  0.00     0.137 C 
HETATM   26  C17 UNL     1      34.201   6.908  48.435  1.00  0.00     0.138 C 
HETATM   27  N5  UNL     1      33.397   6.331  47.507  1.00  0.00    -0.242 NA
ENDBRANCH   3  17
TORSDOF 10
ENDMDL
MODEL 8
REMARK VINA RESULT:      -6.1      3.643      6.538
REMARK  10 active torsions:
REMARK  status: ('A' for Active; 'I' for Inactive)
REMARK    1  A    between atoms: C2_2  and  C3_3 
REMARK    2  A    between atoms: C3_3  and  C4_4 
REMARK    3  A    between atoms: C4_4  and  C5_5 
REMARK    4  A    between atoms: C5_5  and  C6_6 
REMARK    5  A    between atoms: C6_6  and  C7_7 
REMARK    6  A    between atoms: C7_7  and  C8_8 
REMARK    7  A    between atoms: C8_8  and  C9_9 
REMARK    8  A    between atoms: C9_9  and  N1_10 
REMARK    9  A    between atoms: C9_9  and  C10_11 
REMARK       I    between atoms: C10_11  and  N2_13 
REMARK   10  A    between atoms: N2_13  and  C11_14 
ROOT
HETATM    1  C10 UNL     1      25.610   3.711  50.302  1.00  0.00     0.256 C 
HETATM    2  O1  UNL     1      24.672   3.056  49.776  1.00  0.00    -0.271 OA
HETATM    3  N2  UNL     1      26.293   3.347  51.497  1.00  0.00    -0.310 N 
HETATM    4  H21 UNL     1      27.064   3.914  51.904  1.00  0.00     0.170 HD
ENDROOT
BRANCH   1   5
HETATM    5  C9  UNL     1      26.031   4.974  49.603  1.00  0.00     0.309 C 
BRANCH   5   6
HETATM    6  C8  UNL     1      27.276   4.598  48.809  1.00  0.00     0.045 C 
BRANCH   6   7
HETATM    7  C7  UNL     1      27.985   5.837  48.280  1.00  0.00     0.003 C 
BRANCH   7   8
HETATM    8  C6  UNL     1      29.456   5.531  48.221  1.00  0.00     0.000 C 
BRANCH   8   9
HETATM    9  C5  UNL     1      30.238   6.778  47.787  1.00  0.00     0.000 C 
BRANCH   9  10
HETATM   10  C4  UNL     1      31.037   7.320  48.929  1.00  0.00     0.000 C 
BRANCH  10  11
HETATM   11  C3  UNL     1      30.812   8.811  49.015  1.00  0.00    -0.000 C 
BRANCH  11  12
HETATM   12  C2  UNL     1      29.386   9.136  49.297  1.00  0.00    -0.005 C 
HETATM   13  C1  UNL     1      28.928  10.278  48.380  1.00  0.00     0.005 C 
ENDBRANCH  11  12
ENDBRANCH  10  11
ENDBRANCH   9  10
ENDBRANCH   8   9
ENDBRANCH   7   8
ENDBRANCH   6   7
ENDBRANCH   5   6
BRANCH   5  14
HETATM   14  N1  UNL     1      24.953   5.414  48.767  1.00  0.00     0.092 N 
HETATM   15  H19 UNL     1      24.042   5.480  49.239  1.00  0.00     0.313 HD
HETATM   16  H20 UNL     1      25.231   6.309  48.261  1.00  0.00     0.313 HD
ENDBRANCH   5  14
ENDBRANCH   1   5
BRANCH   3  17
HETATM   17  C11 UNL     1      25.902   2.156  52.166  1.00  0.00     0.129 C 
HETATM   18  C12 UNL     1      26.360   0.918  51.800  1.00  0.00     0.055 C 
HETATM   19  C13 UNL     1      27.093  -0.117  52.335  1.00  0.00     0.067 C 
HETATM   20  C14 UNL     1      26.352  -1.169  52.870  1.00  0.00     0.211 C 
HETATM   21  F1  UNL     1      27.062  -2.196  52.312  1.00  0.00    -0.184 F 
HETATM   22  N3  UNL     1      25.319  -0.812  53.656  1.00  0.00    -0.214 NA
HETATM   23  C15 UNL     1      24.139  -0.401  53.147  1.00  0.00     0.235 C 
HETATM   24  N4  UNL     1      23.139   0.334  52.599  1.00  0.00    -0.253 NA
HETATM   25  C16 UNL     1      22.809   1.568  52.997  1.00  0.00     0.137 C 
HETATM   26  C17 UNL     1      23.775   2.559  52.964  1.00  0.00     0.138 C 
HETATM   27  N5  UNL     1      25.055   2.177  53.205  1.00  0.00    -0.242 NA
ENDBRANCH   3  17
TORSDOF 10
ENDMDL
MODEL 9
REMARK VINA RESULT:      -6.0      2.939      5.625
REMARK  10 active torsions:
REMARK  status: ('A' for Active; 'I' for Inactive)
REMARK    1  A    between atoms: C2_2  and  C3_3 
REMARK    2  A    between atoms: C3_3  and  C4_4 
REMARK    3  A    between atoms: C4_4  and  C5_5 
REMARK    4  A    between atoms: C5_5  and  C6_6 
REMARK    5  A    between atoms: C6_6  and  C7_7 
REMARK    6  A    between atoms: C7_7  and  C8_8 
REMARK    7  A    between atoms: C8_8  and  C9_9 
REMARK    8  A    between atoms: C9_9  and  N1_10 
REMARK    9  A    between atoms: C9_9  and  C10_11 
REMARK       I    between atoms: C10_11  and  N2_13 
REMARK   10  A    between atoms: N2_13  and  C11_14 
ROOT
HETATM    1  C10 UNL     1      23.658   3.870  51.179  1.00  0.00     0.256 C 
HETATM    2  O1  UNL     1      23.798   4.596  52.199  1.00  0.00    -0.271 OA
HETATM    3  N2  UNL     1      24.202   2.564  51.024  1.00  0.00    -0.310 N 
HETATM    4  H21 UNL     1      24.066   1.993  50.166  1.00  0.00     0.170 HD
ENDROOT
BRANCH   1   5
HETATM    5  C9  UNL     1      22.850   4.441  50.047  1.00  0.00     0.309 C 
BRANCH   5   6
HETATM    6  C8  UNL     1      23.447   5.817  49.781  1.00  0.00     0.045 C 
BRANCH   6   7
HETATM    7  C7  UNL     1      24.274   5.820  48.503  1.00  0.00     0.003 C 
BRANCH   7   8
HETATM    8  C6  UNL     1      25.699   6.115  48.882  1.00  0.00     0.000 C 
BRANCH   8   9
HETATM    9  C5  UNL     1      26.475   4.805  49.078  1.00  0.00     0.000 C 
BRANCH   9  10
HETATM   10  C4  UNL     1      27.881   4.950  48.591  1.00  0.00     0.000 C 
BRANCH  10  11
HETATM   11  C3  UNL     1      28.109   6.387  48.188  1.00  0.00    -0.000 C 
BRANCH  11  12
HETATM   12  C2  UNL     1      29.559   6.730  48.172  1.00  0.00    -0.005 C 
HETATM   13  C1  UNL     1      29.917   7.387  46.832  1.00  0.00     0.005 C 
ENDBRANCH  11  12
ENDBRANCH  10  11
ENDBRANCH   9  10
ENDBRANCH   8   9
ENDBRANCH   7   8
ENDBRANCH   6   7
ENDBRANCH   5   6
BRANCH   5  14
HETATM   14  N1  UNL     1      22.960   3.563  48.919  1.00  0.00     0.092 N 
HETATM   15  H19 UNL     1      23.485   2.697  49.098  1.00  0.00     0.313 HD
HETATM   16  H20 UNL     1      21.997   3.393  48.499  1.00  0.00     0.313 HD
ENDBRANCH   5  14
ENDBRANCH   1   5
BRANCH   3  17
HETATM   17  C11 UNL     1      24.966   2.015  52.088  1.00  0.00     0.129 C 
HETATM   18  C12 UNL     1      26.318   1.813  52.000  1.00  0.00     0.055 C 
HETATM   19  C13 UNL     1      27.474   2.239  52.615  1.00  0.00     0.067 C 
HETATM   20  C14 UNL     1      27.979   1.396  53.602  1.00  0.00     0.211 C 
HETATM   21  F1  UNL     1      29.289   1.421  53.212  1.00  0.00    -0.184 F 
HETATM   22  N3  UNL     1      27.076   0.921  54.480  1.00  0.00    -0.214 NA
HETATM   23  C15 UNL     1      26.262  -0.114  54.184  1.00  0.00     0.235 C 
HETATM   24  N4  UNL     1      25.253  -0.887  53.712  1.00  0.00    -0.253 NA
HETATM   25  C16 UNL     1      23.957  -0.566  53.798  1.00  0.00     0.137 C 
HETATM   26  C17 UNL     1      23.527   0.624  53.236  1.00  0.00     0.138 C 
HETATM   27  N5  UNL     1      24.402   1.662  53.252  1.00  0.00    -0.242 NA
ENDBRANCH   3  17
TORSDOF 10
ENDMDL
