MODEL 1
REMARK VINA RESULT:      -8.1      0.000      0.000
REMARK  5 active torsions:
REMARK  status: ('A' for Active; 'I' for Inactive)
REMARK    1  A    between atoms: C2_2  and  O1_3 
REMARK    2  A    between atoms: C2_2  and  C7_11 
REMARK    3  A    between atoms: O1_3  and  C3_4 
REMARK    4  A    between atoms: C4_5  and  C5_6 
REMARK       I    between atoms: C5_6  and  N1_7 
REMARK    5  A    between atoms: C12_16  and  C13_17 
ROOT
HETATM    1  C1  UNL     1      26.659  -1.837  52.316  1.00  0.00     0.045 C 
HETATM    2  C2  UNL     1      26.032  -0.958  53.356  1.00  0.00     0.158 C 
ENDROOT
BRANCH   2   3
HETATM    3  O1  UNL     1      27.060  -0.527  54.231  1.00  0.00    -0.342 OA
BRANCH   3   4
HETATM    4  C3  UNL     1      28.411  -0.547  53.891  1.00  0.00     0.096 A 
HETATM    5  C4  UNL     1      29.185   0.526  54.020  1.00  0.00     0.128 A 
HETATM    6  N2  UNL     1      30.263  -0.251  53.522  1.00  0.00    -0.377 N 
HETATM    7  C6  UNL     1      29.462  -1.424  53.371  1.00  0.00     0.187 A 
HETATM    8  H7  UNL     1      31.294  -0.225  53.276  1.00  0.00     0.160 HD
BRANCH   5   9
HETATM    9  C5  UNL     1      29.324   1.946  54.410  1.00  0.00     0.268 C 
HETATM   10  N1  UNL     1      28.844   2.787  53.368  1.00  0.00    -0.365 N 
HETATM   11  H5  UNL     1      28.345   3.357  52.677  1.00  0.00     0.159 HD
HETATM   12  H6  UNL     1      28.895   3.426  52.543  1.00  0.00     0.159 HD
HETATM   13  O2  UNL     1      29.773   2.476  55.457  1.00  0.00    -0.266 OA
ENDBRANCH   5   9
ENDBRANCH   3   4
ENDBRANCH   2   3
BRANCH   2  14
HETATM   14  C7  UNL     1      25.343   0.218  52.787  1.00  0.00    -0.014 A 
HETATM   15  C8  UNL     1      26.039   1.117  52.003  1.00  0.00     0.010 A 
HETATM   16  C9  UNL     1      25.484   2.248  51.425  1.00  0.00     0.001 A 
HETATM   17  C10 UNL     1      24.137   2.489  51.654  1.00  0.00     0.001 A 
HETATM   18  C11 UNL     1      23.438   1.595  52.437  1.00  0.00     0.017 A 
HETATM   19  C12 UNL     1      23.997   0.470  53.010  1.00  0.00     0.056 A 
BRANCH  19  20
HETATM   20  C13 UNL     1      23.223  -0.474  53.846  1.00  0.00     0.418 C 
HETATM   21  F1  UNL     1      22.773  -1.573  53.107  1.00  0.00    -0.166 F 
HETATM   22  F2  UNL     1      22.056   0.141  54.272  1.00  0.00    -0.166 F 
HETATM   23  F3  UNL     1      23.874  -0.861  54.993  1.00  0.00    -0.166 F 
ENDBRANCH  19  20
ENDBRANCH   2  14
TORSDOF 5
ENDMDL
MODEL 2
REMARK VINA RESULT:      -8.0      2.069      2.779
REMARK  5 active torsions:
REMARK  status: ('A' for Active; 'I' for Inactive)
REMARK    1  A    between atoms: C2_2  and  O1_3 
REMARK    2  A    between atoms: C2_2  and  C7_11 
REMARK    3  A    between atoms: O1_3  and  C3_4 
REMARK    4  A    between atoms: C4_5  and  C5_6 
REMARK       I    between atoms: C5_6  and  N1_7 
REMARK    5  A    between atoms: C12_16  and  C13_17 
ROOT
HETATM    1  C1  UNL     1      25.890  -0.332  55.168  1.00  0.00     0.045 C 
HETATM    2  C2  UNL     1      25.713   0.456  53.904  1.00  0.00     0.158 C 
ENDROOT
BRANCH   2   3
HETATM    3  O1  UNL     1      26.626  -0.053  52.948  1.00  0.00    -0.342 OA
BRANCH   3   4
HETATM    4  C3  UNL     1      27.950  -0.367  53.248  1.00  0.00     0.096 A 
HETATM    5  C4  UNL     1      28.802   0.543  53.708  1.00  0.00     0.128 A 
HETATM    6  N2  UNL     1      29.792  -0.473  53.746  1.00  0.00    -0.377 N 
HETATM    7  C6  UNL     1      28.905  -1.477  53.254  1.00  0.00     0.187 A 
HETATM    8  H7  UNL     1      30.806  -0.671  53.986  1.00  0.00     0.160 HD
BRANCH   5   9
HETATM    9  C5  UNL     1      29.061   1.941  54.117  1.00  0.00     0.268 C 
HETATM   10  N1  UNL     1      28.339   2.836  53.281  1.00  0.00    -0.365 N 
HETATM   11  H5  UNL     1      27.685   3.442  52.775  1.00  0.00     0.159 HD
HETATM   12  H6  UNL     1      28.181   3.517  52.505  1.00  0.00     0.159 HD
HETATM   13  O2  UNL     1      29.779   2.414  55.034  1.00  0.00    -0.266 OA
ENDBRANCH   5   9
ENDBRANCH   3   4
ENDBRANCH   2   3
BRANCH   2  14
HETATM   14  C7  UNL     1      24.340   0.385  53.362  1.00  0.00    -0.014 A 
HETATM   15  C8  UNL     1      23.617  -0.787  53.456  1.00  0.00     0.010 A 
HETATM   16  C9  UNL     1      22.326  -0.953  52.980  1.00  0.00     0.001 A 
HETATM   17  C10 UNL     1      21.725   0.136  52.365  1.00  0.00     0.001 A 
HETATM   18  C11 UNL     1      22.444   1.309  52.267  1.00  0.00     0.017 A 
HETATM   19  C12 UNL     1      23.729   1.468  52.744  1.00  0.00     0.056 A 
BRANCH  19  20
HETATM   20  C13 UNL     1      24.479   2.738  52.627  1.00  0.00     0.418 C 
HETATM   21  F1  UNL     1      24.883   3.220  53.876  1.00  0.00    -0.166 F 
HETATM   22  F2  UNL     1      23.633   3.727  52.147  1.00  0.00    -0.166 F 
HETATM   23  F3  UNL     1      25.524   2.686  51.736  1.00  0.00    -0.166 F 
ENDBRANCH  19  20
ENDBRANCH   2  14
TORSDOF 5
ENDMDL
MODEL 3
REMARK VINA RESULT:      -7.9      3.647      6.088
REMARK  5 active torsions:
REMARK  status: ('A' for Active; 'I' for Inactive)
REMARK    1  A    between atoms: C2_2  and  O1_3 
REMARK    2  A    between atoms: C2_2  and  C7_11 
REMARK    3  A    between atoms: O1_3  and  C3_4 
REMARK    4  A    between atoms: C4_5  and  C5_6 
REMARK       I    between atoms: C5_6  and  N1_7 
REMARK    5  A    between atoms: C12_16  and  C13_17 
ROOT
HETATM    1  C1  UNL     1      26.041   1.260  51.414  1.00  0.00     0.045 C 
HETATM    2  C2  UNL     1      26.174   0.773  52.827  1.00  0.00     0.158 C 
ENDROOT
BRANCH   2   3
HETATM    3  O1  UNL     1      25.081  -0.090  53.089  1.00  0.00    -0.342 OA
BRANCH   3   4
HETATM    4  C3  UNL     1      23.760   0.349  53.153  1.00  0.00     0.096 A 
HETATM    5  C4  UNL     1      22.863  -0.233  53.942  1.00  0.00     0.128 A 
HETATM    6  N2  UNL     1      21.907   0.701  53.465  1.00  0.00    -0.377 N 
HETATM    7  C6  UNL     1      22.844   1.351  52.605  1.00  0.00     0.187 A 
HETATM    8  H7  UNL     1      20.894   1.005  53.542  1.00  0.00     0.160 HD
BRANCH   5   9
HETATM    9  C5  UNL     1      22.543  -1.280  54.937  1.00  0.00     0.268 C 
HETATM   10  N1  UNL     1      23.671  -1.526  55.768  1.00  0.00    -0.365 N 
HETATM   11  H5  UNL     1      24.436  -1.563  56.448  1.00  0.00     0.159 HD
HETATM   12  H6  UNL     1      24.521  -2.019  56.118  1.00  0.00     0.159 HD
HETATM   13  O2  UNL     1      21.489  -1.937  55.136  1.00  0.00    -0.266 OA
ENDBRANCH   5   9
ENDBRANCH   3   4
ENDBRANCH   2   3
BRANCH   2  14
HETATM   14  C7  UNL     1      27.440   0.055  53.079  1.00  0.00    -0.014 A 
HETATM   15  C8  UNL     1      27.515  -1.310  52.879  1.00  0.00     0.010 A 
HETATM   16  C9  UNL     1      28.655  -2.071  53.086  1.00  0.00     0.001 A 
HETATM   17  C10 UNL     1      29.794  -1.413  53.526  1.00  0.00     0.001 A 
HETATM   18  C11 UNL     1      29.724  -0.051  53.729  1.00  0.00     0.017 A 
HETATM   19  C12 UNL     1      28.586   0.702  53.520  1.00  0.00     0.056 A 
BRANCH  19  20
HETATM   20  C13 UNL     1      28.538   2.164  53.744  1.00  0.00     0.418 C 
HETATM   21  F1  UNL     1      28.770   2.878  52.564  1.00  0.00    -0.166 F 
HETATM   22  F2  UNL     1      29.587   2.537  54.570  1.00  0.00    -0.166 F 
HETATM   23  F3  UNL     1      27.399   2.590  54.383  1.00  0.00    -0.166 F 
ENDBRANCH  19  20
ENDBRANCH   2  14
TORSDOF 5
ENDMDL
MODEL 4
REMARK VINA RESULT:      -7.6      2.505      4.002
REMARK  5 active torsions:
REMARK  status: ('A' for Active; 'I' for Inactive)
REMARK    1  A    between atoms: C2_2  and  O1_3 
REMARK    2  A    between atoms: C2_2  and  C7_11 
REMARK    3  A    between atoms: O1_3  and  C3_4 
REMARK    4  A    between atoms: C4_5  and  C5_6 
REMARK       I    between atoms: C5_6  and  N1_7 
REMARK    5  A    between atoms: C12_16  and  C13_17 
ROOT
HETATM    1  C1  UNL     1      23.687   2.510  52.755  1.00  0.00     0.045 C 
HETATM    2  C2  UNL     1      23.610   1.127  52.181  1.00  0.00     0.158 C 
ENDROOT
BRANCH   2   3
HETATM    3  O1  UNL     1      24.932   0.626  52.086  1.00  0.00    -0.342 OA
BRANCH   3   4
HETATM    4  C3  UNL     1      26.064   1.426  52.229  1.00  0.00     0.096 A 
HETATM    5  C4  UNL     1      26.912   1.269  53.240  1.00  0.00     0.128 A 
HETATM    6  N2  UNL     1      27.676   2.338  52.703  1.00  0.00    -0.377 N 
HETATM    7  C6  UNL     1      26.786   2.534  51.603  1.00  0.00     0.187 A 
HETATM    8  H7  UNL     1      28.547   2.924  52.847  1.00  0.00     0.160 HD
BRANCH   5   9
HETATM    9  C5  UNL     1      27.291   0.546  54.474  1.00  0.00     0.268 C 
HETATM   10  N1  UNL     1      28.551   1.009  54.945  1.00  0.00    -0.365 N 
HETATM   11  H5  UNL     1      29.371   1.474  55.347  1.00  0.00     0.159 HD
HETATM   12  H6  UNL     1      29.582   1.003  55.105  1.00  0.00     0.159 HD
HETATM   13  O2  UNL     1      26.698  -0.356  55.118  1.00  0.00    -0.266 OA
ENDBRANCH   5   9
ENDBRANCH   3   4
ENDBRANCH   2   3
BRANCH   2  14
HETATM   14  C7  UNL     1      22.791   0.204  52.994  1.00  0.00    -0.014 A 
HETATM   15  C8  UNL     1      23.323  -0.383  54.125  1.00  0.00     0.010 A 
HETATM   16  C9  UNL     1      22.636  -1.259  54.951  1.00  0.00     0.001 A 
HETATM   17  C10 UNL     1      21.326  -1.565  54.612  1.00  0.00     0.001 A 
HETATM   18  C11 UNL     1      20.790  -0.983  53.483  1.00  0.00     0.017 A 
HETATM   19  C12 UNL     1      21.479  -0.110  52.665  1.00  0.00     0.056 A 
BRANCH  19  20
HETATM   20  C13 UNL     1      20.880   0.503  51.458  1.00  0.00     0.418 C 
HETATM   21  F1  UNL     1      20.644   1.870  51.633  1.00  0.00    -0.166 F 
HETATM   22  F2  UNL     1      19.616  -0.029  51.253  1.00  0.00    -0.166 F 
HETATM   23  F3  UNL     1      21.578   0.248  50.302  1.00  0.00    -0.166 F 
ENDBRANCH  19  20
ENDBRANCH   2  14
TORSDOF 5
ENDMDL
MODEL 5
REMARK VINA RESULT:      -7.5      3.654      5.372
REMARK  5 active torsions:
REMARK  status: ('A' for Active; 'I' for Inactive)
REMARK    1  A    between atoms: C2_2  and  O1_3 
REMARK    2  A    between atoms: C2_2  and  C7_11 
REMARK    3  A    between atoms: O1_3  and  C3_4 
REMARK    4  A    between atoms: C4_5  and  C5_6 
REMARK       I    between atoms: C5_6  and  N1_7 
REMARK    5  A    between atoms: C12_16  and  C13_17 
ROOT
HETATM    1  C1  UNL     1      22.305   1.371  50.493  1.00  0.00     0.045 C 
HETATM    2  C2  UNL     1      23.342   1.251  51.569  1.00  0.00     0.158 C 
ENDROOT
BRANCH   2   3
HETATM    3  O1  UNL     1      23.671   2.561  51.998  1.00  0.00    -0.342 OA
BRANCH   3   4
HETATM    4  C3  UNL     1      24.623   3.356  51.362  1.00  0.00     0.096 A 
HETATM    5  C4  UNL     1      24.452   4.664  51.202  1.00  0.00     0.128 A 
HETATM    6  N2  UNL     1      25.714   4.701  50.553  1.00  0.00    -0.377 N 
HETATM    7  C6  UNL     1      25.931   3.298  50.708  1.00  0.00     0.187 A 
HETATM    8  H7  UNL     1      26.413   5.340  50.076  1.00  0.00     0.160 HD
BRANCH   5   9
HETATM    9  C5  UNL     1      23.612   5.865  51.404  1.00  0.00     0.268 C 
HETATM   10  N1  UNL     1      24.387   6.915  51.970  1.00  0.00    -0.365 N 
HETATM   11  H5  UNL     1      25.002   7.695  52.220  1.00  0.00     0.159 HD
HETATM   12  H6  UNL     1      24.760   7.545  52.714  1.00  0.00     0.159 HD
HETATM   13  O2  UNL     1      22.395   6.072  51.162  1.00  0.00    -0.266 OA
ENDBRANCH   5   9
ENDBRANCH   3   4
ENDBRANCH   2   3
BRANCH   2  14
HETATM   14  C7  UNL     1      22.890   0.453  52.727  1.00  0.00    -0.014 A 
HETATM   15  C8  UNL     1      21.541   0.279  52.966  1.00  0.00     0.010 A 
HETATM   16  C9  UNL     1      21.018  -0.450  54.022  1.00  0.00     0.001 A 
HETATM   17  C10 UNL     1      21.917  -1.043  54.897  1.00  0.00     0.001 A 
HETATM   18  C11 UNL     1      23.265  -0.873  54.665  1.00  0.00     0.017 A 
HETATM   19  C12 UNL     1      23.779  -0.145  53.610  1.00  0.00     0.056 A 
BRANCH  19  20
HETATM   20  C13 UNL     1      25.232   0.022  53.382  1.00  0.00     0.418 C 
HETATM   21  F1  UNL     1      25.588  -0.280  52.064  1.00  0.00    -0.166 F 
HETATM   22  F2  UNL     1      25.925  -0.912  54.136  1.00  0.00    -0.166 F 
HETATM   23  F3  UNL     1      25.718   1.246  53.776  1.00  0.00    -0.166 F 
ENDBRANCH  19  20
ENDBRANCH   2  14
TORSDOF 5
ENDMDL
MODEL 6
REMARK VINA RESULT:      -7.4      3.302      5.101
REMARK  5 active torsions:
REMARK  status: ('A' for Active; 'I' for Inactive)
REMARK    1  A    between atoms: C2_2  and  O1_3 
REMARK    2  A    between atoms: C2_2  and  C7_11 
REMARK    3  A    between atoms: O1_3  and  C3_4 
REMARK    4  A    between atoms: C4_5  and  C5_6 
REMARK       I    between atoms: C5_6  and  N1_7 
REMARK    5  A    between atoms: C12_16  and  C13_17 
ROOT
HETATM    1  C1  UNL     1      22.532   1.612  50.504  1.00  0.00     0.045 C 
HETATM    2  C2  UNL     1      23.368   1.485  51.743  1.00  0.00     0.158 C 
ENDROOT
BRANCH   2   3
HETATM    3  O1  UNL     1      23.466   2.772  52.329  1.00  0.00    -0.342 OA
BRANCH   3   4
HETATM    4  C3  UNL     1      23.951   3.886  51.648  1.00  0.00     0.096 A 
HETATM    5  C4  UNL     1      25.135   3.880  51.042  1.00  0.00     0.128 A 
HETATM    6  N2  UNL     1      24.886   5.221  50.650  1.00  0.00    -0.377 N 
HETATM    7  C6  UNL     1      23.610   5.264  51.288  1.00  0.00     0.187 A 
HETATM    8  H7  UNL     1      25.291   6.047  50.122  1.00  0.00     0.160 HD
BRANCH   5   9
HETATM    9  C5  UNL     1      26.372   3.150  50.690  1.00  0.00     0.268 C 
HETATM   10  N1  UNL     1      27.083   2.796  51.870  1.00  0.00    -0.365 N 
HETATM   11  H5  UNL     1      27.483   2.414  52.733  1.00  0.00     0.159 HD
HETATM   12  H6  UNL     1      27.813   2.863  52.613  1.00  0.00     0.159 HD
HETATM   13  O2  UNL     1      26.849   2.823  49.574  1.00  0.00    -0.266 OA
ENDBRANCH   5   9
ENDBRANCH   3   4
ENDBRANCH   2   3
BRANCH   2  14
HETATM   14  C7  UNL     1      22.810   0.536  52.728  1.00  0.00    -0.014 A 
HETATM   15  C8  UNL     1      21.446   0.337  52.803  1.00  0.00     0.010 A 
HETATM   16  C9  UNL     1      20.827  -0.530  53.690  1.00  0.00     0.001 A 
HETATM   17  C10 UNL     1      21.639  -1.242  54.561  1.00  0.00     0.001 A 
HETATM   18  C11 UNL     1      23.002  -1.046  54.491  1.00  0.00     0.017 A 
HETATM   19  C12 UNL     1      23.612  -0.181  53.605  1.00  0.00     0.056 A 
BRANCH  19  20
HETATM   20  C13 UNL     1      25.078   0.011  53.550  1.00  0.00     0.418 C 
HETATM   21  F1  UNL     1      25.575  -0.157  52.254  1.00  0.00    -0.166 F 
HETATM   22  F2  UNL     1      25.700  -0.993  54.276  1.00  0.00    -0.166 F 
HETATM   23  F3  UNL     1      25.505   1.190  54.113  1.00  0.00    -0.166 F 
ENDBRANCH  19  20
ENDBRANCH   2  14
TORSDOF 5
ENDMDL
MODEL 7
REMARK VINA RESULT:      -7.3      3.479      4.439
REMARK  5 active torsions:
REMARK  status: ('A' for Active; 'I' for Inactive)
REMARK    1  A    between atoms: C2_2  and  O1_3 
REMARK    2  A    between atoms: C2_2  and  C7_11 
REMARK    3  A    between atoms: O1_3  and  C3_4 
REMARK    4  A    between atoms: C4_5  and  C5_6 
REMARK       I    between atoms: C5_6  and  N1_7 
REMARK    5  A    between atoms: C12_16  and  C13_17 
ROOT
HETATM    1  C1  UNL     1      24.497   2.573  53.305  1.00  0.00     0.045 C 
HETATM    2  C2  UNL     1      25.082   2.273  51.957  1.00  0.00     0.158 C 
ENDROOT
BRANCH   2   3
HETATM    3  O1  UNL     1      25.680   0.990  52.023  1.00  0.00    -0.342 OA
BRANCH   3   4
HETATM    4  C3  UNL     1      26.085   0.397  53.217  1.00  0.00     0.096 A 
HETATM    5  C4  UNL     1      27.231   0.719  53.809  1.00  0.00     0.128 A 
HETATM    6  N2  UNL     1      26.913  -0.218  54.826  1.00  0.00    -0.377 N 
HETATM    7  C6  UNL     1      25.675  -0.588  54.219  1.00  0.00     0.187 A 
HETATM    8  H7  UNL     1      27.256  -0.645  55.734  1.00  0.00     0.160 HD
BRANCH   5   9
HETATM    9  C5  UNL     1      28.471   1.525  53.811  1.00  0.00     0.268 C 
HETATM   10  N1  UNL     1      29.595   0.693  53.548  1.00  0.00    -0.365 N 
HETATM   11  H5  UNL     1      30.357   0.105  53.197  1.00  0.00     0.159 HD
HETATM   12  H6  UNL     1      30.443   0.123  53.759  1.00  0.00     0.159 HD
HETATM   13  O2  UNL     1      28.658   2.754  53.999  1.00  0.00    -0.266 OA
ENDBRANCH   5   9
ENDBRANCH   3   4
ENDBRANCH   2   3
BRANCH   2  14
HETATM   14  C7  UNL     1      24.082   2.296  50.870  1.00  0.00    -0.014 A 
HETATM   15  C8  UNL     1      22.964   1.489  50.940  1.00  0.00     0.010 A 
HETATM   16  C9  UNL     1      21.971   1.439  49.973  1.00  0.00     0.001 A 
HETATM   17  C10 UNL     1      22.117   2.256  48.862  1.00  0.00     0.001 A 
HETATM   18  C11 UNL     1      23.232   3.062  48.786  1.00  0.00     0.017 A 
HETATM   19  C12 UNL     1      24.218   3.109  49.753  1.00  0.00     0.056 A 
BRANCH  19  20
HETATM   20  C13 UNL     1      25.406   3.985  49.648  1.00  0.00     0.418 C 
HETATM   21  F1  UNL     1      25.542   4.810  50.768  1.00  0.00    -0.166 F 
HETATM   22  F2  UNL     1      25.229   4.874  48.599  1.00  0.00    -0.166 F 
HETATM   23  F3  UNL     1      26.569   3.311  49.365  1.00  0.00    -0.166 F 
ENDBRANCH  19  20
ENDBRANCH   2  14
TORSDOF 5
ENDMDL
MODEL 8
REMARK VINA RESULT:      -7.2      3.871      5.931
REMARK  5 active torsions:
REMARK  status: ('A' for Active; 'I' for Inactive)
REMARK    1  A    between atoms: C2_2  and  O1_3 
REMARK    2  A    between atoms: C2_2  and  C7_11 
REMARK    3  A    between atoms: O1_3  and  C3_4 
REMARK    4  A    between atoms: C4_5  and  C5_6 
REMARK       I    between atoms: C5_6  and  N1_7 
REMARK    5  A    between atoms: C12_16  and  C13_17 
ROOT
HETATM    1  C1  UNL     1      24.136   2.844  50.068  1.00  0.00     0.045 C 
HETATM    2  C2  UNL     1      24.570   2.538  51.470  1.00  0.00     0.158 C 
ENDROOT
BRANCH   2   3
HETATM    3  O1  UNL     1      24.326   3.691  52.257  1.00  0.00    -0.342 OA
BRANCH   3   4
HETATM    4  C3  UNL     1      23.247   4.546  52.045  1.00  0.00     0.096 A 
HETATM    5  C4  UNL     1      23.405   5.761  51.527  1.00  0.00     0.128 A 
HETATM    6  N2  UNL     1      22.000   5.936  51.634  1.00  0.00    -0.377 N 
HETATM    7  C6  UNL     1      21.794   4.637  52.192  1.00  0.00     0.187 A 
HETATM    8  H7  UNL     1      21.207   6.616  51.456  1.00  0.00     0.160 HD
BRANCH   5   9
HETATM    9  C5  UNL     1      24.310   6.798  50.986  1.00  0.00     0.268 C 
HETATM   10  N1  UNL     1      25.536   6.208  50.570  1.00  0.00    -0.365 N 
HETATM   11  H5  UNL     1      26.333   5.737  50.132  1.00  0.00     0.159 HD
HETATM   12  H6  UNL     1      26.541   5.932  50.626  1.00  0.00     0.159 HD
HETATM   13  O2  UNL     1      24.158   8.039  50.851  1.00  0.00    -0.266 OA
ENDBRANCH   5   9
ENDBRANCH   3   4
ENDBRANCH   2   3
BRANCH   2  14
HETATM   14  C7  UNL     1      23.865   1.381  52.059  1.00  0.00    -0.014 A 
HETATM   15  C8  UNL     1      22.572   1.088  51.676  1.00  0.00     0.010 A 
HETATM   16  C9  UNL     1      21.828   0.027  52.168  1.00  0.00     0.001 A 
HETATM   17  C10 UNL     1      22.430  -0.793  53.112  1.00  0.00     0.001 A 
HETATM   18  C11 UNL     1      23.721  -0.505  53.499  1.00  0.00     0.017 A 
HETATM   19  C12 UNL     1      24.457   0.554  53.004  1.00  0.00     0.056 A 
BRANCH  19  20
HETATM   20  C13 UNL     1      25.843   0.841  53.436  1.00  0.00     0.418 C 
HETATM   21  F1  UNL     1      26.739   0.801  52.363  1.00  0.00    -0.166 F 
HETATM   22  F2  UNL     1      26.282  -0.173  54.274  1.00  0.00    -0.166 F 
HETATM   23  F3  UNL     1      25.968   1.999  54.164  1.00  0.00    -0.166 F 
ENDBRANCH  19  20
ENDBRANCH   2  14
TORSDOF 5
ENDMDL
MODEL 9
REMARK VINA RESULT:      -7.2      4.970      7.293
REMARK  5 active torsions:
REMARK  status: ('A' for Active; 'I' for Inactive)
REMARK    1  A    between atoms: C2_2  and  O1_3 
REMARK    2  A    between atoms: C2_2  and  C7_11 
REMARK    3  A    between atoms: O1_3  and  C3_4 
REMARK    4  A    between atoms: C4_5  and  C5_6 
REMARK       I    between atoms: C5_6  and  N1_7 
REMARK    5  A    between atoms: C12_16  and  C13_17 
ROOT
HETATM    1  C1  UNL     1      21.649   2.316  52.328  1.00  0.00     0.045 C 
HETATM    2  C2  UNL     1      21.808   0.877  52.717  1.00  0.00     0.158 C 
ENDROOT
BRANCH   2   3
HETATM    3  O1  UNL     1      21.219   0.088  51.698  1.00  0.00    -0.342 OA
BRANCH   3   4
HETATM    4  C3  UNL     1      20.021   0.421  51.070  1.00  0.00     0.096 A 
HETATM    5  C4  UNL     1      18.846   0.006  51.532  1.00  0.00     0.128 A 
HETATM    6  N2  UNL     1      18.232   0.697  50.456  1.00  0.00    -0.377 N 
HETATM    7  C6  UNL     1      19.476   1.162  49.931  1.00  0.00     0.187 A 
HETATM    8  H7  UNL     1      17.299   0.929  50.008  1.00  0.00     0.160 HD
BRANCH   5   9
HETATM    9  C5  UNL     1      18.082  -0.755  52.544  1.00  0.00     0.268 C 
HETATM   10  N1  UNL     1      18.905  -1.033  53.671  1.00  0.00    -0.365 N 
HETATM   11  H5  UNL     1      19.466  -1.074  54.528  1.00  0.00     0.159 HD
HETATM   12  H6  UNL     1      19.521  -1.593  54.300  1.00  0.00     0.159 HD
HETATM   13  O2  UNL     1      16.892  -1.162  52.549  1.00  0.00    -0.266 OA
ENDBRANCH   5   9
ENDBRANCH   3   4
ENDBRANCH   2   3
BRANCH   2  14
HETATM   14  C7  UNL     1      23.218   0.474  52.899  1.00  0.00    -0.014 A 
HETATM   15  C8  UNL     1      24.203   1.018  52.099  1.00  0.00     0.010 A 
HETATM   16  C9  UNL     1      25.551   0.706  52.193  1.00  0.00     0.001 A 
HETATM   17  C10 UNL     1      25.929  -0.217  53.157  1.00  0.00     0.001 A 
HETATM   18  C11 UNL     1      24.949  -0.764  53.957  1.00  0.00     0.017 A 
HETATM   19  C12 UNL     1      23.608  -0.448  53.860  1.00  0.00     0.056 A 
BRANCH  19  20
HETATM   20  C13 UNL     1      22.576  -1.050  54.733  1.00  0.00     0.418 C 
HETATM   21  F1  UNL     1      23.144  -1.782  55.780  1.00  0.00    -0.166 F 
HETATM   22  F2  UNL     1      21.862  -1.997  54.014  1.00  0.00    -0.166 F 
HETATM   23  F3  UNL     1      21.640  -0.151  55.186  1.00  0.00    -0.166 F 
ENDBRANCH  19  20
ENDBRANCH   2  14
TORSDOF 5
ENDMDL
