MODEL 1
REMARK VINA RESULT:      -7.1      0.000      0.000
REMARK  6 active torsions:
REMARK  status: ('A' for Active; 'I' for Inactive)
REMARK    1  A    between atoms: O1_2  and  C2_3 
REMARK    2  A    between atoms: C2_3  and  C3_4 
REMARK    3  A    between atoms: C5_6  and  N1_7 
REMARK    4  A    between atoms: N1_7  and  C6_8 
REMARK    5  A    between atoms: C10_14  and  O2_15 
REMARK    6  A    between atoms: C12_17  and  O3_18 
ROOT
HETATM    1  C6  UNL     1      25.514   3.108  50.803  1.00  0.00     0.138 A 
HETATM    2  N2  UNL     1      24.346   3.058  50.154  1.00  0.00    -0.224 NA
HETATM    3  C7  UNL     1      23.324   2.241  50.454  1.00  0.00     0.235 A 
HETATM    4  N3  UNL     1      23.435   1.368  51.498  1.00  0.00    -0.241 NA
HETATM    5  C8  UNL     1      24.586   1.340  52.224  1.00  0.00     0.075 A 
HETATM    6  C9  UNL     1      24.701   0.460  53.279  1.00  0.00     0.072 A 
HETATM    7  C10 UNL     1      25.862   0.422  54.022  1.00  0.00     0.103 A 
HETATM    8  C12 UNL     1      26.892   1.276  53.685  1.00  0.00     0.102 A 
HETATM    9  C14 UNL     1      26.721   2.135  52.621  1.00  0.00     0.057 A 
HETATM   10  C15 UNL     1      25.584   2.214  51.847  1.00  0.00     0.041 A 
ENDROOT
BRANCH   1  11
HETATM   11  N1  UNL     1      26.555   3.982  50.451  1.00  0.00    -0.366 N 
HETATM   12  H8  UNL     1      27.274   4.346  51.109  1.00  0.00     0.161 HD
BRANCH  11  13
HETATM   13  C5  UNL     1      26.687   4.444  49.078  1.00  0.00     0.110 A 
HETATM   14  C4  UNL     1      26.181   5.797  48.860  1.00  0.00     0.003 A 
HETATM   15  C3  UNL     1      27.331   6.250  48.476  1.00  0.00    -0.056 A 
HETATM   16  C16 UNL     1      27.992   4.957  48.632  1.00  0.00     0.065 A 
BRANCH  15  17
HETATM   17  C2  UNL     1      27.978   7.530  48.006  1.00  0.00     0.201 C 
BRANCH  17  18
HETATM   18  O1  UNL     1      28.258   8.346  49.103  1.00  0.00    -0.392 OA
HETATM   19  C1  UNL     1      29.593   8.779  48.999  1.00  0.00     0.201 C 
ENDBRANCH  17  18
ENDBRANCH  15  17
ENDBRANCH  11  13
ENDBRANCH   1  11
BRANCH   8  20
HETATM   20  O3  UNL     1      28.052   1.225  54.442  1.00  0.00    -0.353 OA
HETATM   21  C13 UNL     1      29.214   0.545  54.017  1.00  0.00     0.210 C 
ENDBRANCH   8  20
BRANCH   7  22
HETATM   22  O2  UNL     1      26.014  -0.451  55.091  1.00  0.00    -0.353 OA
HETATM   23  C11 UNL     1      24.878  -1.118  55.613  1.00  0.00     0.210 C 
ENDBRANCH   7  22
TORSDOF 6
ENDMDL
MODEL 2
REMARK VINA RESULT:      -7.1      4.156      6.768
REMARK  6 active torsions:
REMARK  status: ('A' for Active; 'I' for Inactive)
REMARK    1  A    between atoms: O1_2  and  C2_3 
REMARK    2  A    between atoms: C2_3  and  C3_4 
REMARK    3  A    between atoms: C5_6  and  N1_7 
REMARK    4  A    between atoms: N1_7  and  C6_8 
REMARK    5  A    between atoms: C10_14  and  O2_15 
REMARK    6  A    between atoms: C12_17  and  O3_18 
ROOT
HETATM    1  C6  UNL     1      23.401  -0.124  53.420  1.00  0.00     0.138 A 
HETATM    2  N2  UNL     1      22.927  -1.181  54.088  1.00  0.00    -0.224 NA
HETATM    3  C7  UNL     1      21.646  -1.362  54.448  1.00  0.00     0.235 A 
HETATM    4  N3  UNL     1      20.710  -0.419  54.132  1.00  0.00    -0.241 NA
HETATM    5  C8  UNL     1      21.092   0.696  53.452  1.00  0.00     0.075 A 
HETATM    6  C9  UNL     1      20.151   1.650  53.131  1.00  0.00     0.072 A 
HETATM    7  C10 UNL     1      20.523   2.784  52.441  1.00  0.00     0.103 A 
HETATM    8  C12 UNL     1      21.849   2.937  52.086  1.00  0.00     0.102 A 
HETATM    9  C14 UNL     1      22.746   1.951  52.434  1.00  0.00     0.057 A 
HETATM   10  C15 UNL     1      22.427   0.800  53.121  1.00  0.00     0.041 A 
ENDROOT
BRANCH   1  11
HETATM   11  N1  UNL     1      24.752   0.020  53.064  1.00  0.00    -0.366 N 
HETATM   12  H8  UNL     1      25.101   0.607  52.280  1.00  0.00     0.161 HD
BRANCH  11  13
HETATM   13  C5  UNL     1      25.783  -0.680  53.816  1.00  0.00     0.110 A 
HETATM   14  C4  UNL     1      27.101  -0.638  53.187  1.00  0.00     0.003 A 
HETATM   15  C3  UNL     1      27.646  -0.027  54.190  1.00  0.00    -0.056 A 
HETATM   16  C16 UNL     1      26.405   0.006  54.959  1.00  0.00     0.065 A 
BRANCH  15  17
HETATM   17  C2  UNL     1      28.981   0.522  54.630  1.00  0.00     0.201 C 
BRANCH  17  18
HETATM   18  O1  UNL     1      28.880   1.899  54.831  1.00  0.00    -0.392 OA
HETATM   19  C1  UNL     1      28.737   2.518  53.575  1.00  0.00     0.201 C 
ENDBRANCH  17  18
ENDBRANCH  15  17
ENDBRANCH  11  13
ENDBRANCH   1  11
BRANCH   8  20
HETATM   20  O3  UNL     1      22.207   4.083  51.394  1.00  0.00    -0.353 OA
HETATM   21  C13 UNL     1      23.029   5.087  51.949  1.00  0.00     0.210 C 
ENDBRANCH   8  20
BRANCH   7  22
HETATM   22  O2  UNL     1      19.603   3.766  52.100  1.00  0.00    -0.353 OA
HETATM   23  C11 UNL     1      18.594   3.475  51.149  1.00  0.00     0.210 C 
ENDBRANCH   7  22
TORSDOF 6
ENDMDL
MODEL 3
REMARK VINA RESULT:      -7.1      4.024      6.506
REMARK  6 active torsions:
REMARK  status: ('A' for Active; 'I' for Inactive)
REMARK    1  A    between atoms: O1_2  and  C2_3 
REMARK    2  A    between atoms: C2_3  and  C3_4 
REMARK    3  A    between atoms: C5_6  and  N1_7 
REMARK    4  A    between atoms: N1_7  and  C6_8 
REMARK    5  A    between atoms: C10_14  and  O2_15 
REMARK    6  A    between atoms: C12_17  and  O3_18 
ROOT
HETATM    1  C6  UNL     1      24.092  -0.242  53.363  1.00  0.00     0.138 A 
HETATM    2  N2  UNL     1      24.532  -0.763  54.513  1.00  0.00    -0.224 NA
HETATM    3  C7  UNL     1      23.757  -1.273  55.483  1.00  0.00     0.235 A 
HETATM    4  N3  UNL     1      22.399  -1.285  55.333  1.00  0.00    -0.241 NA
HETATM    5  C8  UNL     1      21.850  -0.777  54.196  1.00  0.00     0.075 A 
HETATM    6  C9  UNL     1      20.481  -0.787  54.041  1.00  0.00     0.072 A 
HETATM    7  C10 UNL     1      19.911  -0.276  52.894  1.00  0.00     0.103 A 
HETATM    8  C12 UNL     1      20.740   0.240  51.918  1.00  0.00     0.102 A 
HETATM    9  C14 UNL     1      22.101   0.224  52.127  1.00  0.00     0.057 A 
HETATM   10  C15 UNL     1      22.721  -0.274  53.252  1.00  0.00     0.041 A 
ENDROOT
BRANCH   1  11
HETATM   11  N1  UNL     1      24.945   0.280  52.377  1.00  0.00    -0.366 N 
HETATM   12  H8  UNL     1      25.235  -0.222  51.514  1.00  0.00     0.161 HD
BRANCH  11  13
HETATM   13  C5  UNL     1      25.491   1.621  52.521  1.00  0.00     0.110 A 
HETATM   14  C4  UNL     1      26.085   1.877  53.831  1.00  0.00     0.003 A 
HETATM   15  C3  UNL     1      27.259   2.114  53.339  1.00  0.00    -0.056 A 
HETATM   16  C16 UNL     1      26.824   1.899  51.962  1.00  0.00     0.065 A 
BRANCH  15  17
HETATM   17  C2  UNL     1      28.653   2.484  53.785  1.00  0.00     0.201 C 
BRANCH  17  18
HETATM   18  O1  UNL     1      29.118   1.543  54.705  1.00  0.00    -0.392 OA
HETATM   19  C1  UNL     1      29.493   0.385  53.999  1.00  0.00     0.201 C 
ENDBRANCH  17  18
ENDBRANCH  15  17
ENDBRANCH  11  13
ENDBRANCH   1  11
BRANCH   8  20
HETATM   20  O3  UNL     1      20.152   0.750  50.771  1.00  0.00    -0.353 OA
HETATM   21  C13 UNL     1      20.892   1.092  49.619  1.00  0.00     0.210 C 
ENDBRANCH   8  20
BRANCH   7  22
HETATM   22  O2  UNL     1      18.536  -0.270  52.703  1.00  0.00    -0.353 OA
HETATM   23  C11 UNL     1      17.774  -1.399  53.091  1.00  0.00     0.210 C 
ENDBRANCH   7  22
TORSDOF 6
ENDMDL
MODEL 4
REMARK VINA RESULT:      -6.9      3.895      5.860
REMARK  6 active torsions:
REMARK  status: ('A' for Active; 'I' for Inactive)
REMARK    1  A    between atoms: O1_2  and  C2_3 
REMARK    2  A    between atoms: C2_3  and  C3_4 
REMARK    3  A    between atoms: C5_6  and  N1_7 
REMARK    4  A    between atoms: N1_7  and  C6_8 
REMARK    5  A    between atoms: C10_14  and  O2_15 
REMARK    6  A    between atoms: C12_17  and  O3_18 
ROOT
HETATM    1  C6  UNL     1      24.439   2.597  51.343  1.00  0.00     0.138 A 
HETATM    2  N2  UNL     1      24.475   3.064  50.090  1.00  0.00    -0.224 NA
HETATM    3  C7  UNL     1      23.533   2.859  49.157  1.00  0.00     0.235 A 
HETATM    4  N3  UNL     1      22.425   2.119  49.459  1.00  0.00    -0.241 NA
HETATM    5  C8  UNL     1      22.293   1.599  50.710  1.00  0.00     0.075 A 
HETATM    6  C9  UNL     1      21.176   0.852  51.019  1.00  0.00     0.072 A 
HETATM    7  C10 UNL     1      21.029   0.319  52.282  1.00  0.00     0.103 A 
HETATM    8  C12 UNL     1      22.019   0.550  53.216  1.00  0.00     0.102 A 
HETATM    9  C14 UNL     1      23.113   1.304  52.852  1.00  0.00     0.057 A 
HETATM   10  C15 UNL     1      23.308   1.859  51.606  1.00  0.00     0.041 A 
ENDROOT
BRANCH   1  11
HETATM   11  N1  UNL     1      25.452   2.839  52.285  1.00  0.00    -0.366 N 
HETATM   12  H8  UNL     1      25.370   3.488  53.094  1.00  0.00     0.161 HD
BRANCH  11  13
HETATM   13  C5  UNL     1      26.733   2.157  52.171  1.00  0.00     0.110 A 
HETATM   14  C4  UNL     1      27.555   2.242  53.375  1.00  0.00     0.003 A 
HETATM   15  C3  UNL     1      27.580   0.959  53.544  1.00  0.00    -0.056 A 
HETATM   16  C16 UNL     1      26.769   0.698  52.357  1.00  0.00     0.065 A 
BRANCH  15  17
HETATM   17  C2  UNL     1      28.144  -0.079  54.483  1.00  0.00     0.201 C 
BRANCH  17  18
HETATM   18  O1  UNL     1      29.512  -0.229  54.253  1.00  0.00    -0.392 OA
HETATM   19  C1  UNL     1      29.700  -1.365  53.443  1.00  0.00     0.201 C 
ENDBRANCH  17  18
ENDBRANCH  15  17
ENDBRANCH  11  13
ENDBRANCH   1  11
BRANCH   8  20
HETATM   20  O3  UNL     1      21.857   0.007  54.481  1.00  0.00    -0.353 OA
HETATM   21  C13 UNL     1      22.533  -1.156  54.907  1.00  0.00     0.210 C 
ENDBRANCH   8  20
BRANCH   7  22
HETATM   22  O2  UNL     1      19.919  -0.438  52.629  1.00  0.00    -0.353 OA
HETATM   23  C11 UNL     1      18.642  -0.067  52.140  1.00  0.00     0.210 C 
ENDBRANCH   7  22
TORSDOF 6
ENDMDL
MODEL 5
REMARK VINA RESULT:      -6.9      3.322      6.732
REMARK  6 active torsions:
REMARK  status: ('A' for Active; 'I' for Inactive)
REMARK    1  A    between atoms: O1_2  and  C2_3 
REMARK    2  A    between atoms: C2_3  and  C3_4 
REMARK    3  A    between atoms: C5_6  and  N1_7 
REMARK    4  A    between atoms: N1_7  and  C6_8 
REMARK    5  A    between atoms: C10_14  and  O2_15 
REMARK    6  A    between atoms: C12_17  and  O3_18 
ROOT
HETATM    1  C6  UNL     1      24.550   2.554  52.207  1.00  0.00     0.138 A 
HETATM    2  N2  UNL     1      24.933   3.274  51.147  1.00  0.00    -0.224 NA
HETATM    3  C7  UNL     1      26.174   3.305  50.637  1.00  0.00     0.235 A 
HETATM    4  N3  UNL     1      27.165   2.559  51.209  1.00  0.00    -0.241 NA
HETATM    5  C8  UNL     1      26.877   1.790  52.295  1.00  0.00     0.075 A 
HETATM    6  C9  UNL     1      27.874   1.036  52.875  1.00  0.00     0.072 A 
HETATM    7  C10 UNL     1      27.596   0.252  53.975  1.00  0.00     0.103 A 
HETATM    8  C12 UNL     1      26.309   0.244  54.473  1.00  0.00     0.102 A 
HETATM    9  C14 UNL     1      25.353   1.018  53.853  1.00  0.00     0.057 A 
HETATM   10  C15 UNL     1      25.577   1.817  52.753  1.00  0.00     0.041 A 
ENDROOT
BRANCH   1  11
HETATM   11  N1  UNL     1      23.237   2.553  52.705  1.00  0.00    -0.366 N 
HETATM   12  H8  UNL     1      22.930   3.035  53.575  1.00  0.00     0.161 HD
BRANCH  11  13
HETATM   13  C5  UNL     1      22.186   1.843  51.992  1.00  0.00     0.110 A 
HETATM   14  C4  UNL     1      22.131   0.415  52.294  1.00  0.00     0.003 A 
HETATM   15  C3  UNL     1      20.925   0.480  52.760  1.00  0.00    -0.056 A 
HETATM   16  C16 UNL     1      20.812   1.916  52.513  1.00  0.00     0.065 A 
BRANCH  15  17
HETATM   17  C2  UNL     1      19.860  -0.407  53.358  1.00  0.00     0.201 C 
BRANCH  17  18
HETATM   18  O1  UNL     1      18.791  -0.523  52.469  1.00  0.00    -0.392 OA
HETATM   19  C1  UNL     1      17.787  -1.292  53.087  1.00  0.00     0.201 C 
ENDBRANCH  17  18
ENDBRANCH  15  17
ENDBRANCH  11  13
ENDBRANCH   1  11
BRANCH   8  20
HETATM   20  O3  UNL     1      26.046  -0.549  55.579  1.00  0.00    -0.353 OA
HETATM   21  C13 UNL     1      24.832  -1.249  55.747  1.00  0.00     0.210 C 
ENDBRANCH   8  20
BRANCH   7  22
HETATM   22  O2  UNL     1      28.575  -0.521  54.585  1.00  0.00    -0.353 OA
HETATM   23  C11 UNL     1      29.696  -0.947  53.832  1.00  0.00     0.210 C 
ENDBRANCH   7  22
TORSDOF 6
ENDMDL
MODEL 6
REMARK VINA RESULT:      -6.8      3.567      6.759
REMARK  6 active torsions:
REMARK  status: ('A' for Active; 'I' for Inactive)
REMARK    1  A    between atoms: O1_2  and  C2_3 
REMARK    2  A    between atoms: C2_3  and  C3_4 
REMARK    3  A    between atoms: C5_6  and  N1_7 
REMARK    4  A    between atoms: N1_7  and  C6_8 
REMARK    5  A    between atoms: C10_14  and  O2_15 
REMARK    6  A    between atoms: C12_17  and  O3_18 
ROOT
HETATM    1  C6  UNL     1      23.085  -0.521  53.482  1.00  0.00     0.138 A 
HETATM    2  N2  UNL     1      22.718  -1.180  54.586  1.00  0.00    -0.224 NA
HETATM    3  C7  UNL     1      23.528  -1.494  55.609  1.00  0.00     0.235 A 
HETATM    4  N3  UNL     1      24.845  -1.134  55.570  1.00  0.00    -0.241 NA
HETATM    5  C8  UNL     1      25.319  -0.458  54.488  1.00  0.00     0.075 A 
HETATM    6  C9  UNL     1      26.647  -0.093  54.445  1.00  0.00     0.072 A 
HETATM    7  C10 UNL     1      27.141   0.592  53.355  1.00  0.00     0.103 A 
HETATM    8  C12 UNL     1      26.279   0.898  52.321  1.00  0.00     0.102 A 
HETATM    9  C14 UNL     1      24.961   0.508  52.418  1.00  0.00     0.057 A 
HETATM   10  C15 UNL     1      24.418  -0.177  53.483  1.00  0.00     0.041 A 
ENDROOT
BRANCH   1  11
HETATM   11  N1  UNL     1      22.200  -0.216  52.435  1.00  0.00    -0.366 N 
HETATM   12  H8  UNL     1      22.405  -0.348  51.425  1.00  0.00     0.161 HD
BRANCH  11  13
HETATM   13  C5  UNL     1      20.883   0.329  52.730  1.00  0.00     0.110 A 
HETATM   14  C4  UNL     1      20.882   1.768  52.977  1.00  0.00     0.003 A 
HETATM   15  C3  UNL     1      20.088   2.017  51.985  1.00  0.00    -0.056 A 
HETATM   16  C16 UNL     1      19.974   0.610  51.608  1.00  0.00     0.065 A 
BRANCH  15  17
HETATM   17  C2  UNL     1      19.412   3.180  51.301  1.00  0.00     0.201 C 
BRANCH  17  18
HETATM   18  O1  UNL     1      18.353   3.637  52.087  1.00  0.00    -0.392 OA
HETATM   19  C1  UNL     1      17.154   3.144  51.538  1.00  0.00     0.201 C 
ENDBRANCH  17  18
ENDBRANCH  15  17
ENDBRANCH  11  13
ENDBRANCH   1  11
BRANCH   8  20
HETATM   20  O3  UNL     1      26.790   1.587  51.232  1.00  0.00    -0.353 OA
HETATM   21  C13 UNL     1      26.404   2.906  50.911  1.00  0.00     0.210 C 
ENDBRANCH   8  20
BRANCH   7  22
HETATM   22  O2  UNL     1      28.472   0.976  53.278  1.00  0.00    -0.353 OA
HETATM   23  C11 UNL     1      29.485   0.059  53.650  1.00  0.00     0.210 C 
ENDBRANCH   7  22
TORSDOF 6
ENDMDL
MODEL 7
REMARK VINA RESULT:      -6.6      4.012      5.957
REMARK  6 active torsions:
REMARK  status: ('A' for Active; 'I' for Inactive)
REMARK    1  A    between atoms: O1_2  and  C2_3 
REMARK    2  A    between atoms: C2_3  and  C3_4 
REMARK    3  A    between atoms: C5_6  and  N1_7 
REMARK    4  A    between atoms: N1_7  and  C6_8 
REMARK    5  A    between atoms: C10_14  and  O2_15 
REMARK    6  A    between atoms: C12_17  and  O3_18 
ROOT
HETATM    1  C6  UNL     1      24.552  -0.415  53.649  1.00  0.00     0.138 A 
HETATM    2  N2  UNL     1      25.058  -0.886  54.793  1.00  0.00    -0.224 NA
HETATM    3  C7  UNL     1      24.342  -1.382  55.814  1.00  0.00     0.235 A 
HETATM    4  N3  UNL     1      22.980  -1.431  55.729  1.00  0.00    -0.241 NA
HETATM    5  C8  UNL     1      22.366  -0.976  54.603  1.00  0.00     0.075 A 
HETATM    6  C9  UNL     1      20.991  -1.025  54.513  1.00  0.00     0.072 A 
HETATM    7  C10 UNL     1      20.356  -0.567  53.378  1.00  0.00     0.103 A 
HETATM    8  C12 UNL     1      21.125  -0.064  52.348  1.00  0.00     0.102 A 
HETATM    9  C14 UNL     1      22.495  -0.040  52.493  1.00  0.00     0.057 A 
HETATM   10  C15 UNL     1      23.178  -0.484  53.604  1.00  0.00     0.041 A 
ENDROOT
BRANCH   1  11
HETATM   11  N1  UNL     1      25.344   0.094  52.607  1.00  0.00    -0.366 N 
HETATM   12  H8  UNL     1      25.629  -0.439  51.760  1.00  0.00     0.161 HD
BRANCH  11  13
HETATM   13  C5  UNL     1      25.830   1.465  52.663  1.00  0.00     0.110 A 
HETATM   14  C4  UNL     1      25.900   2.120  51.360  1.00  0.00     0.003 A 
HETATM   15  C3  UNL     1      25.065   3.050  51.695  1.00  0.00    -0.056 A 
HETATM   16  C16 UNL     1      24.888   2.527  53.048  1.00  0.00     0.065 A 
BRANCH  15  17
HETATM   17  C2  UNL     1      24.398   4.276  51.120  1.00  0.00     0.201 C 
BRANCH  17  18
HETATM   18  O1  UNL     1      23.281   3.897  50.375  1.00  0.00    -0.392 OA
HETATM   19  C1  UNL     1      23.568   4.109  49.013  1.00  0.00     0.201 C 
ENDBRANCH  17  18
ENDBRANCH  15  17
ENDBRANCH  11  13
ENDBRANCH   1  11
BRANCH   8  20
HETATM   20  O3  UNL     1      20.472   0.393  51.214  1.00  0.00    -0.353 OA
HETATM   21  C13 UNL     1      21.147   1.008  50.137  1.00  0.00     0.210 C 
ENDBRANCH   8  20
BRANCH   7  22
HETATM   22  O2  UNL     1      18.974  -0.601  53.252  1.00  0.00    -0.353 OA
HETATM   23  C11 UNL     1      18.279  -1.805  53.523  1.00  0.00     0.210 C 
ENDBRANCH   7  22
TORSDOF 6
ENDMDL
MODEL 8
REMARK VINA RESULT:      -6.6      2.565      3.689
REMARK  6 active torsions:
REMARK  status: ('A' for Active; 'I' for Inactive)
REMARK    1  A    between atoms: O1_2  and  C2_3 
REMARK    2  A    between atoms: C2_3  and  C3_4 
REMARK    3  A    between atoms: C5_6  and  N1_7 
REMARK    4  A    between atoms: N1_7  and  C6_8 
REMARK    5  A    between atoms: C10_14  and  O2_15 
REMARK    6  A    between atoms: C12_17  and  O3_18 
ROOT
HETATM    1  C6  UNL     1      26.121   2.078  51.970  1.00  0.00     0.138 A 
HETATM    2  N2  UNL     1      27.185   1.289  52.155  1.00  0.00    -0.224 NA
HETATM    3  C7  UNL     1      27.154   0.051  52.671  1.00  0.00     0.235 A 
HETATM    4  N3  UNL     1      25.963  -0.497  53.056  1.00  0.00    -0.241 NA
HETATM    5  C8  UNL     1      24.819   0.226  52.908  1.00  0.00     0.075 A 
HETATM    6  C9  UNL     1      23.616  -0.324  53.295  1.00  0.00     0.072 A 
HETATM    7  C10 UNL     1      22.449   0.397  53.150  1.00  0.00     0.103 A 
HETATM    8  C12 UNL     1      22.519   1.668  52.616  1.00  0.00     0.102 A 
HETATM    9  C14 UNL     1      23.749   2.166  52.246  1.00  0.00     0.057 A 
HETATM   10  C15 UNL     1      24.943   1.489  52.369  1.00  0.00     0.041 A 
ENDROOT
BRANCH   1  11
HETATM   11  N1  UNL     1      26.204   3.370  51.424  1.00  0.00    -0.366 N 
HETATM   12  H8  UNL     1      26.412   4.232  51.967  1.00  0.00     0.161 HD
BRANCH  11  13
HETATM   13  C5  UNL     1      25.991   3.575  49.999  1.00  0.00     0.110 A 
HETATM   14  C4  UNL     1      25.096   4.686  49.691  1.00  0.00     0.003 A 
HETATM   15  C3  UNL     1      25.999   5.333  49.026  1.00  0.00    -0.056 A 
HETATM   16  C16 UNL     1      27.016   4.305  49.236  1.00  0.00     0.065 A 
BRANCH  15  17
HETATM   17  C2  UNL     1      26.178   6.618  48.257  1.00  0.00     0.201 C 
BRANCH  17  18
HETATM   18  O1  UNL     1      25.703   7.690  49.014  1.00  0.00    -0.392 OA
HETATM   19  C1  UNL     1      26.789   8.249  49.713  1.00  0.00     0.201 C 
ENDBRANCH  17  18
ENDBRANCH  15  17
ENDBRANCH  11  13
ENDBRANCH   1  11
BRANCH   8  20
HETATM   20  O3  UNL     1      21.337   2.379  52.477  1.00  0.00    -0.353 OA
HETATM   21  C13 UNL     1      21.305   3.769  52.233  1.00  0.00     0.210 C 
ENDBRANCH   8  20
BRANCH   7  22
HETATM   22  O2  UNL     1      21.219  -0.124  53.528  1.00  0.00    -0.353 OA
HETATM   23  C11 UNL     1      21.173  -1.233  54.408  1.00  0.00     0.210 C 
ENDBRANCH   7  22
TORSDOF 6
ENDMDL
MODEL 9
REMARK VINA RESULT:      -6.4      5.040      8.757
REMARK  6 active torsions:
REMARK  status: ('A' for Active; 'I' for Inactive)
REMARK    1  A    between atoms: O1_2  and  C2_3 
REMARK    2  A    between atoms: C2_3  and  C3_4 
REMARK    3  A    between atoms: C5_6  and  N1_7 
REMARK    4  A    between atoms: N1_7  and  C6_8 
REMARK    5  A    between atoms: C10_14  and  O2_15 
REMARK    6  A    between atoms: C12_17  and  O3_18 
ROOT
HETATM    1  C6  UNL     1      21.178   0.070  53.497  1.00  0.00     0.138 A 
HETATM    2  N2  UNL     1      21.228  -0.784  54.524  1.00  0.00    -0.224 NA
HETATM    3  C7  UNL     1      22.351  -1.279  55.069  1.00  0.00     0.235 A 
HETATM    4  N3  UNL     1      23.568  -0.912  54.571  1.00  0.00    -0.241 NA
HETATM    5  C8  UNL     1      23.625  -0.045  53.523  1.00  0.00     0.075 A 
HETATM    6  C9  UNL     1      24.853   0.328  53.018  1.00  0.00     0.072 A 
HETATM    7  C10 UNL     1      24.925   1.206  51.958  1.00  0.00     0.103 A 
HETATM    8  C12 UNL     1      23.750   1.694  51.422  1.00  0.00     0.102 A 
HETATM    9  C14 UNL     1      22.553   1.287  51.967  1.00  0.00     0.057 A 
HETATM   10  C15 UNL     1      22.424   0.414  53.026  1.00  0.00     0.041 A 
ENDROOT
BRANCH   1  11
HETATM   11  N1  UNL     1      19.976   0.561  52.960  1.00  0.00    -0.366 N 
HETATM   12  H8  UNL     1      19.622   1.531  53.083  1.00  0.00     0.161 HD
BRANCH  11  13
HETATM   13  C5  UNL     1      19.124  -0.310  52.163  1.00  0.00     0.110 A 
HETATM   14  C4  UNL     1      18.121  -1.028  52.945  1.00  0.00     0.003 A 
HETATM   15  C3  UNL     1      17.129  -0.494  52.308  1.00  0.00    -0.056 A 
HETATM   16  C16 UNL     1      17.996   0.291  51.433  1.00  0.00     0.065 A 
BRANCH  15  17
HETATM   17  C2  UNL     1      15.620  -0.513  52.282  1.00  0.00     0.201 C 
BRANCH  17  18
HETATM   18  O1  UNL     1      15.122   0.275  53.320  1.00  0.00    -0.392 OA
HETATM   19  C1  UNL     1      14.633   1.474  52.767  1.00  0.00     0.201 C 
ENDBRANCH  17  18
ENDBRANCH  15  17
ENDBRANCH  11  13
ENDBRANCH   1  11
BRANCH   8  20
HETATM   20  O3  UNL     1      23.840   2.575  50.356  1.00  0.00    -0.353 OA
HETATM   21  C13 UNL     1      22.868   3.566  50.098  1.00  0.00     0.210 C 
ENDBRANCH   8  20
BRANCH   7  22
HETATM   22  O2  UNL     1      26.143   1.603  51.423  1.00  0.00    -0.353 OA
HETATM   23  C11 UNL     1      27.162   2.076  52.285  1.00  0.00     0.210 C 
ENDBRANCH   7  22
TORSDOF 6
ENDMDL
