MODEL 1
REMARK VINA RESULT:      -9.4      0.000      0.000
REMARK  5 active torsions:
REMARK  status: ('A' for Active; 'I' for Inactive)
REMARK    1  A    between atoms: N2_5  and  C4_6 
REMARK    2  A    between atoms: C7_9  and  N3_10 
REMARK       I    between atoms: N3_10  and  C8_11 
REMARK    3  A    between atoms: C8_11  and  C9_13 
REMARK    4  A    between atoms: C10_14  and  N4_15 
REMARK    5  A    between atoms: N4_15  and  C11_16 
ROOT
HETATM    1  N3  UNL     1      24.406   2.538  50.721  1.00  0.00    -0.323 N 
HETATM    2  C8  UNL     1      24.401   2.076  52.063  1.00  0.00     0.262 C 
HETATM    3  O1  UNL     1      25.153   2.625  52.907  1.00  0.00    -0.267 OA
HETATM    4  H10 UNL     1      23.802   2.119  49.981  1.00  0.00     0.169 HD
ENDROOT
BRANCH   2   5
HETATM    5  C9  UNL     1      23.548   0.986  52.481  1.00  0.00     0.108 A 
HETATM    6  C10 UNL     1      23.822   0.046  53.372  1.00  0.00     0.052 A 
HETATM    7  C17 UNL     1      22.705  -0.887  53.527  1.00  0.00     0.034 A 
HETATM    8  C18 UNL     1      21.695  -0.539  52.720  1.00  0.00     0.058 A 
HETATM    9  C19 UNL     1      22.201   0.656  52.037  1.00  0.00     0.190 A 
HETATM   10  O2  UNL     1      21.519   1.279  51.183  1.00  0.00    -0.287 OA
BRANCH   6  11
HETATM   11  N4  UNL     1      25.009  -0.118  54.126  1.00  0.00    -0.355 N 
HETATM   12  H11 UNL     1      24.942  -0.002  55.164  1.00  0.00     0.166 HD
BRANCH  11  13
HETATM   13  C11 UNL     1      26.377  -0.414  53.915  1.00  0.00     0.032 A 
HETATM   14  C12 UNL     1      27.192   0.271  54.821  1.00  0.00     0.029 A 
HETATM   15  C13 UNL     1      28.577   0.126  54.791  1.00  0.00     0.002 A 
HETATM   16  C14 UNL     1      29.114  -0.717  53.840  1.00  0.00     0.000 A 
HETATM   17  C15 UNL     1      28.325  -1.400  52.940  1.00  0.00     0.002 A 
HETATM   18  C16 UNL     1      26.950  -1.250  52.975  1.00  0.00     0.029 A 
ENDBRANCH  11  13
ENDBRANCH   6  11
ENDBRANCH   2   5
BRANCH   1  19
HETATM   19  C7  UNL     1      25.192   3.596  50.182  1.00  0.00     0.035 A 
HETATM   20  C6  UNL     1      26.398   3.277  49.577  1.00  0.00     0.032 A 
HETATM   21  C5  UNL     1      27.171   4.288  49.050  1.00  0.00     0.031 A 
HETATM   22  C4  UNL     1      26.838   5.613  49.078  1.00  0.00     0.030 A 
HETATM   23  C21 UNL     1      25.634   5.877  49.689  1.00  0.00     0.031 A 
HETATM   24  C20 UNL     1      24.820   4.910  50.232  1.00  0.00     0.032 A 
BRANCH  22  25
HETATM   25  N2  UNL     1      27.637   6.658  48.535  1.00  0.00    -0.378 N 
HETATM   26  C3  UNL     1      27.316   8.046  48.579  1.00  0.00     0.153 C 
HETATM   27  C2  UNL     1      28.447   8.945  49.019  1.00  0.00     0.291 C 
HETATM   28  N1  UNL     1      29.729   8.479  48.597  1.00  0.00     0.087 N 
HETATM   29  C1  UNL     1      30.494   9.613  48.113  1.00  0.00     0.310 C 
HETATM   30  C23 UNL     1      29.637   7.521  47.499  1.00  0.00     0.291 C 
HETATM   31  C22 UNL     1      28.878   6.295  47.882  1.00  0.00     0.153 C 
ENDBRANCH  22  25
ENDBRANCH   1  19
TORSDOF 5
ENDMDL
MODEL 2
REMARK VINA RESULT:      -8.9      1.229      1.831
REMARK  5 active torsions:
REMARK  status: ('A' for Active; 'I' for Inactive)
REMARK    1  A    between atoms: N2_5  and  C4_6 
REMARK    2  A    between atoms: C7_9  and  N3_10 
REMARK       I    between atoms: N3_10  and  C8_11 
REMARK    3  A    between atoms: C8_11  and  C9_13 
REMARK    4  A    between atoms: C10_14  and  N4_15 
REMARK    5  A    between atoms: N4_15  and  C11_16 
ROOT
HETATM    1  N3  UNL     1      24.330   2.441  52.132  1.00  0.00    -0.323 N 
HETATM    2  C8  UNL     1      23.304   1.509  51.829  1.00  0.00     0.262 C 
HETATM    3  O1  UNL     1      22.883   1.417  50.648  1.00  0.00    -0.267 OA
HETATM    4  H10 UNL     1      24.717   2.557  53.094  1.00  0.00     0.169 HD
ENDROOT
BRANCH   2   5
HETATM    5  C9  UNL     1      22.732   0.659  52.849  1.00  0.00     0.108 A 
HETATM    6  C10 UNL     1      23.304  -0.370  53.453  1.00  0.00     0.052 A 
HETATM    7  C17 UNL     1      22.405  -0.984  54.433  1.00  0.00     0.034 A 
HETATM    8  C18 UNL     1      21.235  -0.335  54.458  1.00  0.00     0.058 A 
HETATM    9  C19 UNL     1      21.410   0.722  53.457  1.00  0.00     0.190 A 
HETATM   10  O2  UNL     1      20.502   1.553  53.194  1.00  0.00    -0.287 OA
BRANCH   6  11
HETATM   11  N4  UNL     1      24.606  -0.886  53.247  1.00  0.00    -0.355 N 
HETATM   12  H11 UNL     1      24.701  -1.728  52.634  1.00  0.00     0.166 HD
BRANCH  11  13
HETATM   13  C11 UNL     1      25.940  -0.608  53.634  1.00  0.00     0.032 A 
HETATM   14  C12 UNL     1      26.855  -1.308  52.844  1.00  0.00     0.029 A 
HETATM   15  C13 UNL     1      28.226  -1.182  53.053  1.00  0.00     0.002 A 
HETATM   16  C14 UNL     1      28.647  -0.344  54.065  1.00  0.00     0.000 A 
HETATM   17  C15 UNL     1      27.758   0.353  54.853  1.00  0.00     0.002 A 
HETATM   18  C16 UNL     1      26.397   0.223  54.640  1.00  0.00     0.029 A 
ENDBRANCH  11  13
ENDBRANCH   6  11
ENDBRANCH   2   5
BRANCH   1  19
HETATM   19  C7  UNL     1      24.975   3.331  51.226  1.00  0.00     0.035 A 
HETATM   20  C6  UNL     1      24.433   4.594  51.046  1.00  0.00     0.032 A 
HETATM   21  C5  UNL     1      25.043   5.467  50.173  1.00  0.00     0.031 A 
HETATM   22  C4  UNL     1      26.168   5.181  49.452  1.00  0.00     0.030 A 
HETATM   23  C21 UNL     1      26.667   3.916  49.665  1.00  0.00     0.031 A 
HETATM   24  C20 UNL     1      26.100   3.003  50.524  1.00  0.00     0.032 A 
BRANCH  22  25
HETATM   25  N2  UNL     1      26.799   6.082  48.550  1.00  0.00    -0.378 N 
HETATM   26  C3  UNL     1      26.159   7.176  47.897  1.00  0.00     0.153 C 
HETATM   27  C2  UNL     1      26.916   8.481  47.954  1.00  0.00     0.291 C 
HETATM   28  N1  UNL     1      28.334   8.308  47.922  1.00  0.00     0.087 N 
HETATM   29  C1  UNL     1      28.899   9.299  47.026  1.00  0.00     0.310 C 
HETATM   30  C23 UNL     1      28.720   6.995  47.411  1.00  0.00     0.291 C 
HETATM   31  C22 UNL     1      28.205   5.884  48.263  1.00  0.00     0.153 C 
ENDBRANCH  22  25
ENDBRANCH   1  19
TORSDOF 5
ENDMDL
MODEL 3
REMARK VINA RESULT:      -8.7      1.176      1.783
REMARK  5 active torsions:
REMARK  status: ('A' for Active; 'I' for Inactive)
REMARK    1  A    between atoms: N2_5  and  C4_6 
REMARK    2  A    between atoms: C7_9  and  N3_10 
REMARK       I    between atoms: N3_10  and  C8_11 
REMARK    3  A    between atoms: C8_11  and  C9_13 
REMARK    4  A    between atoms: C10_14  and  N4_15 
REMARK    5  A    between atoms: N4_15  and  C11_16 
ROOT
HETATM    1  N3  UNL     1      24.608   3.132  49.696  1.00  0.00    -0.323 N 
HETATM    2  C8  UNL     1      24.183   2.870  51.024  1.00  0.00     0.262 C 
HETATM    3  O1  UNL     1      24.616   3.586  51.963  1.00  0.00    -0.267 OA
HETATM    4  H10 UNL     1      24.279   2.570  48.881  1.00  0.00     0.169 HD
ENDROOT
BRANCH   2   5
HETATM    5  C9  UNL     1      23.260   1.799  51.323  1.00  0.00     0.108 A 
HETATM    6  C10 UNL     1      23.303   0.961  52.347  1.00  0.00     0.052 A 
HETATM    7  C17 UNL     1      22.191   0.010  52.309  1.00  0.00     0.034 A 
HETATM    8  C18 UNL     1      21.419   0.242  51.240  1.00  0.00     0.058 A 
HETATM    9  C19 UNL     1      22.075   1.380  50.587  1.00  0.00     0.190 A 
HETATM   10  O2  UNL     1      21.629   1.892  49.528  1.00  0.00    -0.287 OA
BRANCH   6  11
HETATM   11  N4  UNL     1      24.258   0.913  53.391  1.00  0.00    -0.355 N 
HETATM   12  H11 UNL     1      23.982   1.313  54.318  1.00  0.00     0.166 HD
BRANCH  11  13
HETATM   13  C11 UNL     1      25.581   0.459  53.610  1.00  0.00     0.032 A 
HETATM   14  C12 UNL     1      26.015  -0.365  52.568  1.00  0.00     0.029 A 
HETATM   15  C13 UNL     1      27.291  -0.924  52.580  1.00  0.00     0.002 A 
HETATM   16  C14 UNL     1      28.108  -0.635  53.654  1.00  0.00     0.000 A 
HETATM   17  C15 UNL     1      27.696   0.176  54.688  1.00  0.00     0.002 A 
HETATM   18  C16 UNL     1      26.427   0.727  54.670  1.00  0.00     0.029 A 
ENDBRANCH  11  13
ENDBRANCH   6  11
ENDBRANCH   2   5
BRANCH   1  19
HETATM   19  C7  UNL     1      25.507   4.150  49.268  1.00  0.00     0.035 A 
HETATM   20  C6  UNL     1      24.992   5.404  48.979  1.00  0.00     0.032 A 
HETATM   21  C5  UNL     1      25.848   6.401  48.564  1.00  0.00     0.031 A 
HETATM   22  C4  UNL     1      27.197   6.249  48.410  1.00  0.00     0.030 A 
HETATM   23  C21 UNL     1      27.659   4.987  48.709  1.00  0.00     0.031 A 
HETATM   24  C20 UNL     1      26.852   3.954  49.127  1.00  0.00     0.032 A 
BRANCH  22  25
HETATM   25  N2  UNL     1      28.081   7.278  47.981  1.00  0.00    -0.378 N 
HETATM   26  C3  UNL     1      27.719   8.383  47.157  1.00  0.00     0.153 C 
HETATM   27  C2  UNL     1      28.206   9.726  47.646  1.00  0.00     0.291 C 
HETATM   28  N1  UNL     1      29.472   9.657  48.303  1.00  0.00     0.087 N 
HETATM   29  C1  UNL     1      30.286  10.770  47.852  1.00  0.00     0.310 C 
HETATM   30  C23 UNL     1      30.199   8.433  47.979  1.00  0.00     0.291 C 
HETATM   31  C22 UNL     1      29.462   7.208  48.410  1.00  0.00     0.153 C 
ENDBRANCH  22  25
ENDBRANCH   1  19
TORSDOF 5
ENDMDL
MODEL 4
REMARK VINA RESULT:      -8.6      1.190      1.601
REMARK  5 active torsions:
REMARK  status: ('A' for Active; 'I' for Inactive)
REMARK    1  A    between atoms: N2_5  and  C4_6 
REMARK    2  A    between atoms: C7_9  and  N3_10 
REMARK       I    between atoms: N3_10  and  C8_11 
REMARK    3  A    between atoms: C8_11  and  C9_13 
REMARK    4  A    between atoms: C10_14  and  N4_15 
REMARK    5  A    between atoms: N4_15  and  C11_16 
ROOT
HETATM    1  N3  UNL     1      24.219   3.340  50.943  1.00  0.00    -0.323 N 
HETATM    2  C8  UNL     1      24.771   2.378  51.829  1.00  0.00     0.262 C 
HETATM    3  O1  UNL     1      25.966   2.496  52.201  1.00  0.00    -0.267 OA
HETATM    4  H10 UNL     1      23.234   3.291  50.604  1.00  0.00     0.169 HD
ENDROOT
BRANCH   2   5
HETATM    5  C9  UNL     1      23.987   1.265  52.314  1.00  0.00     0.108 A 
HETATM    6  C10 UNL     1      24.367   0.322  53.162  1.00  0.00     0.052 A 
HETATM    7  C17 UNL     1      23.291  -0.639  53.413  1.00  0.00     0.034 A 
HETATM    8  C18 UNL     1      22.200  -0.306  52.712  1.00  0.00     0.058 A 
HETATM    9  C19 UNL     1      22.611   0.907  51.998  1.00  0.00     0.190 A 
HETATM   10  O2  UNL     1      21.836   1.523  51.222  1.00  0.00    -0.287 OA
BRANCH   6  11
HETATM   11  N4  UNL     1      25.624   0.179  53.796  1.00  0.00    -0.355 N 
HETATM   12  H11 UNL     1      25.780   0.704  54.687  1.00  0.00     0.166 HD
BRANCH  11  13
HETATM   13  C11 UNL     1      26.849  -0.505  53.600  1.00  0.00     0.032 A 
HETATM   14  C12 UNL     1      27.911   0.170  54.207  1.00  0.00     0.029 A 
HETATM   15  C13 UNL     1      29.210  -0.328  54.137  1.00  0.00     0.002 A 
HETATM   16  C14 UNL     1      29.410  -1.508  53.449  1.00  0.00     0.000 A 
HETATM   17  C15 UNL     1      28.374  -2.185  52.846  1.00  0.00     0.002 A 
HETATM   18  C16 UNL     1      27.086  -1.684  52.919  1.00  0.00     0.029 A 
ENDBRANCH  11  13
ENDBRANCH   6  11
ENDBRANCH   2   5
BRANCH   1  19
HETATM   19  C7  UNL     1      24.879   4.478  50.394  1.00  0.00     0.035 A 
HETATM   20  C6  UNL     1      24.540   5.732  50.879  1.00  0.00     0.032 A 
HETATM   21  C5  UNL     1      25.168   6.842  50.359  1.00  0.00     0.031 A 
HETATM   22  C4  UNL     1      26.120   6.807  49.380  1.00  0.00     0.030 A 
HETATM   23  C21 UNL     1      26.421   5.540  48.933  1.00  0.00     0.031 A 
HETATM   24  C20 UNL     1      25.827   4.396  49.414  1.00  0.00     0.032 A 
BRANCH  22  25
HETATM   25  N2  UNL     1      26.769   7.954  48.843  1.00  0.00    -0.378 N 
HETATM   26  C3  UNL     1      26.111   9.054  48.220  1.00  0.00     0.153 C 
HETATM   27  C2  UNL     1      26.567  10.414  48.690  1.00  0.00     0.291 C 
HETATM   28  N1  UNL     1      27.955  10.456  49.025  1.00  0.00     0.087 N 
HETATM   29  C1  UNL     1      28.521  11.679  48.490  1.00  0.00     0.310 C 
HETATM   30  C23 UNL     1      28.699   9.344  48.441  1.00  0.00     0.291 C 
HETATM   31  C22 UNL     1      28.213   8.020  48.929  1.00  0.00     0.153 C 
ENDBRANCH  22  25
ENDBRANCH   1  19
TORSDOF 5
ENDMDL
MODEL 5
REMARK VINA RESULT:      -8.2      4.867     10.751
REMARK  5 active torsions:
REMARK  status: ('A' for Active; 'I' for Inactive)
REMARK    1  A    between atoms: N2_5  and  C4_6 
REMARK    2  A    between atoms: C7_9  and  N3_10 
REMARK       I    between atoms: N3_10  and  C8_11 
REMARK    3  A    between atoms: C8_11  and  C9_13 
REMARK    4  A    between atoms: C10_14  and  N4_15 
REMARK    5  A    between atoms: N4_15  and  C11_16 
ROOT
HETATM    1  N3  UNL     1      20.303   0.859  52.768  1.00  0.00    -0.323 N 
HETATM    2  C8  UNL     1      21.695   0.616  52.638  1.00  0.00     0.262 C 
HETATM    3  O1  UNL     1      22.107  -0.566  52.524  1.00  0.00    -0.267 OA
HETATM    4  H10 UNL     1      19.908   1.819  52.865  1.00  0.00     0.169 HD
ENDROOT
BRANCH   2   5
HETATM    5  C9  UNL     1      22.652   1.700  52.633  1.00  0.00     0.108 A 
HETATM    6  C10 UNL     1      23.925   1.652  52.991  1.00  0.00     0.052 A 
HETATM    7  C17 UNL     1      24.572   2.958  52.847  1.00  0.00     0.034 A 
HETATM    8  C18 UNL     1      23.697   3.860  52.387  1.00  0.00     0.058 A 
HETATM    9  C19 UNL     1      22.458   3.089  52.238  1.00  0.00     0.190 A 
HETATM   10  O2  UNL     1      21.392   3.609  51.820  1.00  0.00    -0.287 OA
BRANCH   6  11
HETATM   11  N4  UNL     1      24.653   0.534  53.464  1.00  0.00    -0.355 N 
HETATM   12  H11 UNL     1      24.107  -0.292  53.801  1.00  0.00     0.166 HD
BRANCH  11  13
HETATM   13  C11 UNL     1      26.000   0.134  53.645  1.00  0.00     0.032 A 
HETATM   14  C12 UNL     1      26.360  -0.864  52.735  1.00  0.00     0.029 A 
HETATM   15  C13 UNL     1      27.643  -1.406  52.737  1.00  0.00     0.002 A 
HETATM   16  C14 UNL     1      28.543  -0.923  53.665  1.00  0.00     0.000 A 
HETATM   17  C15 UNL     1      28.204   0.060  54.568  1.00  0.00     0.002 A 
HETATM   18  C16 UNL     1      26.927   0.593  54.561  1.00  0.00     0.029 A 
ENDBRANCH  11  13
ENDBRANCH   6  11
ENDBRANCH   2   5
BRANCH   1  19
HETATM   19  C7  UNL     1      19.262  -0.113  52.788  1.00  0.00     0.035 A 
HETATM   20  C6  UNL     1      18.212   0.029  51.894  1.00  0.00     0.032 A 
HETATM   21  C5  UNL     1      17.197  -0.901  51.900  1.00  0.00     0.031 A 
HETATM   22  C4  UNL     1      17.139  -1.980  52.737  1.00  0.00     0.030 A 
HETATM   23  C21 UNL     1      18.203  -2.076  53.605  1.00  0.00     0.031 A 
HETATM   24  C20 UNL     1      19.244  -1.177  53.645  1.00  0.00     0.032 A 
BRANCH  22  25
HETATM   25  N2  UNL     1      16.090  -2.941  52.744  1.00  0.00    -0.378 N 
HETATM   26  C3  UNL     1      14.791  -2.745  52.190  1.00  0.00     0.153 C 
HETATM   27  C2  UNL     1      14.294  -3.876  51.322  1.00  0.00     0.291 C 
HETATM   28  N1  UNL     1      14.741  -5.159  51.762  1.00  0.00     0.087 N 
HETATM   29  C1  UNL     1      13.629  -6.086  51.683  1.00  0.00     0.310 C 
HETATM   30  C23 UNL     1      15.190  -5.142  53.152  1.00  0.00     0.291 C 
HETATM   31  C22 UNL     1      16.350  -4.226  53.359  1.00  0.00     0.153 C 
ENDBRANCH  22  25
ENDBRANCH   1  19
TORSDOF 5
ENDMDL
MODEL 6
REMARK VINA RESULT:      -7.9      3.321      5.402
REMARK  5 active torsions:
REMARK  status: ('A' for Active; 'I' for Inactive)
REMARK    1  A    between atoms: N2_5  and  C4_6 
REMARK    2  A    between atoms: C7_9  and  N3_10 
REMARK       I    between atoms: N3_10  and  C8_11 
REMARK    3  A    between atoms: C8_11  and  C9_13 
REMARK    4  A    between atoms: C10_14  and  N4_15 
REMARK    5  A    between atoms: N4_15  and  C11_16 
ROOT
HETATM    1  N3  UNL     1      25.293   3.223  51.672  1.00  0.00    -0.323 N 
HETATM    2  C8  UNL     1      26.408   2.354  51.552  1.00  0.00     0.262 C 
HETATM    3  O1  UNL     1      26.933   2.175  50.424  1.00  0.00    -0.267 OA
HETATM    4  H10 UNL     1      24.821   3.407  52.583  1.00  0.00     0.169 HD
ENDROOT
BRANCH   2   5
HETATM    5  C9  UNL     1      26.957   1.669  52.701  1.00  0.00     0.108 A 
HETATM    6  C10 UNL     1      26.443   0.630  53.340  1.00  0.00     0.052 A 
HETATM    7  C17 UNL     1      27.291   0.215  54.459  1.00  0.00     0.034 A 
HETATM    8  C18 UNL     1      28.370   1.003  54.539  1.00  0.00     0.058 A 
HETATM    9  C19 UNL     1      28.188   1.944  53.429  1.00  0.00     0.190 A 
HETATM   10  O2  UNL     1      29.019   2.855  53.180  1.00  0.00    -0.287 OA
BRANCH   6  11
HETATM   11  N4  UNL     1      25.239  -0.058  53.054  1.00  0.00    -0.355 N 
HETATM   12  H11 UNL     1      25.287  -0.860  52.385  1.00  0.00     0.166 HD
BRANCH  11  13
HETATM   13  C11 UNL     1      23.869  -0.009  53.410  1.00  0.00     0.032 A 
HETATM   14  C12 UNL     1      23.583  -0.892  54.455  1.00  0.00     0.029 A 
HETATM   15  C13 UNL     1      22.292  -1.007  54.964  1.00  0.00     0.002 A 
HETATM   16  C14 UNL     1      21.308  -0.219  54.402  1.00  0.00     0.000 A 
HETATM   17  C15 UNL     1      21.573   0.656  53.372  1.00  0.00     0.002 A 
HETATM   18  C16 UNL     1      22.858   0.764  52.871  1.00  0.00     0.029 A 
ENDBRANCH  11  13
ENDBRANCH   6  11
ENDBRANCH   2   5
BRANCH   1  19
HETATM   19  C7  UNL     1      24.660   3.954  50.626  1.00  0.00     0.035 A 
HETATM   20  C6  UNL     1      24.913   5.314  50.528  1.00  0.00     0.032 A 
HETATM   21  C5  UNL     1      24.309   6.036  49.522  1.00  0.00     0.031 A 
HETATM   22  C4  UNL     1      23.460   5.508  48.591  1.00  0.00     0.030 A 
HETATM   23  C21 UNL     1      23.241   4.156  48.732  1.00  0.00     0.031 A 
HETATM   24  C20 UNL     1      23.816   3.384  49.715  1.00  0.00     0.032 A 
BRANCH  22  25
HETATM   25  N2  UNL     1      22.835   6.254  47.552  1.00  0.00    -0.378 N 
HETATM   26  C3  UNL     1      23.423   7.354  46.863  1.00  0.00     0.153 C 
HETATM   27  C2  UNL     1      23.295   7.302  45.360  1.00  0.00     0.291 C 
HETATM   28  N1  UNL     1      22.076   6.701  44.921  1.00  0.00     0.087 N 
HETATM   29  C1  UNL     1      21.540   7.489  43.829  1.00  0.00     0.310 C 
HETATM   30  C23 UNL     1      21.063   6.674  45.972  1.00  0.00     0.291 C 
HETATM   31  C22 UNL     1      21.496   5.874  47.154  1.00  0.00     0.153 C 
ENDBRANCH  22  25
ENDBRANCH   1  19
TORSDOF 5
ENDMDL
MODEL 7
REMARK VINA RESULT:      -7.9      3.571      9.464
REMARK  5 active torsions:
REMARK  status: ('A' for Active; 'I' for Inactive)
REMARK    1  A    between atoms: N2_5  and  C4_6 
REMARK    2  A    between atoms: C7_9  and  N3_10 
REMARK       I    between atoms: N3_10  and  C8_11 
REMARK    3  A    between atoms: C8_11  and  C9_13 
REMARK    4  A    between atoms: C10_14  and  N4_15 
REMARK    5  A    between atoms: N4_15  and  C11_16 
ROOT
HETATM    1  N3  UNL     1      23.790   0.274  52.784  1.00  0.00    -0.323 N 
HETATM    2  C8  UNL     1      24.524   1.442  53.116  1.00  0.00     0.262 C 
HETATM    3  O1  UNL     1      23.910   2.522  53.313  1.00  0.00    -0.267 OA
HETATM    4  H10 UNL     1      24.249  -0.646  52.612  1.00  0.00     0.169 HD
ENDROOT
BRANCH   2   5
HETATM    5  C9  UNL     1      25.965   1.419  53.236  1.00  0.00     0.108 A 
HETATM    6  C10 UNL     1      26.839   2.170  52.586  1.00  0.00     0.052 A 
HETATM    7  C17 UNL     1      28.214   1.854  52.977  1.00  0.00     0.034 A 
HETATM    8  C18 UNL     1      28.222   0.881  53.896  1.00  0.00     0.058 A 
HETATM    9  C19 UNL     1      26.799   0.580  54.085  1.00  0.00     0.190 A 
HETATM   10  O2  UNL     1      26.402  -0.302  54.890  1.00  0.00    -0.287 OA
BRANCH   6  11
HETATM   11  N4  UNL     1      26.576   3.173  51.621  1.00  0.00    -0.355 N 
HETATM   12  H11 UNL     1      27.246   3.974  51.562  1.00  0.00     0.166 HD
BRANCH  11  13
HETATM   13  C11 UNL     1      25.617   3.471  50.622  1.00  0.00     0.032 A 
HETATM   14  C12 UNL     1      25.836   4.735  50.068  1.00  0.00     0.029 A 
HETATM   15  C13 UNL     1      25.007   5.231  49.065  1.00  0.00     0.002 A 
HETATM   16  C14 UNL     1      23.965   4.432  48.640  1.00  0.00     0.000 A 
HETATM   17  C15 UNL     1      23.736   3.185  49.176  1.00  0.00     0.002 A 
HETATM   18  C16 UNL     1      24.563   2.698  50.172  1.00  0.00     0.029 A 
ENDBRANCH  11  13
ENDBRANCH   6  11
ENDBRANCH   2   5
BRANCH   1  19
HETATM   19  C7  UNL     1      22.378   0.163  52.636  1.00  0.00     0.035 A 
HETATM   20  C6  UNL     1      21.641  -0.320  53.706  1.00  0.00     0.032 A 
HETATM   21  C5  UNL     1      20.274  -0.435  53.581  1.00  0.00     0.031 A 
HETATM   22  C4  UNL     1      19.569  -0.104  52.458  1.00  0.00     0.030 A 
HETATM   23  C21 UNL     1      20.346   0.370  51.425  1.00  0.00     0.031 A 
HETATM   24  C20 UNL     1      21.713   0.505  51.493  1.00  0.00     0.032 A 
BRANCH  22  25
HETATM   25  N2  UNL     1      18.157  -0.222  52.327  1.00  0.00    -0.378 N 
HETATM   26  C3  UNL     1      17.322   0.665  51.586  1.00  0.00     0.153 C 
HETATM   27  C2  UNL     1      16.329  -0.012  50.673  1.00  0.00     0.291 C 
HETATM   28  N1  UNL     1      15.840  -1.248  51.195  1.00  0.00     0.087 N 
HETATM   29  C1  UNL     1      14.409  -1.311  50.970  1.00  0.00     0.310 C 
HETATM   30  C23 UNL     1      16.055  -1.366  52.635  1.00  0.00     0.291 C 
HETATM   31  C22 UNL     1      17.503  -1.329  52.994  1.00  0.00     0.153 C 
ENDBRANCH  22  25
ENDBRANCH   1  19
TORSDOF 5
ENDMDL
MODEL 8
REMARK VINA RESULT:      -7.9      1.903      2.499
REMARK  5 active torsions:
REMARK  status: ('A' for Active; 'I' for Inactive)
REMARK    1  A    between atoms: N2_5  and  C4_6 
REMARK    2  A    between atoms: C7_9  and  N3_10 
REMARK       I    between atoms: N3_10  and  C8_11 
REMARK    3  A    between atoms: C8_11  and  C9_13 
REMARK    4  A    between atoms: C10_14  and  N4_15 
REMARK    5  A    between atoms: N4_15  and  C11_16 
ROOT
HETATM    1  N3  UNL     1      24.221   4.297  50.588  1.00  0.00    -0.323 N 
HETATM    2  C8  UNL     1      23.274   3.365  50.089  1.00  0.00     0.262 C 
HETATM    3  O1  UNL     1      23.384   2.947  48.909  1.00  0.00    -0.267 OA
HETATM    4  H10 UNL     1      24.177   4.676  51.559  1.00  0.00     0.169 HD
ENDROOT
BRANCH   2   5
HETATM    5  C9  UNL     1      22.186   2.883  50.910  1.00  0.00     0.108 A 
HETATM    6  C10 UNL     1      22.270   2.275  52.082  1.00  0.00     0.052 A 
HETATM    7  C17 UNL     1      20.946   1.936  52.607  1.00  0.00     0.034 A 
HETATM    8  C18 UNL     1      19.994   2.336  51.754  1.00  0.00     0.058 A 
HETATM    9  C19 UNL     1      20.753   2.946  50.658  1.00  0.00     0.190 A 
HETATM   10  O2  UNL     1      20.190   3.446  49.650  1.00  0.00    -0.287 OA
BRANCH   6  11
HETATM   11  N4  UNL     1      23.439   1.951  52.811  1.00  0.00    -0.355 N 
HETATM   12  H11 UNL     1      23.585   2.431  53.729  1.00  0.00     0.166 HD
BRANCH  11  13
HETATM   13  C11 UNL     1      24.575   1.113  52.694  1.00  0.00     0.032 A 
HETATM   14  C12 UNL     1      24.475  -0.000  53.533  1.00  0.00     0.029 A 
HETATM   15  C13 UNL     1      25.486  -0.957  53.577  1.00  0.00     0.002 A 
HETATM   16  C14 UNL     1      26.586  -0.767  52.765  1.00  0.00     0.000 A 
HETATM   17  C15 UNL     1      26.700   0.324  51.933  1.00  0.00     0.002 A 
HETATM   18  C16 UNL     1      25.692   1.271  51.895  1.00  0.00     0.029 A 
ENDBRANCH  11  13
ENDBRANCH   6  11
ENDBRANCH   2   5
BRANCH   1  19
HETATM   19  C7  UNL     1      25.333   4.848  49.888  1.00  0.00     0.035 A 
HETATM   20  C6  UNL     1      26.390   4.010  49.569  1.00  0.00     0.032 A 
HETATM   21  C5  UNL     1      27.473   4.526  48.893  1.00  0.00     0.031 A 
HETATM   22  C4  UNL     1      27.593   5.829  48.502  1.00  0.00     0.030 A 
HETATM   23  C21 UNL     1      26.519   6.620  48.842  1.00  0.00     0.031 A 
HETATM   24  C20 UNL     1      25.411   6.160  49.517  1.00  0.00     0.032 A 
BRANCH  22  25
HETATM   25  N2  UNL     1      28.712   6.363  47.803  1.00  0.00    -0.378 N 
HETATM   26  C3  UNL     1      28.678   7.497  46.940  1.00  0.00     0.153 C 
HETATM   27  C2  UNL     1      29.776   8.507  47.176  1.00  0.00     0.291 C 
HETATM   28  N1  UNL     1      31.005   7.911  47.591  1.00  0.00     0.087 N 
HETATM   29  C1  UNL     1      32.093   8.550  46.875  1.00  0.00     0.310 C 
HETATM   30  C23 UNL     1      31.063   6.485  47.279  1.00  0.00     0.291 C 
HETATM   31  C22 UNL     1      29.993   5.711  47.974  1.00  0.00     0.153 C 
ENDBRANCH  22  25
ENDBRANCH   1  19
TORSDOF 5
ENDMDL
MODEL 9
REMARK VINA RESULT:      -7.8      4.455      9.144
REMARK  5 active torsions:
REMARK  status: ('A' for Active; 'I' for Inactive)
REMARK    1  A    between atoms: N2_5  and  C4_6 
REMARK    2  A    between atoms: C7_9  and  N3_10 
REMARK       I    between atoms: N3_10  and  C8_11 
REMARK    3  A    between atoms: C8_11  and  C9_13 
REMARK    4  A    between atoms: C10_14  and  N4_15 
REMARK    5  A    between atoms: N4_15  and  C11_16 
ROOT
HETATM    1  N3  UNL     1      27.592   6.643  48.965  1.00  0.00    -0.323 N 
HETATM    2  C8  UNL     1      28.871   6.219  48.521  1.00  0.00     0.262 C 
HETATM    3  O1  UNL     1      29.016   5.048  48.088  1.00  0.00    -0.267 OA
HETATM    4  H10 UNL     1      27.416   7.603  49.333  1.00  0.00     0.169 HD
ENDROOT
BRANCH   2   5
HETATM    5  C9  UNL     1      30.013   7.104  48.556  1.00  0.00     0.108 A 
HETATM    6  C10 UNL     1      31.290   6.769  48.648  1.00  0.00     0.052 A 
HETATM    7  C17 UNL     1      32.156   7.949  48.654  1.00  0.00     0.034 A 
HETATM    8  C18 UNL     1      31.420   9.064  48.565  1.00  0.00     0.058 A 
HETATM    9  C19 UNL     1      30.044   8.559  48.500  1.00  0.00     0.190 A 
HETATM   10  O2  UNL     1      29.053   9.328  48.408  1.00  0.00    -0.287 OA
BRANCH   6  11
HETATM   11  N4  UNL     1      31.843   5.468  48.734  1.00  0.00    -0.355 N 
HETATM   12  H11 UNL     1      31.514   4.853  49.513  1.00  0.00     0.166 HD
BRANCH  11  13
HETATM   13  C11 UNL     1      32.778   4.657  48.047  1.00  0.00     0.032 A 
HETATM   14  C12 UNL     1      32.139   3.754  47.193  1.00  0.00     0.029 A 
HETATM   15  C13 UNL     1      32.871   2.857  46.420  1.00  0.00     0.002 A 
HETATM   16  C14 UNL     1      34.247   2.892  46.525  1.00  0.00     0.000 A 
HETATM   17  C15 UNL     1      34.893   3.776  47.361  1.00  0.00     0.002 A 
HETATM   18  C16 UNL     1      34.158   4.663  48.128  1.00  0.00     0.029 A 
ENDBRANCH  11  13
ENDBRANCH   6  11
ENDBRANCH   2   5
BRANCH   1  19
HETATM   19  C7  UNL     1      26.392   5.875  48.983  1.00  0.00     0.035 A 
HETATM   20  C6  UNL     1      25.230   6.459  48.504  1.00  0.00     0.032 A 
HETATM   21  C5  UNL     1      24.061   5.730  48.514  1.00  0.00     0.031 A 
HETATM   22  C4  UNL     1      23.952   4.447  48.971  1.00  0.00     0.030 A 
HETATM   23  C21 UNL     1      25.133   3.913  49.436  1.00  0.00     0.031 A 
HETATM   24  C20 UNL     1      26.329   4.593  49.450  1.00  0.00     0.032 A 
BRANCH  22  25
HETATM   25  N2  UNL     1      22.745   3.693  48.983  1.00  0.00    -0.378 N 
HETATM   26  C3  UNL     1      22.574   2.405  48.397  1.00  0.00     0.153 C 
HETATM   27  C2  UNL     1      21.887   1.392  49.281  1.00  0.00     0.291 C 
HETATM   28  N1  UNL     1      20.898   1.971  50.132  1.00  0.00     0.087 N 
HETATM   29  C1  UNL     1      19.728   1.113  50.130  1.00  0.00     0.310 C 
HETATM   30  C23 UNL     1      20.468   3.287  49.668  1.00  0.00     0.291 C 
HETATM   31  C22 UNL     1      21.591   4.270  49.639  1.00  0.00     0.153 C 
ENDBRANCH  22  25
ENDBRANCH   1  19
TORSDOF 5
ENDMDL
