MODEL 1
REMARK VINA RESULT:      -7.9      0.000      0.000
REMARK  1 active torsions:
REMARK  status: ('A' for Active; 'I' for Inactive)
REMARK    1  A    between atoms: C15_22  and  C16_24 
ROOT
HETATM    1  C1  UNL     1      21.450   1.724  48.240  1.00  0.00     0.038 C 
HETATM    2  C2  UNL     1      22.737   2.400  48.042  1.00  0.00    -0.001 C 
HETATM    3  C3  UNL     1      23.129   2.927  49.183  1.00  0.00     0.033 C 
HETATM    4  N1  UNL     1      22.557   2.945  50.457  1.00  0.00    -0.372 N 
HETATM    5  C4  UNL     1      21.833   3.887  51.301  1.00  0.00     0.272 C 
HETATM    6  N2  UNL     1      21.503   3.269  52.592  1.00  0.00    -0.264 NA
HETATM    7  C5  UNL     1      20.728   2.237  52.574  1.00  0.00     0.228 C 
HETATM    8  N3  UNL     1      19.870   1.118  52.393  1.00  0.00    -0.254 NA
HETATM    9  C6  UNL     1      20.479  -0.038  52.509  1.00  0.00     0.120 C 
HETATM   10  C7  UNL     1      21.899  -0.196  52.795  1.00  0.00     0.043 C 
HETATM   11  C8  UNL     1      23.083  -0.743  53.031  1.00  0.00     0.136 C 
HETATM   12  O1  UNL     1      24.417  -0.496  53.303  1.00  0.00    -0.363 OA
HETATM   13  C9  UNL     1      24.751   0.224  54.500  1.00  0.00     0.183 C 
HETATM   14  C10 UNL     1      26.248   0.304  54.614  1.00  0.00     0.131 C 
HETATM   15  C11 UNL     1      26.894   1.013  53.492  1.00  0.00     0.243 C 
HETATM   16  O2  UNL     1      25.707   1.234  53.148  1.00  0.00    -0.271 OA
HETATM   17  N4  UNL     1      27.403   1.715  52.380  1.00  0.00    -0.235 N 
HETATM   18  O3  UNL     1      27.146   2.418  51.278  1.00  0.00    -0.277 OA
HETATM   19  C12 UNL     1      25.832   2.676  51.003  1.00  0.00     0.206 C 
HETATM   20  C13 UNL     1      25.778   3.319  49.603  1.00  0.00     0.071 C 
HETATM   21  C14 UNL     1      24.377   3.659  49.269  1.00  0.00    -0.010 C 
HETATM   22  C15 UNL     1      24.092   4.913  48.965  1.00  0.00     0.048 C 
HETATM   23 CL1  UNL     1      25.345   6.139  48.952  1.00  0.00    -0.086 Cl
HETATM   24  H5  UNL     1      22.825   1.960  50.681  1.00  0.00     0.161 HD
HETATM   25  H16 UNL     1      28.336   1.466  52.760  1.00  0.00     0.197 HD
ENDROOT
BRANCH  22  26
HETATM   26  C16 UNL     1      22.852   5.633  48.588  1.00  0.00     0.274 C 
HETATM   27  F1  UNL     1      22.764   5.669  47.210  1.00  0.00    -0.250 F 
ENDBRANCH  22  26
TORSDOF 1
ENDMDL
MODEL 2
REMARK VINA RESULT:      -7.4      3.338      5.529
REMARK  1 active torsions:
REMARK  status: ('A' for Active; 'I' for Inactive)
REMARK    1  A    between atoms: C15_22  and  C16_24 
ROOT
HETATM    1  C1  UNL     1      19.619   4.393  51.054  1.00  0.00     0.038 C 
HETATM    2  C2  UNL     1      19.256   3.309  51.972  1.00  0.00    -0.001 C 
HETATM    3  C3  UNL     1      19.895   2.213  51.623  1.00  0.00     0.033 C 
HETATM    4  N1  UNL     1      20.797   1.937  50.593  1.00  0.00    -0.372 N 
HETATM    5  C4  UNL     1      20.783   1.270  49.297  1.00  0.00     0.272 C 
HETATM    6  N2  UNL     1      22.118   1.317  48.683  1.00  0.00    -0.264 NA
HETATM    7  C5  UNL     1      22.604   2.480  48.408  1.00  0.00     0.228 C 
HETATM    8  N3  UNL     1      23.001   3.822  48.164  1.00  0.00    -0.254 NA
HETATM    9  C6  UNL     1      23.879   4.278  49.026  1.00  0.00     0.120 C 
HETATM   10  C7  UNL     1      24.417   3.507  50.140  1.00  0.00     0.043 C 
HETATM   11  C8  UNL     1      25.111   3.164  51.214  1.00  0.00     0.136 C 
HETATM   12  O1  UNL     1      25.382   2.153  52.121  1.00  0.00    -0.363 OA
HETATM   13  C9  UNL     1      25.941   0.925  51.631  1.00  0.00     0.183 C 
HETATM   14  C10 UNL     1      26.213   0.018  52.799  1.00  0.00     0.131 C 
HETATM   15  C11 UNL     1      25.005  -0.336  53.571  1.00  0.00     0.243 C 
HETATM   16  O2  UNL     1      24.420   0.291  52.654  1.00  0.00    -0.271 OA
HETATM   17  N4  UNL     1      23.790  -0.618  54.227  1.00  0.00    -0.235 N 
HETATM   18  O3  UNL     1      22.463  -0.496  54.241  1.00  0.00    -0.277 OA
HETATM   19  C12 UNL     1      21.890   0.142  53.176  1.00  0.00     0.206 C 
HETATM   20  C13 UNL     1      20.398   0.331  53.509  1.00  0.00     0.071 C 
HETATM   21  C14 UNL     1      19.716   0.983  52.368  1.00  0.00    -0.010 C 
HETATM   22  C15 UNL     1      18.680   0.368  51.822  1.00  0.00     0.048 C 
HETATM   23 CL1  UNL     1      18.127  -1.176  52.440  1.00  0.00    -0.086 Cl
HETATM   24  H5  UNL     1      21.605   2.404  51.065  1.00  0.00     0.161 HD
HETATM   25  H16 UNL     1      24.380  -1.105  54.927  1.00  0.00     0.197 HD
ENDROOT
BRANCH  22  26
HETATM   26  C16 UNL     1      17.763   0.679  50.700  1.00  0.00     0.274 C 
HETATM   27  F1  UNL     1      17.367  -0.508  50.113  1.00  0.00    -0.250 F 
ENDBRANCH  22  26
TORSDOF 1
ENDMDL
MODEL 3
REMARK VINA RESULT:      -7.3      3.344      5.165
REMARK  1 active torsions:
REMARK  status: ('A' for Active; 'I' for Inactive)
REMARK    1  A    between atoms: C15_22  and  C16_24 
ROOT
HETATM    1  C1  UNL     1      21.888   2.941  48.313  1.00  0.00     0.038 C 
HETATM    2  C2  UNL     1      22.831   2.435  49.316  1.00  0.00    -0.001 C 
HETATM    3  C3  UNL     1      22.263   2.473  50.502  1.00  0.00     0.033 C 
HETATM    4  N1  UNL     1      20.998   2.887  50.927  1.00  0.00    -0.372 N 
HETATM    5  C4  UNL     1      20.411   4.039  51.599  1.00  0.00     0.272 C 
HETATM    6  N2  UNL     1      18.963   3.849  51.769  1.00  0.00    -0.264 NA
HETATM    7  C5  UNL     1      18.250   3.740  50.699  1.00  0.00     0.228 C 
HETATM    8  N3  UNL     1      17.603   3.638  49.438  1.00  0.00    -0.254 NA
HETATM    9  C6  UNL     1      17.268   2.411  49.114  1.00  0.00     0.120 C 
HETATM   10  C7  UNL     1      17.520   1.242  49.946  1.00  0.00     0.043 C 
HETATM   11  C8  UNL     1      17.561  -0.009  50.380  1.00  0.00     0.136 C 
HETATM   12  O1  UNL     1      17.959  -0.845  51.409  1.00  0.00    -0.363 OA
HETATM   13  C9  UNL     1      17.401  -0.637  52.716  1.00  0.00     0.183 C 
HETATM   14  C10 UNL     1      17.922  -1.702  53.639  1.00  0.00     0.131 C 
HETATM   15  C11 UNL     1      19.391  -1.690  53.792  1.00  0.00     0.243 C 
HETATM   16  O2  UNL     1      19.303  -0.652  53.093  1.00  0.00    -0.271 OA
HETATM   17  N4  UNL     1      20.794  -1.582  53.873  1.00  0.00    -0.235 N 
HETATM   18  O3  UNL     1      21.892  -0.901  53.546  1.00  0.00    -0.277 OA
HETATM   19  C12 UNL     1      21.713   0.256  52.840  1.00  0.00     0.206 C 
HETATM   20  C13 UNL     1      23.110   0.750  52.416  1.00  0.00     0.071 C 
HETATM   21  C14 UNL     1      22.980   2.028  51.680  1.00  0.00    -0.010 C 
HETATM   22  C15 UNL     1      23.638   3.081  52.133  1.00  0.00     0.048 C 
HETATM   23 CL1  UNL     1      24.642   2.964  53.565  1.00  0.00    -0.086 Cl
HETATM   24  H5  UNL     1      20.512   2.027  50.587  1.00  0.00     0.161 HD
HETATM   25  H16 UNL     1      20.742  -2.451  54.438  1.00  0.00     0.197 HD
ENDROOT
BRANCH  22  26
HETATM   26  C16 UNL     1      23.762   4.493  51.697  1.00  0.00     0.274 C 
HETATM   27  F1  UNL     1      24.888   4.612  50.905  1.00  0.00    -0.250 F 
ENDBRANCH  22  26
TORSDOF 1
ENDMDL
MODEL 4
REMARK VINA RESULT:      -7.2      2.041      2.694
REMARK  1 active torsions:
REMARK  status: ('A' for Active; 'I' for Inactive)
REMARK    1  A    between atoms: C15_22  and  C16_24 
ROOT
HETATM    1  C1  UNL     1      20.654   2.754  47.736  1.00  0.00     0.038 C 
HETATM    2  C2  UNL     1      22.096   2.774  48.007  1.00  0.00    -0.001 C 
HETATM    3  C3  UNL     1      22.293   3.037  49.281  1.00  0.00     0.033 C 
HETATM    4  N1  UNL     1      21.414   3.282  50.339  1.00  0.00    -0.372 N 
HETATM    5  C4  UNL     1      20.935   4.429  51.098  1.00  0.00     0.272 C 
HETATM    6  N2  UNL     1      19.984   3.998  52.133  1.00  0.00    -0.264 NA
HETATM    7  C5  UNL     1      18.893   3.433  51.737  1.00  0.00     0.228 C 
HETATM    8  N3  UNL     1      17.747   2.832  51.150  1.00  0.00    -0.254 NA
HETATM    9  C6  UNL     1      17.735   1.523  51.234  1.00  0.00     0.120 C 
HETATM   10  C7  UNL     1      18.783   0.728  51.863  1.00  0.00     0.043 C 
HETATM   11  C8  UNL     1      19.479  -0.303  52.316  1.00  0.00     0.136 C 
HETATM   12  O1  UNL     1      20.631  -0.697  52.975  1.00  0.00    -0.363 OA
HETATM   13  C9  UNL     1      20.844  -0.238  54.319  1.00  0.00     0.183 C 
HETATM   14  C10 UNL     1      22.111  -0.852  54.845  1.00  0.00     0.131 C 
HETATM   15  C11 UNL     1      23.314  -0.487  54.071  1.00  0.00     0.243 C 
HETATM   16  O2  UNL     1      22.510   0.258  53.460  1.00  0.00    -0.271 OA
HETATM   17  N4  UNL     1      24.395  -0.068  53.270  1.00  0.00    -0.235 N 
HETATM   18  O3  UNL     1      24.824   0.702  52.270  1.00  0.00    -0.277 OA
HETATM   19  C12 UNL     1      23.905   1.537  51.696  1.00  0.00     0.206 C 
HETATM   20  C13 UNL     1      24.574   2.168  50.460  1.00  0.00     0.071 C 
HETATM   21  C14 UNL     1      23.636   3.117  49.820  1.00  0.00    -0.010 C 
HETATM   22  C15 UNL     1      24.024   4.371  49.661  1.00  0.00     0.048 C 
HETATM   23 CL1  UNL     1      25.612   4.892  50.188  1.00  0.00    -0.086 Cl
HETATM   24  H5  UNL     1      21.152   2.277  50.462  1.00  0.00     0.161 HD
HETATM   25  H16 UNL     1      24.961  -0.724  53.840  1.00  0.00     0.197 HD
ENDROOT
BRANCH  22  26
HETATM   26  C16 UNL     1      23.397   5.586  49.087  1.00  0.00     0.274 C 
HETATM   27  F1  UNL     1      23.333   6.554  50.070  1.00  0.00    -0.250 F 
ENDBRANCH  22  26
TORSDOF 1
ENDMDL
MODEL 5
REMARK VINA RESULT:      -7.0      3.414      5.731
REMARK  1 active torsions:
REMARK  status: ('A' for Active; 'I' for Inactive)
REMARK    1  A    between atoms: C15_22  and  C16_24 
ROOT
HETATM    1  C1  UNL     1      26.222   2.876  49.903  1.00  0.00     0.038 C 
HETATM    2  C2  UNL     1      26.418   1.728  50.795  1.00  0.00    -0.001 C 
HETATM    3  C3  UNL     1      25.604   1.836  51.824  1.00  0.00     0.033 C 
HETATM    4  N1  UNL     1      24.655   2.798  52.177  1.00  0.00    -0.372 N 
HETATM    5  C4  UNL     1      24.543   3.909  53.113  1.00  0.00     0.272 C 
HETATM    6  N2  UNL     1      23.225   4.548  52.993  1.00  0.00    -0.264 NA
HETATM    7  C5  UNL     1      22.931   5.091  51.859  1.00  0.00     0.228 C 
HETATM    8  N3  UNL     1      22.753   5.641  50.561  1.00  0.00    -0.254 NA
HETATM    9  C6  UNL     1      21.973   4.925  49.787  1.00  0.00     0.120 C 
HETATM   10  C7  UNL     1      21.332   3.678  50.188  1.00  0.00     0.043 C 
HETATM   11  C8  UNL     1      20.606   2.571  50.162  1.00  0.00     0.136 C 
HETATM   12  O1  UNL     1      20.188   1.466  50.884  1.00  0.00    -0.363 OA
HETATM   13  C9  UNL     1      19.430   1.678  52.085  1.00  0.00     0.183 C 
HETATM   14  C10 UNL     1      19.031   0.343  52.647  1.00  0.00     0.131 C 
HETATM   15  C11 UNL     1      20.176  -0.518  53.007  1.00  0.00     0.243 C 
HETATM   16  O2  UNL     1      20.842   0.503  52.706  1.00  0.00    -0.271 OA
HETATM   17  N4  UNL     1      21.338  -1.249  53.324  1.00  0.00    -0.235 N 
HETATM   18  O3  UNL     1      22.668  -1.266  53.418  1.00  0.00    -0.277 OA
HETATM   19  C12 UNL     1      23.321  -0.098  53.139  1.00  0.00     0.206 C 
HETATM   20  C13 UNL     1      24.829  -0.414  53.123  1.00  0.00     0.071 C 
HETATM   21  C14 UNL     1      25.592   0.828  52.865  1.00  0.00    -0.010 C 
HETATM   22  C15 UNL     1      26.506   1.196  53.747  1.00  0.00     0.048 C 
HETATM   23 CL1  UNL     1      26.810   0.233  55.179  1.00  0.00    -0.086 Cl
HETATM   24  H5  UNL     1      23.940   2.463  51.491  1.00  0.00     0.161 HD
HETATM   25  H16 UNL     1      20.686  -2.027  53.538  1.00  0.00     0.197 HD
ENDROOT
BRANCH  22  26
HETATM   26  C16 UNL     1      27.446   2.337  53.850  1.00  0.00     0.274 C 
HETATM   27  F1  UNL     1      28.653   1.966  53.289  1.00  0.00    -0.250 F 
ENDBRANCH  22  26
TORSDOF 1
ENDMDL
MODEL 6
REMARK VINA RESULT:      -6.9      5.808      8.360
REMARK  1 active torsions:
REMARK  status: ('A' for Active; 'I' for Inactive)
REMARK    1  A    between atoms: C15_22  and  C16_24 
ROOT
HETATM    1  C1  UNL     1      28.831   9.319  45.465  1.00  0.00     0.038 C 
HETATM    2  C2  UNL     1      29.509   8.126  45.983  1.00  0.00    -0.001 C 
HETATM    3  C3  UNL     1      29.097   7.894  47.211  1.00  0.00     0.033 C 
HETATM    4  N1  UNL     1      28.185   8.553  48.038  1.00  0.00    -0.372 N 
HETATM    5  C4  UNL     1      28.224   9.458  49.180  1.00  0.00     0.272 C 
HETATM    6  N2  UNL     1      26.860   9.793  49.614  1.00  0.00    -0.264 NA
HETATM    7  C5  UNL     1      26.106  10.416  48.772  1.00  0.00     0.228 C 
HETATM    8  N3  UNL     1      25.401  11.097  47.743  1.00  0.00    -0.254 NA
HETATM    9  C6  UNL     1      24.530  10.345  47.113  1.00  0.00     0.120 C 
HETATM   10  C7  UNL     1      24.282   8.941  47.415  1.00  0.00     0.043 C 
HETATM   11  C8  UNL     1      23.785   7.714  47.378  1.00  0.00     0.136 C 
HETATM   12  O1  UNL     1      23.831   6.449  47.938  1.00  0.00    -0.363 OA
HETATM   13  C9  UNL     1      23.513   6.304  49.331  1.00  0.00     0.183 C 
HETATM   14  C10 UNL     1      23.559   4.844  49.688  1.00  0.00     0.131 C 
HETATM   15  C11 UNL     1      24.882   4.223  49.482  1.00  0.00     0.243 C 
HETATM   16  O2  UNL     1      25.225   5.401  49.217  1.00  0.00    -0.271 OA
HETATM   17  N4  UNL     1      26.185   3.735  49.259  1.00  0.00    -0.235 N 
HETATM   18  O3  UNL     1      27.448   4.006  48.929  1.00  0.00    -0.277 OA
HETATM   19  C12 UNL     1      27.763   5.320  48.720  1.00  0.00     0.206 C 
HETATM   20  C13 UNL     1      29.202   5.360  48.170  1.00  0.00     0.071 C 
HETATM   21  C14 UNL     1      29.613   6.767  47.962  1.00  0.00    -0.010 C 
HETATM   22  C15 UNL     1      30.702   7.198  48.575  1.00  0.00     0.048 C 
HETATM   23 CL1  UNL     1      31.638   6.128  49.600  1.00  0.00    -0.086 Cl
HETATM   24  H5  UNL     1      27.342   8.169  47.553  1.00  0.00     0.161 HD
HETATM   25  H16 UNL     1      25.785   2.807  49.491  1.00  0.00     0.197 HD
ENDROOT
BRANCH  22  26
HETATM   26  C16 UNL     1      31.419   8.495  48.625  1.00  0.00     0.274 C 
HETATM   27  F1  UNL     1      31.388   8.966  49.923  1.00  0.00    -0.250 F 
ENDBRANCH  22  26
TORSDOF 1
ENDMDL
MODEL 7
REMARK VINA RESULT:      -6.7      7.426     10.178
REMARK  1 active torsions:
REMARK  status: ('A' for Active; 'I' for Inactive)
REMARK    1  A    between atoms: C15_22  and  C16_24 
ROOT
HETATM    1  C1  UNL     1      31.173   9.313  44.623  1.00  0.00     0.038 C 
HETATM    2  C2  UNL     1      31.581   8.043  45.235  1.00  0.00    -0.001 C 
HETATM    3  C3  UNL     1      31.153   8.006  46.479  1.00  0.00     0.033 C 
HETATM    4  N1  UNL     1      30.427   8.914  47.253  1.00  0.00    -0.372 N 
HETATM    5  C4  UNL     1      30.689   9.875  48.316  1.00  0.00     0.272 C 
HETATM    6  N2  UNL     1      29.443  10.539  48.725  1.00  0.00    -0.264 NA
HETATM    7  C5  UNL     1      28.828  11.245  47.837  1.00  0.00     0.228 C 
HETATM    8  N3  UNL     1      28.271  11.983  46.758  1.00  0.00    -0.254 NA
HETATM    9  C6  UNL     1      27.241  11.397  46.194  1.00  0.00     0.120 C 
HETATM   10  C7  UNL     1      26.695  10.111  46.610  1.00  0.00     0.043 C 
HETATM   11  C8  UNL     1      25.937   9.027  46.673  1.00  0.00     0.136 C 
HETATM   12  O1  UNL     1      25.713   7.831  47.335  1.00  0.00    -0.363 OA
HETATM   13  C9  UNL     1      25.400   7.871  48.735  1.00  0.00     0.183 C 
HETATM   14  C10 UNL     1      25.128   6.471  49.209  1.00  0.00     0.131 C 
HETATM   15  C11 UNL     1      26.276   5.556  49.052  1.00  0.00     0.243 C 
HETATM   16  O2  UNL     1      26.866   6.603  48.691  1.00  0.00    -0.271 OA
HETATM   17  N4  UNL     1      27.434   4.775  48.866  1.00  0.00    -0.235 N 
HETATM   18  O3  UNL     1      28.718   4.731  48.512  1.00  0.00    -0.277 OA
HETATM   19  C12 UNL     1      29.312   5.921  48.196  1.00  0.00     0.206 C 
HETATM   20  C13 UNL     1      30.713   5.596  47.641  1.00  0.00     0.071 C 
HETATM   21  C14 UNL     1      31.421   6.856  47.319  1.00  0.00    -0.010 C 
HETATM   22  C15 UNL     1      32.591   7.080  47.891  1.00  0.00     0.048 C 
HETATM   23 CL1  UNL     1      33.287   5.913  48.998  1.00  0.00    -0.086 Cl
HETATM   24  H5  UNL     1      29.510   8.691  46.802  1.00  0.00     0.161 HD
HETATM   25  H16 UNL     1      26.843   3.980  49.174  1.00  0.00     0.197 HD
ENDROOT
BRANCH  22  26
HETATM   26  C16 UNL     1      33.579   8.185  47.834  1.00  0.00     0.274 C 
HETATM   27  F1  UNL     1      34.371   8.126  48.964  1.00  0.00    -0.250 F 
ENDBRANCH  22  26
TORSDOF 1
ENDMDL
MODEL 8
REMARK VINA RESULT:      -6.7      3.848      6.412
REMARK  1 active torsions:
REMARK  status: ('A' for Active; 'I' for Inactive)
REMARK    1  A    between atoms: C15_22  and  C16_24 
ROOT
HETATM    1  C1  UNL     1      19.558   2.043  51.869  1.00  0.00     0.038 C 
HETATM    2  C2  UNL     1      20.699   2.424  52.708  1.00  0.00    -0.001 C 
HETATM    3  C3  UNL     1      21.706   2.774  51.935  1.00  0.00     0.033 C 
HETATM    4  N1  UNL     1      21.850   2.836  50.548  1.00  0.00    -0.372 N 
HETATM    5  C4  UNL     1      22.481   2.052  49.493  1.00  0.00     0.272 C 
HETATM    6  N2  UNL     1      22.267   2.688  48.185  1.00  0.00    -0.264 NA
HETATM    7  C5  UNL     1      21.049   2.803  47.775  1.00  0.00     0.228 C 
HETATM    8  N3  UNL     1      19.665   2.857  47.460  1.00  0.00    -0.254 NA
HETATM    9  C6  UNL     1      19.134   4.047  47.618  1.00  0.00     0.120 C 
HETATM   10  C7  UNL     1      19.866   5.222  48.070  1.00  0.00     0.043 C 
HETATM   11  C8  UNL     1      20.155   6.463  48.433  1.00  0.00     0.136 C 
HETATM   12  O1  UNL     1      21.150   7.319  48.871  1.00  0.00    -0.363 OA
HETATM   13  C9  UNL     1      22.294   7.528  48.029  1.00  0.00     0.183 C 
HETATM   14  C10 UNL     1      23.193   8.544  48.678  1.00  0.00     0.131 C 
HETATM   15  C11 UNL     1      23.703   8.129  50.000  1.00  0.00     0.243 C 
HETATM   16  O2  UNL     1      23.123   7.052  49.716  1.00  0.00    -0.271 OA
HETATM   17  N4  UNL     1      24.138   7.629  51.244  1.00  0.00    -0.235 N 
HETATM   18  O3  UNL     1      24.168   6.608  52.099  1.00  0.00    -0.277 OA
HETATM   19  C12 UNL     1      23.573   5.445  51.694  1.00  0.00     0.206 C 
HETATM   20  C13 UNL     1      23.565   4.493  52.905  1.00  0.00     0.071 C 
HETATM   21  C14 UNL     1      22.967   3.197  52.511  1.00  0.00    -0.010 C 
HETATM   22  C15 UNL     1      23.682   2.099  52.682  1.00  0.00     0.048 C 
HETATM   23 CL1  UNL     1      25.294   2.176  53.365  1.00  0.00    -0.086 Cl
HETATM   24  H5  UNL     1      21.307   3.723  50.448  1.00  0.00     0.161 HD
HETATM   25  H16 UNL     1      24.571   8.563  51.370  1.00  0.00     0.197 HD
ENDROOT
BRANCH  22  26
HETATM   26  C16 UNL     1      23.450   0.658  52.420  1.00  0.00     0.274 C 
HETATM   27  F1  UNL     1      23.017   0.062  53.588  1.00  0.00    -0.250 F 
ENDBRANCH  22  26
TORSDOF 1
ENDMDL
MODEL 9
REMARK VINA RESULT:      -6.4      9.323     12.037
REMARK  1 active torsions:
REMARK  status: ('A' for Active; 'I' for Inactive)
REMARK    1  A    between atoms: C15_22  and  C16_24 
ROOT
HETATM    1  C1  UNL     1      29.250   5.522  48.207  1.00  0.00     0.038 C 
HETATM    2  C2  UNL     1      28.874   6.839  47.684  1.00  0.00    -0.001 C 
HETATM    3  C3  UNL     1      29.965   7.520  47.404  1.00  0.00     0.033 C 
HETATM    4  N1  UNL     1      31.322   7.213  47.518  1.00  0.00    -0.372 N 
HETATM    5  C4  UNL     1      32.429   7.533  48.410  1.00  0.00     0.272 C 
HETATM    6  N2  UNL     1      33.660   6.870  47.957  1.00  0.00    -0.264 NA
HETATM    7  C5  UNL     1      33.665   5.579  47.936  1.00  0.00     0.228 C 
HETATM    8  N3  UNL     1      33.518   4.166  47.968  1.00  0.00    -0.254 NA
HETATM    9  C6  UNL     1      33.332   3.628  46.787  1.00  0.00     0.120 C 
HETATM   10  C7  UNL     1      33.276   4.378  45.539  1.00  0.00     0.043 C 
HETATM   11  C8  UNL     1      33.168   4.676  44.253  1.00  0.00     0.136 C 
HETATM   12  O1  UNL     1      33.174   5.694  43.315  1.00  0.00    -0.363 OA
HETATM   13  C9  UNL     1      34.359   6.494  43.179  1.00  0.00     0.183 C 
HETATM   14  C10 UNL     1      34.154   7.476  42.060  1.00  0.00     0.131 C 
HETATM   15  C11 UNL     1      33.030   8.407  42.283  1.00  0.00     0.243 C 
HETATM   16  O2  UNL     1      32.988   7.847  43.406  1.00  0.00    -0.271 OA
HETATM   17  N4  UNL     1      31.946   9.249  42.602  1.00  0.00    -0.235 N 
HETATM   18  O3  UNL     1      31.037   9.623  43.503  1.00  0.00    -0.277 OA
HETATM   19  C12 UNL     1      31.096   9.016  44.727  1.00  0.00     0.206 C 
HETATM   20  C13 UNL     1      29.848   9.461  45.514  1.00  0.00     0.071 C 
HETATM   21  C14 UNL     1      29.879   8.865  46.869  1.00  0.00    -0.010 C 
HETATM   22  C15 UNL     1      29.826   9.675  47.911  1.00  0.00     0.048 C 
HETATM   23 CL1  UNL     1      29.714  11.411  47.693  1.00  0.00    -0.086 Cl
HETATM   24  H5  UNL     1      31.339   6.603  46.669  1.00  0.00     0.161 HD
HETATM   25  H16 UNL     1      32.073   9.631  41.646  1.00  0.00     0.197 HD
ENDROOT
BRANCH  22  26
HETATM   26  C16 UNL     1      29.836   9.477  49.381  1.00  0.00     0.274 C 
HETATM   27  F1  UNL     1      30.917  10.155  49.909  1.00  0.00    -0.250 F 
ENDBRANCH  22  26
TORSDOF 1
ENDMDL
