MODEL 1
REMARK VINA RESULT:      -7.9      0.000      0.000
REMARK  7 active torsions:
REMARK  status: ('A' for Active; 'I' for Inactive)
REMARK    1  A    between atoms: C3_3  and  N1_5 
REMARK    2  A    between atoms: C7_10  and  N3_11 
REMARK    3  A    between atoms: N3_11  and  C8_12 
REMARK    4  A    between atoms: C9_14  and  C10_15 
REMARK    5  A    between atoms: C11_16  and  N5_17 
REMARK    6  A    between atoms: C13_19  and  N6_20 
REMARK    7  A    between atoms: C17_26  and  C18_27 
ROOT
HETATM    1  N1  UNL     1      19.372   0.320  51.221  1.00  0.00    -0.373 N 
HETATM    2  C4  UNL     1      18.494  -0.370  52.191  1.00  0.00     0.145 C 
HETATM    3  C5  UNL     1      19.056  -0.804  53.475  1.00  0.00     0.170 C 
HETATM    4  N2  UNL     1      20.393  -0.600  53.820  1.00  0.00    -0.277 N 
HETATM    5  C6  UNL     1      21.580  -0.599  54.364  1.00  0.00     0.143 A 
HETATM    6  C7  UNL     1      22.485   0.155  53.736  1.00  0.00     0.075 A 
HETATM    7  C15 UNL     1      21.756   0.648  52.718  1.00  0.00     0.084 A 
HETATM    8  N7  UNL     1      20.577   0.165  52.848  1.00  0.00    -0.175 NA
HETATM    9  C16 UNL     1      21.599   1.443  51.502  1.00  0.00     0.091 C 
HETATM   10  C17 UNL     1      20.598   0.745  50.559  1.00  0.00     0.118 C 
ENDROOT
BRANCH   6  11
HETATM   11  N3  UNL     1      23.751   0.615  53.676  1.00  0.00    -0.343 N 
HETATM   12  H9  UNL     1      24.301   1.445  53.860  1.00  0.00     0.164 HD
BRANCH  11  13
HETATM   13  C8  UNL     1      24.527  -0.494  53.178  1.00  0.00     0.363 A 
HETATM   14  N4  UNL     1      25.760  -0.127  52.531  1.00  0.00    -0.213 NA
HETATM   15  C9  UNL     1      26.527  -0.640  53.423  1.00  0.00     0.182 A 
HETATM   16  O2  UNL     1      25.419  -1.042  54.131  1.00  0.00    -0.288 OA
BRANCH  15  17
HETATM   17  C10 UNL     1      27.978  -0.746  53.600  1.00  0.00     0.072 A 
HETATM   18  C11 UNL     1      28.873  -1.713  53.477  1.00  0.00     0.045 A 
HETATM   19  C12 UNL     1      29.933  -0.781  53.867  1.00  0.00     0.062 A 
HETATM   20  C13 UNL     1      29.034   0.178  53.990  1.00  0.00     0.074 A 
BRANCH  18  21
HETATM   21  N5  UNL     1      28.922  -3.096  53.124  1.00  0.00    -0.398 N 
HETATM   22  H11 UNL     1      28.542  -3.483  52.211  1.00  0.00     0.156 HD
HETATM   23  H12 UNL     1      29.352  -3.809  53.780  1.00  0.00     0.156 HD
ENDBRANCH  18  21
BRANCH  20  24
HETATM   24  N6  UNL     1      28.984   1.576  54.344  1.00  0.00    -0.271 NA
HETATM   25  C14 UNL     1      28.494   2.437  53.492  1.00  0.00     0.149 C 
ENDBRANCH  20  24
ENDBRANCH  15  17
ENDBRANCH  11  13
ENDBRANCH   6  11
BRANCH  10  26
HETATM   26  C18 UNL     1      20.477   1.499  49.316  1.00  0.00     0.247 C 
HETATM   27  F1  UNL     1      20.722   2.866  49.460  1.00  0.00    -0.253 F 
ENDBRANCH  10  26
BRANCH   1  28
HETATM   28  C3  UNL     1      18.377   1.014  50.401  1.00  0.00     0.035 A 
HETATM   29  C2  UNL     1      17.291   1.923  50.842  1.00  0.00     0.047 A 
HETATM   30  C1  UNL     1      16.919   2.075  49.574  1.00  0.00     0.012 A 
HETATM   31  O1  UNL     1      17.670   1.467  49.469  1.00  0.00     0.000 OA
ENDBRANCH   1  28
TORSDOF 7
ENDMDL
MODEL 2
REMARK VINA RESULT:      -7.8      2.700      3.230
REMARK  7 active torsions:
REMARK  status: ('A' for Active; 'I' for Inactive)
REMARK    1  A    between atoms: C3_3  and  N1_5 
REMARK    2  A    between atoms: C7_10  and  N3_11 
REMARK    3  A    between atoms: N3_11  and  C8_12 
REMARK    4  A    between atoms: C9_14  and  C10_15 
REMARK    5  A    between atoms: C11_16  and  N5_17 
REMARK    6  A    between atoms: C13_19  and  N6_20 
REMARK    7  A    between atoms: C17_26  and  C18_27 
ROOT
HETATM    1  N1  UNL     1      21.737   3.628  50.860  1.00  0.00    -0.373 N 
HETATM    2  C4  UNL     1      20.499   3.811  51.648  1.00  0.00     0.145 C 
HETATM    3  C5  UNL     1      20.144   2.807  52.657  1.00  0.00     0.170 C 
HETATM    4  N2  UNL     1      20.923   1.676  52.901  1.00  0.00    -0.277 N 
HETATM    5  C6  UNL     1      21.413   0.528  53.285  1.00  0.00     0.143 A 
HETATM    6  C7  UNL     1      22.643   0.264  52.836  1.00  0.00     0.075 A 
HETATM    7  C15 UNL     1      22.901   1.370  52.114  1.00  0.00     0.084 A 
HETATM    8  N7  UNL     1      21.867   2.117  52.211  1.00  0.00    -0.175 NA
HETATM    9  C16 UNL     1      23.750   2.177  51.241  1.00  0.00     0.091 C 
HETATM   10  C17 UNL     1      22.866   2.949  50.239  1.00  0.00     0.118 C 
ENDROOT
BRANCH   6  11
HETATM   11  N3  UNL     1      23.688  -0.587  52.789  1.00  0.00    -0.343 N 
HETATM   12  H9  UNL     1      24.036  -1.385  52.274  1.00  0.00     0.164 HD
BRANCH  11  13
HETATM   13  C8  UNL     1      24.563  -0.159  53.852  1.00  0.00     0.363 A 
HETATM   14  N4  UNL     1      25.564  -1.120  54.235  1.00  0.00    -0.213 NA
HETATM   15  C9  UNL     1      26.564  -0.434  53.813  1.00  0.00     0.182 A 
HETATM   16  O2  UNL     1      25.701   0.555  53.406  1.00  0.00    -0.288 OA
BRANCH  15  17
HETATM   17  C10 UNL     1      28.015  -0.634  53.785  1.00  0.00     0.072 A 
HETATM   18  C11 UNL     1      28.820  -1.651  53.519  1.00  0.00     0.045 A 
HETATM   19  C12 UNL     1      29.983  -0.797  53.776  1.00  0.00     0.062 A 
HETATM   20  C13 UNL     1      29.173   0.212  54.041  1.00  0.00     0.074 A 
BRANCH  18  21
HETATM   21  N5  UNL     1      28.731  -3.024  53.137  1.00  0.00    -0.398 N 
HETATM   22  H11 UNL     1      29.323  -3.793  53.570  1.00  0.00     0.156 HD
HETATM   23  H12 UNL     1      28.053  -3.337  52.385  1.00  0.00     0.156 HD
ENDBRANCH  18  21
BRANCH  20  24
HETATM   24  N6  UNL     1      29.263   1.600  54.425  1.00  0.00    -0.271 NA
HETATM   25  C14 UNL     1      28.811   2.520  53.616  1.00  0.00     0.149 C 
ENDBRANCH  20  24
ENDBRANCH  15  17
ENDBRANCH  11  13
ENDBRANCH   6  11
BRANCH  10  26
HETATM   26  C18 UNL     1      23.704   3.714  49.322  1.00  0.00     0.247 C 
HETATM   27  F1  UNL     1      24.686   2.951  48.687  1.00  0.00    -0.253 F 
ENDBRANCH  10  26
BRANCH   1  28
HETATM   28  C3  UNL     1      21.983   5.002  50.418  1.00  0.00     0.035 A 
HETATM   29  C2  UNL     1      21.922   6.252  51.214  1.00  0.00     0.047 A 
HETATM   30  C1  UNL     1      22.251   6.946  50.129  1.00  0.00     0.012 A 
HETATM   31  O1  UNL     1      22.243   6.043  49.769  1.00  0.00     0.000 OA
ENDBRANCH   1  28
TORSDOF 7
ENDMDL
MODEL 3
REMARK VINA RESULT:      -7.7      5.138      8.234
REMARK  7 active torsions:
REMARK  status: ('A' for Active; 'I' for Inactive)
REMARK    1  A    between atoms: C3_3  and  N1_5 
REMARK    2  A    between atoms: C7_10  and  N3_11 
REMARK    3  A    between atoms: N3_11  and  C8_12 
REMARK    4  A    between atoms: C9_14  and  C10_15 
REMARK    5  A    between atoms: C11_16  and  N5_17 
REMARK    6  A    between atoms: C13_19  and  N6_20 
REMARK    7  A    between atoms: C17_26  and  C18_27 
ROOT
HETATM    1  N1  UNL     1      26.492   0.004  53.614  1.00  0.00    -0.373 N 
HETATM    2  C4  UNL     1      25.310  -0.883  53.647  1.00  0.00     0.145 C 
HETATM    3  C5  UNL     1      23.996  -0.331  53.296  1.00  0.00     0.170 C 
HETATM    4  N2  UNL     1      23.812   1.004  52.938  1.00  0.00    -0.277 N 
HETATM    5  C6  UNL     1      23.350   2.188  52.637  1.00  0.00     0.143 A 
HETATM    6  C7  UNL     1      24.283   3.102  52.361  1.00  0.00     0.075 A 
HETATM    7  C15 UNL     1      25.409   2.382  52.515  1.00  0.00     0.084 A 
HETATM    8  N7  UNL     1      25.043   1.200  52.841  1.00  0.00    -0.175 NA
HETATM    9  C16 UNL     1      26.863   2.237  52.529  1.00  0.00     0.091 C 
HETATM   10  C17 UNL     1      27.269   1.237  53.631  1.00  0.00     0.118 C 
ENDROOT
BRANCH   6  11
HETATM   11  N3  UNL     1      24.578   4.371  52.014  1.00  0.00    -0.343 N 
HETATM   12  H9  UNL     1      24.814   5.268  52.420  1.00  0.00     0.164 HD
BRANCH  11  13
HETATM   13  C8  UNL     1      24.524   4.385  50.574  1.00  0.00     0.363 A 
HETATM   14  N4  UNL     1      24.569   5.696  49.979  1.00  0.00    -0.213 NA
HETATM   15  C9  UNL     1      25.722   5.547  49.435  1.00  0.00     0.182 A 
HETATM   16  O2  UNL     1      25.790   4.274  49.951  1.00  0.00    -0.288 OA
BRANCH  15  17
HETATM   17  C10 UNL     1      26.591   6.390  48.609  1.00  0.00     0.072 A 
HETATM   18  C11 UNL     1      27.895   6.478  48.400  1.00  0.00     0.045 A 
HETATM   19  C12 UNL     1      27.670   7.578  47.459  1.00  0.00     0.062 A 
HETATM   20  C13 UNL     1      26.370   7.484  47.673  1.00  0.00     0.074 A 
BRANCH  18  21
HETATM   21  N5  UNL     1      29.100   5.845  48.832  1.00  0.00    -0.398 N 
HETATM   22  H11 UNL     1      29.135   5.109  49.598  1.00  0.00     0.156 HD
HETATM   23  H12 UNL     1      30.032   6.092  48.392  1.00  0.00     0.156 HD
ENDBRANCH  18  21
BRANCH  20  24
HETATM   24  N6  UNL     1      25.153   8.123  47.236  1.00  0.00    -0.271 NA
HETATM   25  C14 UNL     1      24.584   9.014  48.005  1.00  0.00     0.149 C 
ENDBRANCH  20  24
ENDBRANCH  15  17
ENDBRANCH  11  13
ENDBRANCH   6  11
BRANCH  10  26
HETATM   26  C18 UNL     1      28.722   1.128  53.695  1.00  0.00     0.247 C 
HETATM   27  F1  UNL     1      29.351   2.270  54.194  1.00  0.00    -0.253 F 
ENDBRANCH  10  26
BRANCH   1  28
HETATM   28  C3  UNL     1      27.567  -0.981  53.490  1.00  0.00     0.035 A 
HETATM   29  C2  UNL     1      27.568  -2.256  52.731  1.00  0.00     0.047 A 
HETATM   30  C1  UNL     1      28.815  -2.482  53.133  1.00  0.00     0.012 A 
HETATM   31  O1  UNL     1      28.639  -1.629  53.566  1.00  0.00     0.000 OA
ENDBRANCH   1  28
TORSDOF 7
ENDMDL
MODEL 4
REMARK VINA RESULT:      -7.7      4.375      8.408
REMARK  7 active torsions:
REMARK  status: ('A' for Active; 'I' for Inactive)
REMARK    1  A    between atoms: C3_3  and  N1_5 
REMARK    2  A    between atoms: C7_10  and  N3_11 
REMARK    3  A    between atoms: N3_11  and  C8_12 
REMARK    4  A    between atoms: C9_14  and  C10_15 
REMARK    5  A    between atoms: C11_16  and  N5_17 
REMARK    6  A    between atoms: C13_19  and  N6_20 
REMARK    7  A    between atoms: C17_26  and  C18_27 
ROOT
HETATM    1  N1  UNL     1      26.643   0.390  53.972  1.00  0.00    -0.373 N 
HETATM    2  C4  UNL     1      25.960  -0.681  54.729  1.00  0.00     0.145 C 
HETATM    3  C5  UNL     1      24.522  -0.888  54.527  1.00  0.00     0.170 C 
HETATM    4  N2  UNL     1      23.763  -0.107  53.654  1.00  0.00    -0.277 N 
HETATM    5  C6  UNL     1      22.823   0.492  52.974  1.00  0.00     0.143 A 
HETATM    6  C7  UNL     1      23.258   1.369  52.066  1.00  0.00     0.075 A 
HETATM    7  C15 UNL     1      24.591   1.277  52.230  1.00  0.00     0.084 A 
HETATM    8  N7  UNL     1      24.785   0.411  53.153  1.00  0.00    -0.175 NA
HETATM    9  C16 UNL     1      25.965   1.666  51.920  1.00  0.00     0.091 C 
HETATM   10  C17 UNL     1      26.815   1.618  53.207  1.00  0.00     0.118 C 
ENDROOT
BRANCH   6  11
HETATM   11  N3  UNL     1      22.962   2.267  51.105  1.00  0.00    -0.343 N 
HETATM   12  H9  UNL     1      22.911   2.361  50.099  1.00  0.00     0.164 HD
BRANCH  11  13
HETATM   13  C8  UNL     1      22.606   3.470  51.817  1.00  0.00     0.363 A 
HETATM   14  N4  UNL     1      23.659   4.447  51.916  1.00  0.00    -0.213 NA
HETATM   15  C9  UNL     1      23.089   5.321  51.167  1.00  0.00     0.182 A 
HETATM   16  O2  UNL     1      22.023   4.468  51.000  1.00  0.00    -0.288 OA
BRANCH  15  17
HETATM   17  C10 UNL     1      23.439   6.663  50.696  1.00  0.00     0.072 A 
HETATM   18  C11 UNL     1      24.563   7.348  50.555  1.00  0.00     0.045 A 
HETATM   19  C12 UNL     1      23.803   8.490  50.042  1.00  0.00     0.062 A 
HETATM   20  C13 UNL     1      22.686   7.801  50.186  1.00  0.00     0.074 A 
BRANCH  18  21
HETATM   21  N5  UNL     1      25.964   7.174  50.768  1.00  0.00    -0.398 N 
HETATM   22  H11 UNL     1      26.417   6.230  50.952  1.00  0.00     0.156 HD
HETATM   23  H12 UNL     1      26.624   8.003  50.751  1.00  0.00     0.156 HD
ENDBRANCH  18  21
BRANCH  20  24
HETATM   24  N6  UNL     1      21.270   7.977  49.970  1.00  0.00    -0.271 NA
HETATM   25  C14 UNL     1      20.680   7.313  49.011  1.00  0.00     0.149 C 
ENDBRANCH  20  24
ENDBRANCH  15  17
ENDBRANCH  11  13
ENDBRANCH   6  11
BRANCH  10  26
HETATM   26  C18 UNL     1      28.174   2.061  52.922  1.00  0.00     0.247 C 
HETATM   27  F1  UNL     1      28.699   2.925  53.886  1.00  0.00    -0.253 F 
ENDBRANCH  10  26
BRANCH   1  28
HETATM   28  C3  UNL     1      28.030  -0.073  54.038  1.00  0.00     0.035 A 
HETATM   29  C2  UNL     1      28.655  -1.216  53.327  1.00  0.00     0.047 A 
HETATM   30  C1  UNL     1      29.814  -0.932  53.913  1.00  0.00     0.012 A 
HETATM   31  O1  UNL     1      29.248  -0.237  54.289  1.00  0.00     0.000 OA
ENDBRANCH   1  28
TORSDOF 7
ENDMDL
MODEL 5
REMARK VINA RESULT:      -7.6      5.145      8.176
REMARK  7 active torsions:
REMARK  status: ('A' for Active; 'I' for Inactive)
REMARK    1  A    between atoms: C3_3  and  N1_5 
REMARK    2  A    between atoms: C7_10  and  N3_11 
REMARK    3  A    between atoms: N3_11  and  C8_12 
REMARK    4  A    between atoms: C9_14  and  C10_15 
REMARK    5  A    between atoms: C11_16  and  N5_17 
REMARK    6  A    between atoms: C13_19  and  N6_20 
REMARK    7  A    between atoms: C17_26  and  C18_27 
ROOT
HETATM    1  N1  UNL     1      26.381   0.041  53.364  1.00  0.00    -0.373 N 
HETATM    2  C4  UNL     1      25.128  -0.742  53.403  1.00  0.00     0.145 C 
HETATM    3  C5  UNL     1      23.875  -0.099  52.991  1.00  0.00     0.170 C 
HETATM    4  N2  UNL     1      23.812   1.229  52.569  1.00  0.00    -0.277 N 
HETATM    5  C6  UNL     1      23.459   2.432  52.203  1.00  0.00     0.143 A 
HETATM    6  C7  UNL     1      24.473   3.251  51.913  1.00  0.00     0.075 A 
HETATM    7  C15 UNL     1      25.530   2.447  52.130  1.00  0.00     0.084 A 
HETATM    8  N7  UNL     1      25.057   1.316  52.498  1.00  0.00    -0.175 NA
HETATM    9  C16 UNL     1      26.966   2.183  52.191  1.00  0.00     0.091 C 
HETATM   10  C17 UNL     1      27.258   1.205  53.348  1.00  0.00     0.118 C 
ENDROOT
BRANCH   6  11
HETATM   11  N3  UNL     1      24.882   4.474  51.518  1.00  0.00    -0.343 N 
HETATM   12  H9  UNL     1      25.098   5.392  51.884  1.00  0.00     0.164 HD
BRANCH  11  13
HETATM   13  C8  UNL     1      25.051   4.366  50.090  1.00  0.00     0.363 A 
HETATM   14  N4  UNL     1      25.082   5.623  49.389  1.00  0.00    -0.213 NA
HETATM   15  C9  UNL     1      26.314   5.540  49.037  1.00  0.00     0.182 A 
HETATM   16  O2  UNL     1      26.404   4.326  49.675  1.00  0.00    -0.288 OA
BRANCH  15  17
HETATM   17  C10 UNL     1      27.229   6.392  48.273  1.00  0.00     0.072 A 
HETATM   18  C11 UNL     1      27.110   7.507  47.569  1.00  0.00     0.045 A 
HETATM   19  C12 UNL     1      28.544   7.471  47.270  1.00  0.00     0.062 A 
HETATM   20  C13 UNL     1      28.654   6.358  47.973  1.00  0.00     0.074 A 
BRANCH  18  21
HETATM   21  N5  UNL     1      26.097   8.438  47.189  1.00  0.00    -0.398 N 
HETATM   22  H11 UNL     1      26.055   8.904  46.234  1.00  0.00     0.156 HD
HETATM   23  H12 UNL     1      25.326   8.709  47.864  1.00  0.00     0.156 HD
ENDBRANCH  18  21
BRANCH  20  24
HETATM   24  N6  UNL     1      29.678   5.418  48.358  1.00  0.00    -0.271 NA
HETATM   25  C14 UNL     1      30.874   5.856  48.651  1.00  0.00     0.149 C 
ENDBRANCH  20  24
ENDBRANCH  15  17
ENDBRANCH  11  13
ENDBRANCH   6  11
BRANCH  10  26
HETATM   26  C18 UNL     1      28.695   0.978  53.457  1.00  0.00     0.247 C 
HETATM   27  F1  UNL     1      29.198   1.163  54.747  1.00  0.00    -0.253 F 
ENDBRANCH  10  26
BRANCH   1  28
HETATM   28  C3  UNL     1      27.372  -1.035  53.314  1.00  0.00     0.035 A 
HETATM   29  C2  UNL     1      27.323  -2.298  52.539  1.00  0.00     0.047 A 
HETATM   30  C1  UNL     1      28.508  -2.638  53.038  1.00  0.00     0.012 A 
HETATM   31  O1  UNL     1      28.372  -1.776  53.467  1.00  0.00     0.000 OA
ENDBRANCH   1  28
TORSDOF 7
ENDMDL
MODEL 6
REMARK VINA RESULT:      -7.6      4.861      6.856
REMARK  7 active torsions:
REMARK  status: ('A' for Active; 'I' for Inactive)
REMARK    1  A    between atoms: C3_3  and  N1_5 
REMARK    2  A    between atoms: C7_10  and  N3_11 
REMARK    3  A    between atoms: N3_11  and  C8_12 
REMARK    4  A    between atoms: C9_14  and  C10_15 
REMARK    5  A    between atoms: C11_16  and  N5_17 
REMARK    6  A    between atoms: C13_19  and  N6_20 
REMARK    7  A    between atoms: C17_26  and  C18_27 
ROOT
HETATM    1  N1  UNL     1      23.596   0.118  52.622  1.00  0.00    -0.373 N 
HETATM    2  C4  UNL     1      24.739  -0.615  53.207  1.00  0.00     0.145 C 
HETATM    3  C5  UNL     1      26.084  -0.042  53.095  1.00  0.00     0.170 C 
HETATM    4  N2  UNL     1      26.336   1.169  52.450  1.00  0.00    -0.277 N 
HETATM    5  C6  UNL     1      26.856   2.216  51.867  1.00  0.00     0.143 A 
HETATM    6  C7  UNL     1      25.971   3.121  51.443  1.00  0.00     0.075 A 
HETATM    7  C15 UNL     1      24.812   2.548  51.815  1.00  0.00     0.084 A 
HETATM    8  N7  UNL     1      25.118   1.442  52.382  1.00  0.00    -0.175 NA
HETATM    9  C16 UNL     1      23.353   2.509  51.896  1.00  0.00     0.091 C 
HETATM   10  C17 UNL     1      22.871   1.049  51.767  1.00  0.00     0.118 C 
ENDROOT
BRANCH   6  11
HETATM   11  N3  UNL     1      25.741   4.301  50.832  1.00  0.00    -0.343 N 
HETATM   12  H9  UNL     1      25.367   5.225  51.011  1.00  0.00     0.164 HD
BRANCH  11  13
HETATM   13  C8  UNL     1      26.205   4.116  49.480  1.00  0.00     0.363 A 
HETATM   14  N4  UNL     1      26.361   5.331  48.723  1.00  0.00    -0.213 NA
HETATM   15  C9  UNL     1      27.641   5.262  48.639  1.00  0.00     0.182 A 
HETATM   16  O2  UNL     1      27.615   4.089  49.356  1.00  0.00    -0.288 OA
BRANCH  15  17
HETATM   17  C10 UNL     1      28.682   6.093  48.029  1.00  0.00     0.072 A 
HETATM   18  C11 UNL     1      28.696   7.188  47.285  1.00  0.00     0.045 A 
HETATM   19  C12 UNL     1      30.160   7.145  47.250  1.00  0.00     0.062 A 
HETATM   20  C13 UNL     1      30.138   6.052  47.992  1.00  0.00     0.074 A 
BRANCH  18  21
HETATM   21  N5  UNL     1      27.772   8.107  46.704  1.00  0.00    -0.398 N 
HETATM   22  H11 UNL     1      27.267   8.861  47.257  1.00  0.00     0.156 HD
HETATM   23  H12 UNL     1      27.546   8.071  45.669  1.00  0.00     0.156 HD
ENDBRANCH  18  21
BRANCH  20  24
HETATM   24  N6  UNL     1      31.072   5.124  48.580  1.00  0.00    -0.271 NA
HETATM   25  C14 UNL     1      32.006   4.594  47.835  1.00  0.00     0.149 C 
ENDBRANCH  20  24
ENDBRANCH  15  17
ENDBRANCH  11  13
ENDBRANCH   6  11
BRANCH  10  26
HETATM   26  C18 UNL     1      21.414   1.003  51.788  1.00  0.00     0.247 C 
HETATM   27  F1  UNL     1      20.856   0.339  50.693  1.00  0.00    -0.253 F 
ENDBRANCH  10  26
BRANCH   1  28
HETATM   28  C3  UNL     1      22.485  -0.462  53.378  1.00  0.00     0.035 A 
HETATM   29  C2  UNL     1      22.521  -1.140  54.697  1.00  0.00     0.047 A 
HETATM   30  C1  UNL     1      21.207  -1.325  54.626  1.00  0.00     0.012 A 
HETATM   31  O1  UNL     1      21.368  -0.863  53.786  1.00  0.00     0.000 OA
ENDBRANCH   1  28
TORSDOF 7
ENDMDL
MODEL 7
REMARK VINA RESULT:      -7.4      5.424      8.023
REMARK  7 active torsions:
REMARK  status: ('A' for Active; 'I' for Inactive)
REMARK    1  A    between atoms: C3_3  and  N1_5 
REMARK    2  A    between atoms: C7_10  and  N3_11 
REMARK    3  A    between atoms: N3_11  and  C8_12 
REMARK    4  A    between atoms: C9_14  and  C10_15 
REMARK    5  A    between atoms: C11_16  and  N5_17 
REMARK    6  A    between atoms: C13_19  and  N6_20 
REMARK    7  A    between atoms: C17_26  and  C18_27 
ROOT
HETATM    1  N1  UNL     1      25.997   7.223  49.397  1.00  0.00    -0.373 N 
HETATM    2  C4  UNL     1      25.036   8.152  50.029  1.00  0.00     0.145 C 
HETATM    3  C5  UNL     1      23.861   7.603  50.714  1.00  0.00     0.170 C 
HETATM    4  N2  UNL     1      23.604   6.234  50.790  1.00  0.00    -0.277 N 
HETATM    5  C6  UNL     1      23.096   5.042  50.956  1.00  0.00     0.143 A 
HETATM    6  C7  UNL     1      23.909   4.034  50.631  1.00  0.00     0.075 A 
HETATM    7  C15 UNL     1      25.008   4.701  50.232  1.00  0.00     0.084 A 
HETATM    8  N7  UNL     1      24.743   5.947  50.359  1.00  0.00    -0.175 NA
HETATM    9  C16 UNL     1      26.367   4.758  49.699  1.00  0.00     0.091 C 
HETATM   10  C17 UNL     1      26.511   6.000  48.795  1.00  0.00     0.118 C 
ENDROOT
BRANCH   6  11
HETATM   11  N3  UNL     1      24.102   2.704  50.529  1.00  0.00    -0.343 N 
HETATM   12  H9  UNL     1      23.962   1.930  49.891  1.00  0.00     0.164 HD
BRANCH  11  13
HETATM   13  C8  UNL     1      24.714   2.320  51.777  1.00  0.00     0.363 A 
HETATM   14  N4  UNL     1      23.795   2.133  52.869  1.00  0.00    -0.213 NA
HETATM   15  C9  UNL     1      23.975   0.866  52.968  1.00  0.00     0.182 A 
HETATM   16  O2  UNL     1      24.875   0.922  51.930  1.00  0.00    -0.288 OA
BRANCH  15  17
HETATM   17  C10 UNL     1      23.439  -0.189  53.833  1.00  0.00     0.072 A 
HETATM   18  C11 UNL     1      23.926  -0.955  54.796  1.00  0.00     0.045 A 
HETATM   19  C12 UNL     1      22.618  -1.597  54.947  1.00  0.00     0.062 A 
HETATM   20  C13 UNL     1      22.139  -0.830  53.984  1.00  0.00     0.074 A 
BRANCH  18  21
HETATM   21  N5  UNL     1      25.158  -1.166  55.484  1.00  0.00    -0.398 N 
HETATM   22  H11 UNL     1      25.911  -1.837  55.149  1.00  0.00     0.156 HD
HETATM   23  H12 UNL     1      25.376  -0.647  56.383  1.00  0.00     0.156 HD
ENDBRANCH  18  21
BRANCH  20  24
HETATM   24  N6  UNL     1      20.893  -0.616  53.290  1.00  0.00    -0.271 NA
HETATM   25  C14 UNL     1      20.225   0.488  53.496  1.00  0.00     0.149 C 
ENDBRANCH  20  24
ENDBRANCH  15  17
ENDBRANCH  11  13
ENDBRANCH   6  11
BRANCH  10  26
HETATM   26  C18 UNL     1      27.846   6.036  48.209  1.00  0.00     0.247 C 
HETATM   27  F1  UNL     1      28.465   4.786  48.138  1.00  0.00    -0.253 F 
ENDBRANCH  10  26
BRANCH   1  28
HETATM   28  C3  UNL     1      27.189   8.069  49.330  1.00  0.00     0.035 A 
HETATM   29  C2  UNL     1      27.563   9.207  50.205  1.00  0.00     0.047 A 
HETATM   30  C1  UNL     1      28.677   9.371  49.497  1.00  0.00     0.012 A 
HETATM   31  O1  UNL     1      28.279   8.616  49.032  1.00  0.00     0.000 OA
ENDBRANCH   1  28
TORSDOF 7
ENDMDL
MODEL 8
REMARK VINA RESULT:      -7.3      2.552      8.909
REMARK  7 active torsions:
REMARK  status: ('A' for Active; 'I' for Inactive)
REMARK    1  A    between atoms: C3_3  and  N1_5 
REMARK    2  A    between atoms: C7_10  and  N3_11 
REMARK    3  A    between atoms: N3_11  and  C8_12 
REMARK    4  A    between atoms: C9_14  and  C10_15 
REMARK    5  A    between atoms: C11_16  and  N5_17 
REMARK    6  A    between atoms: C13_19  and  N6_20 
REMARK    7  A    between atoms: C17_26  and  C18_27 
ROOT
HETATM    1  N1  UNL     1      26.087   0.893  52.536  1.00  0.00    -0.373 N 
HETATM    2  C4  UNL     1      26.920   1.758  51.672  1.00  0.00     0.145 C 
HETATM    3  C5  UNL     1      26.260   2.711  50.773  1.00  0.00     0.170 C 
HETATM    4  N2  UNL     1      24.873   2.832  50.690  1.00  0.00    -0.277 N 
HETATM    5  C6  UNL     1      23.637   3.107  50.369  1.00  0.00     0.143 A 
HETATM    6  C7  UNL     1      22.715   2.575  51.176  1.00  0.00     0.075 A 
HETATM    7  C15 UNL     1      23.488   1.921  52.061  1.00  0.00     0.084 A 
HETATM    8  N7  UNL     1      24.701   2.125  51.707  1.00  0.00    -0.175 NA
HETATM    9  C16 UNL     1      23.680   1.062  53.228  1.00  0.00     0.091 C 
HETATM   10  C17 UNL     1      24.916   0.166  53.008  1.00  0.00     0.118 C 
ENDROOT
BRANCH   6  11
HETATM   11  N3  UNL     1      21.411   2.412  51.476  1.00  0.00    -0.343 N 
HETATM   12  H9  UNL     1      20.649   2.865  51.963  1.00  0.00     0.164 HD
BRANCH  11  13
HETATM   13  C8  UNL     1      21.044   1.157  50.869  1.00  0.00     0.363 A 
HETATM   14  N4  UNL     1      20.208   0.313  51.683  1.00  0.00    -0.213 NA
HETATM   15  C9  UNL     1      19.170   0.406  50.934  1.00  0.00     0.182 A 
HETATM   16  O2  UNL     1      19.871   1.223  50.079  1.00  0.00    -0.288 OA
BRANCH  15  17
HETATM   17  C10 UNL     1      17.810  -0.140  50.982  1.00  0.00     0.072 A 
HETATM   18  C11 UNL     1      16.810  -0.250  50.122  1.00  0.00     0.045 A 
HETATM   19  C12 UNL     1      15.997  -0.902  51.152  1.00  0.00     0.062 A 
HETATM   20  C13 UNL     1      17.000  -0.788  52.004  1.00  0.00     0.074 A 
BRANCH  18  21
HETATM   21  N5  UNL     1      16.516   0.077  48.764  1.00  0.00    -0.398 N 
HETATM   22  H11 UNL     1      16.074  -0.605  48.078  1.00  0.00     0.156 HD
HETATM   23  H12 UNL     1      16.735   1.038  48.375  1.00  0.00     0.156 HD
ENDBRANCH  18  21
BRANCH  20  24
HETATM   24  N6  UNL     1      17.297  -1.119  53.376  1.00  0.00    -0.271 NA
HETATM   25  C14 UNL     1      17.906  -2.243  53.648  1.00  0.00     0.149 C 
ENDBRANCH  20  24
ENDBRANCH  15  17
ENDBRANCH  11  13
ENDBRANCH   6  11
BRANCH  10  26
HETATM   26  C18 UNL     1      25.084  -0.738  54.141  1.00  0.00     0.247 C 
HETATM   27  F1  UNL     1      23.922  -0.918  54.894  1.00  0.00    -0.253 F 
ENDBRANCH  10  26
BRANCH   1  28
HETATM   28  C3  UNL     1      27.053   0.537  53.576  1.00  0.00     0.035 A 
HETATM   29  C2  UNL     1      28.507   0.829  53.624  1.00  0.00     0.047 A 
HETATM   30  C1  UNL     1      28.582   0.206  54.796  1.00  0.00     0.012 A 
HETATM   31  O1  UNL     1      27.636   0.105  54.600  1.00  0.00     0.000 OA
ENDBRANCH   1  28
TORSDOF 7
ENDMDL
MODEL 9
REMARK VINA RESULT:      -7.2      2.960      8.477
REMARK  7 active torsions:
REMARK  status: ('A' for Active; 'I' for Inactive)
REMARK    1  A    between atoms: C3_3  and  N1_5 
REMARK    2  A    between atoms: C7_10  and  N3_11 
REMARK    3  A    between atoms: N3_11  and  C8_12 
REMARK    4  A    between atoms: C9_14  and  C10_15 
REMARK    5  A    between atoms: C11_16  and  N5_17 
REMARK    6  A    between atoms: C13_19  and  N6_20 
REMARK    7  A    between atoms: C17_26  and  C18_27 
ROOT
HETATM    1  N1  UNL     1      26.161   2.087  51.916  1.00  0.00    -0.373 N 
HETATM    2  C4  UNL     1      26.778   2.858  50.817  1.00  0.00     0.145 C 
HETATM    3  C5  UNL     1      25.994   3.910  50.159  1.00  0.00     0.170 C 
HETATM    4  N2  UNL     1      24.681   4.210  50.522  1.00  0.00    -0.277 N 
HETATM    5  C6  UNL     1      23.454   4.648  50.609  1.00  0.00     0.143 A 
HETATM    6  C7  UNL     1      22.778   4.219  51.678  1.00  0.00     0.075 A 
HETATM    7  C15 UNL     1      23.703   3.449  52.281  1.00  0.00     0.084 A 
HETATM    8  N7  UNL     1      24.754   3.506  51.553  1.00  0.00    -0.175 NA
HETATM    9  C16 UNL     1      24.145   2.545  53.340  1.00  0.00     0.091 C 
HETATM   10  C17 UNL     1      25.119   1.503  52.752  1.00  0.00     0.118 C 
ENDROOT
BRANCH   6  11
HETATM   11  N3  UNL     1      21.629   4.216  52.383  1.00  0.00    -0.343 N 
HETATM   12  H9  UNL     1      21.236   4.544  53.256  1.00  0.00     0.164 HD
BRANCH  11  13
HETATM   13  C8  UNL     1      20.691   3.492  51.562  1.00  0.00     0.363 A 
HETATM   14  N4  UNL     1      20.935   2.076  51.471  1.00  0.00    -0.213 NA
HETATM   15  C9  UNL     1      19.878   1.725  52.111  1.00  0.00     0.182 A 
HETATM   16  O2  UNL     1      19.541   3.050  52.260  1.00  0.00    -0.288 OA
BRANCH  15  17
HETATM   17  C10 UNL     1      19.289   0.444  52.508  1.00  0.00     0.072 A 
HETATM   18  C11 UNL     1      19.564  -0.476  53.420  1.00  0.00     0.045 A 
HETATM   19  C12 UNL     1      18.419  -1.269  52.964  1.00  0.00     0.062 A 
HETATM   20  C13 UNL     1      18.152  -0.347  52.057  1.00  0.00     0.074 A 
BRANCH  18  21
HETATM   21  N5  UNL     1      20.519  -0.716  54.453  1.00  0.00    -0.398 N 
HETATM   22  H11 UNL     1      20.361  -0.454  55.471  1.00  0.00     0.156 HD
HETATM   23  H12 UNL     1      21.449  -1.177  54.239  1.00  0.00     0.156 HD
ENDBRANCH  18  21
BRANCH  20  24
HETATM   24  N6  UNL     1      17.187  -0.104  51.012  1.00  0.00    -0.271 NA
HETATM   25  C14 UNL     1      16.135   0.627  51.269  1.00  0.00     0.149 C 
ENDBRANCH  20  24
ENDBRANCH  15  17
ENDBRANCH  11  13
ENDBRANCH   6  11
BRANCH  10  26
HETATM   26  C18 UNL     1      25.523   0.558  53.787  1.00  0.00     0.247 C 
HETATM   27  F1  UNL     1      25.297  -0.778  53.448  1.00  0.00    -0.253 F 
ENDBRANCH  10  26
BRANCH   1  28
HETATM   28  C3  UNL     1      27.355   1.584  52.598  1.00  0.00     0.035 A 
HETATM   29  C2  UNL     1      28.343   2.341  53.406  1.00  0.00     0.047 A 
HETATM   30  C1  UNL     1      29.017   1.214  53.616  1.00  0.00     0.012 A 
HETATM   31  O1  UNL     1      28.286   0.885  53.066  1.00  0.00     0.000 OA
ENDBRANCH   1  28
TORSDOF 7
ENDMDL
