MODEL 1
REMARK VINA RESULT:      -9.1      0.000      0.000
REMARK  5 active torsions:
REMARK  status: ('A' for Active; 'I' for Inactive)
REMARK    1  A    between atoms: C5_5  and  C6_6 
REMARK    2  A    between atoms: N2_8  and  C7_9 
REMARK    3  A    between atoms: C8_11  and  O1_12 
REMARK    4  A    between atoms: C10_15  and  C11_16 
REMARK    5  A    between atoms: C11_16  and  C12_17 
ROOT
HETATM    1  C6  UNL     1      25.755   2.376  51.699  1.00  0.00     0.067 A 
HETATM    2  N1  UNL     1      26.742   1.547  51.785  1.00  0.00    -0.174 NA
HETATM    3  N2  UNL     1      26.472   0.620  52.790  1.00  0.00    -0.240 N 
HETATM    4  C10 UNL     1      25.159   0.805  53.373  1.00  0.00     0.122 A 
HETATM    5  C16 UNL     1      24.683   2.047  52.701  1.00  0.00     0.089 A 
ENDROOT
BRANCH   1   6
HETATM    6  C5  UNL     1      25.677   3.498  50.750  1.00  0.00    -0.010 A 
HETATM    7  C4  UNL     1      24.546   4.289  50.823  1.00  0.00     0.014 A 
HETATM    8  C3  UNL     1      24.387   5.364  49.970  1.00  0.00     0.007 A 
HETATM    9  C2  UNL     1      25.387   5.620  49.048  1.00  0.00    -0.062 A 
HETATM   10  C1  UNL     1      25.256   6.756  48.121  1.00  0.00     0.048 C 
HETATM   11  C18 UNL     1      26.508   4.816  48.993  1.00  0.00     0.007 A 
HETATM   12  C17 UNL     1      26.682   3.730  49.846  1.00  0.00     0.014 A 
ENDBRANCH   1   6
BRANCH   3  13
HETATM   13  C7  UNL     1      27.498  -0.324  53.066  1.00  0.00     0.192 A 
HETATM   14  N3  UNL     1      27.689  -1.492  53.091  1.00  0.00    -0.198 NA
HETATM   15  C8  UNL     1      28.834  -2.073  53.410  1.00  0.00     0.171 A 
HETATM   16  C9  UNL     1      29.909  -1.284  53.744  1.00  0.00     0.111 A 
HETATM   17  S1  UNL     1      29.180   0.360  53.575  1.00  0.00    -0.058 SA
BRANCH  15  18
HETATM   18  O1  UNL     1      28.857  -3.483  53.379  1.00  0.00    -0.344 OA
HETATM   19  H6  UNL     1      28.400  -3.929  52.599  1.00  0.00     0.219 HD
ENDBRANCH  15  18
ENDBRANCH   3  13
BRANCH   4  20
HETATM   20  C11 UNL     1      24.332  -0.411  53.065  1.00  0.00     0.066 C 
BRANCH  20  21
HETATM   21  C12 UNL     1      23.051  -0.417  53.794  1.00  0.00    -0.056 A 
HETATM   22  C13 UNL     1      22.621  -1.051  54.895  1.00  0.00     0.007 A 
HETATM   23  C14 UNL     1      21.315  -0.436  54.799  1.00  0.00     0.001 A 
HETATM   24  C15 UNL     1      21.737   0.186  53.719  1.00  0.00     0.007 A 
ENDBRANCH  20  21
ENDBRANCH   4  20
TORSDOF 5
ENDMDL
MODEL 2
REMARK VINA RESULT:      -8.9      2.520      4.781
REMARK  5 active torsions:
REMARK  status: ('A' for Active; 'I' for Inactive)
REMARK    1  A    between atoms: C5_5  and  C6_6 
REMARK    2  A    between atoms: N2_8  and  C7_9 
REMARK    3  A    between atoms: C8_11  and  O1_12 
REMARK    4  A    between atoms: C10_15  and  C11_16 
REMARK    5  A    between atoms: C11_16  and  C12_17 
ROOT
HETATM    1  C6  UNL     1      25.559   2.313  51.261  1.00  0.00     0.067 A 
HETATM    2  N1  UNL     1      24.480   1.980  51.887  1.00  0.00    -0.174 NA
HETATM    3  N2  UNL     1      24.681   0.760  52.529  1.00  0.00    -0.240 N 
HETATM    4  C10 UNL     1      26.038   0.275  52.376  1.00  0.00     0.122 A 
HETATM    5  C16 UNL     1      26.634   1.277  51.448  1.00  0.00     0.089 A 
ENDROOT
BRANCH   1   6
HETATM    6  C5  UNL     1      25.731   3.541  50.467  1.00  0.00    -0.010 A 
HETATM    7  C4  UNL     1      26.839   3.592  49.643  1.00  0.00     0.014 A 
HETATM    8  C3  UNL     1      27.080   4.706  48.864  1.00  0.00     0.007 A 
HETATM    9  C2  UNL     1      26.185   5.759  48.933  1.00  0.00    -0.062 A 
HETATM   10  C1  UNL     1      26.405   6.965  48.117  1.00  0.00     0.048 C 
HETATM   11  C18 UNL     1      25.085   5.686  49.763  1.00  0.00     0.007 A 
HETATM   12  C17 UNL     1      24.828   4.569  50.556  1.00  0.00     0.014 A 
ENDBRANCH   1   6
BRANCH   3  13
HETATM   13  C7  UNL     1      23.558   0.213  53.206  1.00  0.00     0.192 A 
HETATM   14  N3  UNL     1      23.268  -0.668  53.941  1.00  0.00    -0.198 NA
HETATM   15  C8  UNL     1      22.054  -0.907  54.407  1.00  0.00     0.171 A 
HETATM   16  C9  UNL     1      21.021  -0.083  54.027  1.00  0.00     0.111 A 
HETATM   17  S1  UNL     1      21.899   1.071  52.947  1.00  0.00    -0.058 SA
BRANCH  15  18
HETATM   18  O1  UNL     1      21.916  -2.010  55.275  1.00  0.00    -0.344 OA
HETATM   19  H6  UNL     1      22.766  -2.417  55.634  1.00  0.00     0.219 HD
ENDBRANCH  15  18
ENDBRANCH   3  13
BRANCH   4  20
HETATM   20  C11 UNL     1      26.681   0.243  53.734  1.00  0.00     0.066 C 
BRANCH  20  21
HETATM   21  C12 UNL     1      28.088  -0.193  53.677  1.00  0.00    -0.056 A 
HETATM   22  C13 UNL     1      29.248   0.393  54.013  1.00  0.00     0.007 A 
HETATM   23  C14 UNL     1      30.008  -0.770  53.608  1.00  0.00     0.001 A 
HETATM   24  C15 UNL     1      28.871  -1.344  53.279  1.00  0.00     0.007 A 
ENDBRANCH  20  21
ENDBRANCH   4  20
TORSDOF 5
ENDMDL
MODEL 3
REMARK VINA RESULT:      -8.2      2.285      2.570
REMARK  5 active torsions:
REMARK  status: ('A' for Active; 'I' for Inactive)
REMARK    1  A    between atoms: C5_5  and  C6_6 
REMARK    2  A    between atoms: N2_8  and  C7_9 
REMARK    3  A    between atoms: C8_11  and  O1_12 
REMARK    4  A    between atoms: C10_15  and  C11_16 
REMARK    5  A    between atoms: C11_16  and  C12_17 
ROOT
HETATM    1  C6  UNL     1      24.309   2.596  51.289  1.00  0.00     0.067 A 
HETATM    2  N1  UNL     1      25.559   2.441  51.576  1.00  0.00    -0.174 NA
HETATM    3  N2  UNL     1      25.668   1.741  52.776  1.00  0.00    -0.240 N 
HETATM    4  C10 UNL     1      24.379   1.333  53.295  1.00  0.00     0.122 A 
HETATM    5  C16 UNL     1      23.431   1.973  52.340  1.00  0.00     0.089 A 
ENDROOT
BRANCH   1   6
HETATM    6  C5  UNL     1      23.797   3.287  50.095  1.00  0.00    -0.010 A 
HETATM    7  C4  UNL     1      22.960   2.558  49.272  1.00  0.00     0.014 A 
HETATM    8  C3  UNL     1      22.434   3.126  48.128  1.00  0.00     0.007 A 
HETATM    9  C2  UNL     1      22.769   4.436  47.835  1.00  0.00    -0.062 A 
HETATM   10  C1  UNL     1      22.227   5.078  46.626  1.00  0.00     0.048 C 
HETATM   11  C18 UNL     1      23.606   5.146  48.672  1.00  0.00     0.007 A 
HETATM   12  C17 UNL     1      24.144   4.587  49.828  1.00  0.00     0.014 A 
ENDBRANCH   1   6
BRANCH   3  13
HETATM   13  C7  UNL     1      26.985   1.551  53.275  1.00  0.00     0.192 A 
HETATM   14  N3  UNL     1      27.842   2.130  53.849  1.00  0.00    -0.198 NA
HETATM   15  C8  UNL     1      29.020   1.626  54.177  1.00  0.00     0.171 A 
HETATM   16  C9  UNL     1      29.303   0.324  53.838  1.00  0.00     0.111 A 
HETATM   17  S1  UNL     1      27.767  -0.144  53.010  1.00  0.00    -0.058 SA
BRANCH  15  18
HETATM   18  O1  UNL     1      29.906   2.482  54.863  1.00  0.00    -0.344 OA
HETATM   19  H6  UNL     1      30.884   2.235  54.846  1.00  0.00     0.219 HD
ENDBRANCH  15  18
ENDBRANCH   3  13
BRANCH   4  20
HETATM   20  C11 UNL     1      24.326  -0.170  53.292  1.00  0.00     0.066 C 
BRANCH  20  21
HETATM   21  C12 UNL     1      23.044  -0.686  53.806  1.00  0.00    -0.056 A 
HETATM   22  C13 UNL     1      22.644  -1.125  55.009  1.00  0.00     0.007 A 
HETATM   23  C14 UNL     1      21.308  -1.390  54.522  1.00  0.00     0.001 A 
HETATM   24  C15 UNL     1      21.700  -0.958  53.342  1.00  0.00     0.007 A 
ENDBRANCH  20  21
ENDBRANCH   4  20
TORSDOF 5
ENDMDL
MODEL 4
REMARK VINA RESULT:      -8.0      3.833      6.530
REMARK  5 active torsions:
REMARK  status: ('A' for Active; 'I' for Inactive)
REMARK    1  A    between atoms: C5_5  and  C6_6 
REMARK    2  A    between atoms: N2_8  and  C7_9 
REMARK    3  A    between atoms: C8_11  and  O1_12 
REMARK    4  A    between atoms: C10_15  and  C11_16 
REMARK    5  A    between atoms: C11_16  and  C12_17 
ROOT
HETATM    1  C6  UNL     1      25.356   1.363  52.382  1.00  0.00     0.067 A 
HETATM    2  N1  UNL     1      25.198   2.624  52.149  1.00  0.00    -0.174 NA
HETATM    3  N2  UNL     1      23.867   2.863  51.812  1.00  0.00    -0.240 N 
HETATM    4  C10 UNL     1      23.053   1.668  51.900  1.00  0.00     0.122 A 
HETATM    5  C16 UNL     1      24.062   0.615  52.209  1.00  0.00     0.089 A 
ENDROOT
BRANCH   1   6
HETATM    6  C5  UNL     1      26.626   0.729  52.768  1.00  0.00    -0.010 A 
HETATM    7  C4  UNL     1      26.673  -0.650  52.700  1.00  0.00     0.014 A 
HETATM    8  C3  UNL     1      27.824  -1.330  53.045  1.00  0.00     0.007 A 
HETATM    9  C2  UNL     1      28.920  -0.592  53.458  1.00  0.00    -0.062 A 
HETATM   10  C1  UNL     1      30.167  -1.279  53.834  1.00  0.00     0.048 C 
HETATM   11  C18 UNL     1      28.851   0.785  53.518  1.00  0.00     0.007 A 
HETATM   12  C17 UNL     1      27.697   1.484  53.174  1.00  0.00     0.014 A 
ENDBRANCH   1   6
BRANCH   3  13
HETATM   13  C7  UNL     1      23.540   4.197  51.450  1.00  0.00     0.192 A 
HETATM   14  N3  UNL     1      23.835   5.316  51.702  1.00  0.00    -0.198 NA
HETATM   15  C8  UNL     1      23.303   6.391  51.146  1.00  0.00     0.171 A 
HETATM   16  C9  UNL     1      22.324   6.232  50.193  1.00  0.00     0.111 A 
HETATM   17  S1  UNL     1      22.207   4.429  50.137  1.00  0.00    -0.058 SA
BRANCH  15  18
HETATM   18  O1  UNL     1      23.793   7.638  51.585  1.00  0.00    -0.344 OA
HETATM   19  H6  UNL     1      23.666   8.422  50.963  1.00  0.00     0.219 HD
ENDBRANCH  15  18
ENDBRANCH   3  13
BRANCH   4  20
HETATM   20  C11 UNL     1      22.033   1.872  52.985  1.00  0.00     0.066 C 
BRANCH  20  21
HETATM   21  C12 UNL     1      21.475   0.600  53.476  1.00  0.00    -0.056 A 
HETATM   22  C13 UNL     1      20.598  -0.279  52.967  1.00  0.00     0.007 A 
HETATM   23  C14 UNL     1      20.706  -1.134  54.129  1.00  0.00     0.001 A 
HETATM   24  C15 UNL     1      21.566  -0.272  54.628  1.00  0.00     0.007 A 
ENDBRANCH  20  21
ENDBRANCH   4  20
TORSDOF 5
ENDMDL
MODEL 5
REMARK VINA RESULT:      -7.8      5.933      9.394
REMARK  5 active torsions:
REMARK  status: ('A' for Active; 'I' for Inactive)
REMARK    1  A    between atoms: C5_5  and  C6_6 
REMARK    2  A    between atoms: N2_8  and  C7_9 
REMARK    3  A    between atoms: C8_11  and  O1_12 
REMARK    4  A    between atoms: C10_15  and  C11_16 
REMARK    5  A    between atoms: C11_16  and  C12_17 
ROOT
HETATM    1  C6  UNL     1      28.967   5.966  48.118  1.00  0.00     0.067 A 
HETATM    2  N1  UNL     1      29.963   5.144  48.102  1.00  0.00    -0.174 NA
HETATM    3  N2  UNL     1      31.111   5.824  47.697  1.00  0.00    -0.240 N 
HETATM    4  C10 UNL     1      30.871   7.239  47.498  1.00  0.00     0.122 A 
HETATM    5  C16 UNL     1      29.398   7.346  47.702  1.00  0.00     0.089 A 
ENDROOT
BRANCH   1   6
HETATM    6  C5  UNL     1      27.589   5.614  48.495  1.00  0.00    -0.010 A 
HETATM    7  C4  UNL     1      27.392   4.340  48.992  1.00  0.00     0.014 A 
HETATM    8  C3  UNL     1      26.131   3.923  49.370  1.00  0.00     0.007 A 
HETATM    9  C2  UNL     1      25.080   4.815  49.236  1.00  0.00    -0.062 A 
HETATM   10  C1  UNL     1      23.720   4.409  49.629  1.00  0.00     0.048 C 
HETATM   11  C18 UNL     1      25.301   6.083  48.738  1.00  0.00     0.007 A 
HETATM   12  C17 UNL     1      26.566   6.517  48.352  1.00  0.00     0.014 A 
ENDBRANCH   1   6
BRANCH   3  13
HETATM   13  C7  UNL     1      32.287   5.041  47.553  1.00  0.00     0.192 A 
HETATM   14  N3  UNL     1      33.128   4.519  48.202  1.00  0.00    -0.198 NA
HETATM   15  C8  UNL     1      34.144   3.823  47.720  1.00  0.00     0.171 A 
HETATM   16  C9  UNL     1      34.263   3.675  46.359  1.00  0.00     0.111 A 
HETATM   17  S1  UNL     1      32.817   4.602  45.798  1.00  0.00    -0.058 SA
BRANCH  15  18
HETATM   18  O1  UNL     1      35.041   3.278  48.663  1.00  0.00    -0.344 OA
HETATM   19  H6  UNL     1      35.991   3.135  48.357  1.00  0.00     0.219 HD
ENDBRANCH  15  18
ENDBRANCH   3  13
BRANCH   4  20
HETATM   20  C11 UNL     1      31.683   8.000  48.508  1.00  0.00     0.066 C 
BRANCH  20  21
HETATM   21  C12 UNL     1      31.365   9.439  48.514  1.00  0.00    -0.056 A 
HETATM   22  C13 UNL     1      31.675  10.454  47.693  1.00  0.00     0.007 A 
HETATM   23  C14 UNL     1      30.939  11.399  48.505  1.00  0.00     0.001 A 
HETATM   24  C15 UNL     1      30.635  10.404  49.309  1.00  0.00     0.007 A 
ENDBRANCH  20  21
ENDBRANCH   4  20
TORSDOF 5
ENDMDL
MODEL 6
REMARK VINA RESULT:      -7.7      2.141      2.831
REMARK  5 active torsions:
REMARK  status: ('A' for Active; 'I' for Inactive)
REMARK    1  A    between atoms: C5_5  and  C6_6 
REMARK    2  A    between atoms: N2_8  and  C7_9 
REMARK    3  A    between atoms: C8_11  and  O1_12 
REMARK    4  A    between atoms: C10_15  and  C11_16 
REMARK    5  A    between atoms: C11_16  and  C12_17 
ROOT
HETATM    1  C6  UNL     1      25.291   3.713  50.474  1.00  0.00     0.067 A 
HETATM    2  N1  UNL     1      25.796   2.713  51.117  1.00  0.00    -0.174 NA
HETATM    3  N2  UNL     1      24.775   2.032  51.778  1.00  0.00    -0.240 N 
HETATM    4  C10 UNL     1      23.468   2.585  51.490  1.00  0.00     0.122 A 
HETATM    5  C16 UNL     1      23.800   3.782  50.667  1.00  0.00     0.089 A 
ENDROOT
BRANCH   1   6
HETATM    6  C5  UNL     1      26.059   4.665  49.656  1.00  0.00    -0.010 A 
HETATM    7  C4  UNL     1      25.473   5.896  49.431  1.00  0.00     0.014 A 
HETATM    8  C3  UNL     1      26.122   6.851  48.673  1.00  0.00     0.007 A 
HETATM    9  C2  UNL     1      27.365   6.539  48.152  1.00  0.00    -0.062 A 
HETATM   10  C1  UNL     1      28.090   7.531  47.340  1.00  0.00     0.048 C 
HETATM   11  C18 UNL     1      27.931   5.303  48.391  1.00  0.00     0.007 A 
HETATM   12  C17 UNL     1      27.289   4.330  49.152  1.00  0.00     0.014 A 
ENDBRANCH   1   6
BRANCH   3  13
HETATM   13  C7  UNL     1      25.175   0.942  52.597  1.00  0.00     0.192 A 
HETATM   14  N3  UNL     1      24.870   0.383  53.595  1.00  0.00    -0.198 NA
HETATM   15  C8  UNL     1      25.495  -0.664  54.107  1.00  0.00     0.171 A 
HETATM   16  C9  UNL     1      26.593  -1.169  53.451  1.00  0.00     0.111 A 
HETATM   17  S1  UNL     1      26.682  -0.044  52.039  1.00  0.00    -0.058 SA
BRANCH  15  18
HETATM   18  O1  UNL     1      24.973  -1.187  55.308  1.00  0.00    -0.344 OA
HETATM   19  H6  UNL     1      24.910  -0.555  56.091  1.00  0.00     0.219 HD
ENDBRANCH  15  18
ENDBRANCH   3  13
BRANCH   4  20
HETATM   20  C11 UNL     1      22.668   1.545  50.758  1.00  0.00     0.066 C 
BRANCH  20  21
HETATM   21  C12 UNL     1      21.574   0.997  51.580  1.00  0.00    -0.056 A 
HETATM   22  C13 UNL     1      21.296   1.043  52.892  1.00  0.00     0.007 A 
HETATM   23  C14 UNL     1      20.092   0.261  52.714  1.00  0.00     0.001 A 
HETATM   24  C15 UNL     1      20.364   0.216  51.427  1.00  0.00     0.007 A 
ENDBRANCH  20  21
ENDBRANCH   4  20
TORSDOF 5
ENDMDL
MODEL 7
REMARK VINA RESULT:      -7.6      3.578      6.941
REMARK  5 active torsions:
REMARK  status: ('A' for Active; 'I' for Inactive)
REMARK    1  A    between atoms: C5_5  and  C6_6 
REMARK    2  A    between atoms: N2_8  and  C7_9 
REMARK    3  A    between atoms: C8_11  and  O1_12 
REMARK    4  A    between atoms: C10_15  and  C11_16 
REMARK    5  A    between atoms: C11_16  and  C12_17 
ROOT
HETATM    1  C6  UNL     1      24.855   1.108  52.991  1.00  0.00     0.067 A 
HETATM    2  N1  UNL     1      23.756   0.442  52.867  1.00  0.00    -0.174 NA
HETATM    3  N2  UNL     1      22.693   1.334  52.737  1.00  0.00    -0.240 N 
HETATM    4  C10 UNL     1      23.134   2.713  52.698  1.00  0.00     0.122 A 
HETATM    5  C16 UNL     1      24.598   2.589  52.950  1.00  0.00     0.089 A 
ENDROOT
BRANCH   1   6
HETATM    6  C5  UNL     1      26.191   0.510  53.150  1.00  0.00    -0.010 A 
HETATM    7  C4  UNL     1      27.185   1.341  53.628  1.00  0.00     0.014 A 
HETATM    8  C3  UNL     1      28.469   0.865  53.808  1.00  0.00     0.007 A 
HETATM    9  C2  UNL     1      28.725  -0.458  53.496  1.00  0.00    -0.062 A 
HETATM   10  C1  UNL     1      30.081  -1.005  53.675  1.00  0.00     0.048 C 
HETATM   11  C18 UNL     1      27.716  -1.271  53.021  1.00  0.00     0.007 A 
HETATM   12  C17 UNL     1      26.417  -0.805  52.834  1.00  0.00     0.014 A 
ENDBRANCH   1   6
BRANCH   3  13
HETATM   13  C7  UNL     1      21.396   0.760  52.665  1.00  0.00     0.192 A 
HETATM   14  N3  UNL     1      20.591   0.221  53.346  1.00  0.00    -0.198 NA
HETATM   15  C8  UNL     1      19.411  -0.213  52.936  1.00  0.00     0.171 A 
HETATM   16  C9  UNL     1      19.058  -0.039  51.619  1.00  0.00     0.111 A 
HETATM   17  S1  UNL     1      20.533   0.792  50.989  1.00  0.00    -0.058 SA
BRANCH  15  18
HETATM   18  O1  UNL     1      18.593  -0.831  53.906  1.00  0.00    -0.344 OA
HETATM   19  H6  UNL     1      18.043  -1.619  53.602  1.00  0.00     0.219 HD
ENDBRANCH  15  18
ENDBRANCH   3  13
BRANCH   4  20
HETATM   20  C11 UNL     1      22.794   3.278  51.347  1.00  0.00     0.066 C 
BRANCH  20  21
HETATM   21  C12 UNL     1      23.987   3.740  50.616  1.00  0.00    -0.056 A 
HETATM   22  C13 UNL     1      24.606   4.927  50.519  1.00  0.00     0.007 A 
HETATM   23  C14 UNL     1      25.610   4.385  49.629  1.00  0.00     0.001 A 
HETATM   24  C15 UNL     1      25.004   3.221  49.725  1.00  0.00     0.007 A 
ENDBRANCH  20  21
ENDBRANCH   4  20
TORSDOF 5
ENDMDL
MODEL 8
REMARK VINA RESULT:      -7.5      3.851      5.598
REMARK  5 active torsions:
REMARK  status: ('A' for Active; 'I' for Inactive)
REMARK    1  A    between atoms: C5_5  and  C6_6 
REMARK    2  A    between atoms: N2_8  and  C7_9 
REMARK    3  A    between atoms: C8_11  and  O1_12 
REMARK    4  A    between atoms: C10_15  and  C11_16 
REMARK    5  A    between atoms: C11_16  and  C12_17 
ROOT
HETATM    1  C6  UNL     1      25.966   4.304  49.729  1.00  0.00     0.067 A 
HETATM    2  N1  UNL     1      24.759   4.439  50.168  1.00  0.00    -0.174 NA
HETATM    3  N2  UNL     1      24.395   3.289  50.865  1.00  0.00    -0.240 N 
HETATM    4  C10 UNL     1      25.482   2.336  50.960  1.00  0.00     0.122 A 
HETATM    5  C16 UNL     1      26.539   2.970  50.123  1.00  0.00     0.089 A 
ENDROOT
BRANCH   1   6
HETATM    6  C5  UNL     1      26.697   5.314  48.946  1.00  0.00    -0.010 A 
HETATM    7  C4  UNL     1      25.975   6.420  48.539  1.00  0.00     0.014 A 
HETATM    8  C3  UNL     1      26.580   7.417  47.799  1.00  0.00     0.007 A 
HETATM    9  C2  UNL     1      27.919   7.274  47.482  1.00  0.00    -0.062 A 
HETATM   10  C1  UNL     1      28.602   8.316  46.696  1.00  0.00     0.048 C 
HETATM   11  C18 UNL     1      28.621   6.161  47.899  1.00  0.00     0.007 A 
HETATM   12  C17 UNL     1      28.025   5.148  48.645  1.00  0.00     0.014 A 
ENDBRANCH   1   6
BRANCH   3  13
HETATM   13  C7  UNL     1      23.062   3.245  51.353  1.00  0.00     0.192 A 
HETATM   14  N3  UNL     1      22.335   2.553  51.981  1.00  0.00    -0.198 NA
HETATM   15  C8  UNL     1      21.075   2.830  52.270  1.00  0.00     0.171 A 
HETATM   16  C9  UNL     1      20.533   4.010  51.820  1.00  0.00     0.111 A 
HETATM   17  S1  UNL     1      21.950   4.713  50.945  1.00  0.00    -0.058 SA
BRANCH  15  18
HETATM   18  O1  UNL     1      20.376   1.871  53.033  1.00  0.00    -0.344 OA
HETATM   19  H6  UNL     1      19.373   1.967  53.077  1.00  0.00     0.219 HD
ENDBRANCH  15  18
ENDBRANCH   3  13
BRANCH   4  20
HETATM   20  C11 UNL     1      25.856   2.191  52.408  1.00  0.00     0.066 C 
BRANCH  20  21
HETATM   21  C12 UNL     1      26.574   0.932  52.679  1.00  0.00    -0.056 A 
HETATM   22  C13 UNL     1      26.683  -0.227  52.012  1.00  0.00     0.007 A 
HETATM   23  C14 UNL     1      27.546  -0.787  53.031  1.00  0.00     0.001 A 
HETATM   24  C15 UNL     1      27.438   0.350  53.684  1.00  0.00     0.007 A 
ENDBRANCH  20  21
ENDBRANCH   4  20
TORSDOF 5
ENDMDL
MODEL 9
REMARK VINA RESULT:      -7.4      4.362      5.727
REMARK  5 active torsions:
REMARK  status: ('A' for Active; 'I' for Inactive)
REMARK    1  A    between atoms: C5_5  and  C6_6 
REMARK    2  A    between atoms: N2_8  and  C7_9 
REMARK    3  A    between atoms: C8_11  and  O1_12 
REMARK    4  A    between atoms: C10_15  and  C11_16 
REMARK    5  A    between atoms: C11_16  and  C12_17 
ROOT
HETATM    1  C6  UNL     1      24.826   3.612  49.815  1.00  0.00     0.067 A 
HETATM    2  N1  UNL     1      23.570   3.631  49.514  1.00  0.00    -0.174 NA
HETATM    3  N2  UNL     1      22.916   2.621  50.217  1.00  0.00    -0.240 N 
HETATM    4  C10 UNL     1      23.803   1.915  51.119  1.00  0.00     0.122 A 
HETATM    5  C16 UNL     1      25.128   2.519  50.804  1.00  0.00     0.089 A 
ENDROOT
BRANCH   1   6
HETATM    6  C5  UNL     1      25.838   4.532  49.271  1.00  0.00    -0.010 A 
HETATM    7  C4  UNL     1      25.406   5.807  48.956  1.00  0.00     0.014 A 
HETATM    8  C3  UNL     1      26.287   6.736  48.440  1.00  0.00     0.007 A 
HETATM    9  C2  UNL     1      27.604   6.353  48.249  1.00  0.00    -0.062 A 
HETATM   10  C1  UNL     1      28.575   7.315  47.701  1.00  0.00     0.048 C 
HETATM   11  C18 UNL     1      28.012   5.075  48.570  1.00  0.00     0.007 A 
HETATM   12  C17 UNL     1      27.135   4.127  49.091  1.00  0.00     0.014 A 
ENDBRANCH   1   6
BRANCH   3  13
HETATM   13  C7  UNL     1      21.532   2.457  49.941  1.00  0.00     0.192 A 
HETATM   14  N3  UNL     1      20.689   1.626  49.930  1.00  0.00    -0.198 NA
HETATM   15  C8  UNL     1      19.424   1.824  49.604  1.00  0.00     0.171 A 
HETATM   16  C9  UNL     1      19.020   3.088  49.241  1.00  0.00     0.111 A 
HETATM   17  S1  UNL     1      20.578   3.990  49.396  1.00  0.00    -0.058 SA
BRANCH  15  18
HETATM   18  O1  UNL     1      18.573   0.700  49.655  1.00  0.00    -0.344 OA
HETATM   19  H6  UNL     1      17.822   0.666  48.983  1.00  0.00     0.219 HD
ENDBRANCH  15  18
ENDBRANCH   3  13
BRANCH   4  20
HETATM   20  C11 UNL     1      23.338   2.164  52.526  1.00  0.00     0.066 C 
BRANCH  20  21
HETATM   21  C12 UNL     1      22.920   0.925  53.206  1.00  0.00    -0.056 A 
HETATM   22  C13 UNL     1      23.580  -0.169  53.616  1.00  0.00     0.007 A 
HETATM   23  C14 UNL     1      22.367  -0.767  54.132  1.00  0.00     0.001 A 
HETATM   24  C15 UNL     1      21.720   0.306  53.730  1.00  0.00     0.007 A 
ENDBRANCH  20  21
ENDBRANCH   4  20
TORSDOF 5
ENDMDL
