MODEL 1
REMARK VINA RESULT:      -8.8      0.000      0.000
REMARK  4 active torsions:
REMARK  status: ('A' for Active; 'I' for Inactive)
REMARK    1  A    between atoms: C3_4  and  C4_6 
REMARK    2  A    between atoms: C7_10  and  N3_11 
REMARK    3  A    between atoms: N3_11  and  C8_12 
REMARK    4  A    between atoms: C20_27  and  P1_28 
ROOT
HETATM    1  C4  UNL     1      22.157   3.075  50.695  1.00  0.00    -0.028 C 
HETATM    2  C5  UNL     1      22.869   2.250  51.437  1.00  0.00    -0.006 A 
HETATM    3  C6  UNL     1      24.196   2.549  51.900  1.00  0.00     0.146 A 
HETATM    4  N2  UNL     1      24.868   1.772  52.663  1.00  0.00    -0.075 NA
HETATM    5  C7  UNL     1      24.302   0.544  53.084  1.00  0.00     0.722 A 
HETATM    6  N4  UNL     1      23.123   0.204  52.704  1.00  0.00    -0.095 NA
HETATM    7  C14 UNL     1      22.253   0.949  51.855  1.00  0.00     0.167 A 
HETATM    8  C15 UNL     1      20.923   1.190  52.485  1.00  0.00     0.084 C 
HETATM    9  C16 UNL     1      19.990   0.080  52.521  1.00  0.00     0.014 C 
HETATM   10 CL1  UNL     1      19.962  -1.126  53.772  1.00  0.00    -0.089 Cl
HETATM   11  C17 UNL     1      19.248   0.224  51.453  1.00  0.00     0.019 C 
HETATM   12  C18 UNL     1      19.209   1.177  50.364  1.00  0.00    -0.002 C 
HETATM   13  C19 UNL     1      19.896   2.266  49.976  1.00  0.00    -0.013 C 
HETATM   14  C20 UNL     1      20.887   3.321  49.980  1.00  0.00     0.065 C 
ENDROOT
BRANCH   5  15
HETATM   15  N3  UNL     1      25.015  -0.341  53.935  1.00  0.00    -0.189 N 
HETATM   16  H6  UNL     1      24.461  -0.950  54.583  1.00  0.00     0.184 HD
BRANCH  15  17
HETATM   17  C8  UNL     1      26.427  -0.427  53.947  1.00  0.00     0.049 A 
HETATM   18  C9  UNL     1      27.292   0.257  54.764  1.00  0.00     0.033 A 
HETATM   19  C10 UNL     1      28.649   0.163  54.758  1.00  0.00     0.044 A 
HETATM   20  C11 UNL     1      29.248  -0.689  53.858  1.00  0.00     0.116 A 
HETATM   21  F1  UNL     1      30.596  -0.811  53.820  1.00  0.00    -0.206 F 
HETATM   22  C12 UNL     1      28.448  -1.409  53.006  1.00  0.00     0.044 A 
HETATM   23  C13 UNL     1      27.065  -1.278  53.052  1.00  0.00     0.033 A 
ENDBRANCH  15  17
ENDBRANCH   5  15
BRANCH   1  24
HETATM   24  C3  UNL     1      22.895   4.333  50.411  1.00  0.00    -0.015 A 
HETATM   25  C2  UNL     1      23.751   5.363  49.896  1.00  0.00     0.164 A 
HETATM   26  N1  UNL     1      23.326   6.214  50.741  1.00  0.00    -0.322 N 
HETATM   27  O1  UNL     1      22.844   5.488  50.972  1.00  0.00     0.000 OA
HETATM   28  C1  UNL     1      23.737   7.582  50.873  1.00  0.00     0.171 C 
ENDBRANCH   1  24
BRANCH  14  29
HETATM   29  P1  UNL     1      21.284   3.776  48.180  1.00  0.00    -0.128 P 
HETATM   30  H18 UNL     1      21.207   2.529  47.420  1.00  0.00     0.055 HD
HETATM   31  H19 UNL     1      20.139   4.570  47.721  1.00  0.00     0.055 HD
ENDBRANCH  14  29
TORSDOF 4
ENDMDL
MODEL 2
REMARK VINA RESULT:      -8.6      2.529      4.432
REMARK  4 active torsions:
REMARK  status: ('A' for Active; 'I' for Inactive)
REMARK    1  A    between atoms: C3_4  and  C4_6 
REMARK    2  A    between atoms: C7_10  and  N3_11 
REMARK    3  A    between atoms: N3_11  and  C8_12 
REMARK    4  A    between atoms: C20_27  and  P1_28 
ROOT
HETATM    1  C4  UNL     1      20.753   1.917  51.236  1.00  0.00    -0.028 C 
HETATM    2  C5  UNL     1      21.616   1.296  52.017  1.00  0.00    -0.006 A 
HETATM    3  C6  UNL     1      21.299   0.105  52.755  1.00  0.00     0.146 A 
HETATM    4  N2  UNL     1      22.150  -0.527  53.472  1.00  0.00    -0.075 NA
HETATM    5  C7  UNL     1      23.479  -0.048  53.564  1.00  0.00     0.722 A 
HETATM    6  N4  UNL     1      23.835   1.015  52.939  1.00  0.00    -0.095 NA
HETATM    7  C14 UNL     1      23.012   1.833  52.111  1.00  0.00     0.167 A 
HETATM    8  C15 UNL     1      23.587   2.009  50.745  1.00  0.00     0.084 C 
HETATM    9  C16 UNL     1      24.699   2.929  50.603  1.00  0.00     0.014 C 
HETATM   10 CL1  UNL     1      26.362   2.490  50.854  1.00  0.00    -0.089 Cl
HETATM   11  C17 UNL     1      24.157   4.071  50.266  1.00  0.00     0.019 C 
HETATM   12  C18 UNL     1      22.799   4.526  50.050  1.00  0.00    -0.002 C 
HETATM   13  C19 UNL     1      21.560   4.010  50.117  1.00  0.00    -0.013 C 
HETATM   14  C20 UNL     1      20.495   3.050  50.323  1.00  0.00     0.065 C 
ENDROOT
BRANCH   5  15
HETATM   15  N3  UNL     1      24.452  -0.726  54.345  1.00  0.00    -0.189 N 
HETATM   16  H6  UNL     1      24.115  -1.328  55.133  1.00  0.00     0.184 HD
BRANCH  15  17
HETATM   17  C8  UNL     1      25.843  -0.619  54.107  1.00  0.00     0.049 A 
HETATM   18  C9  UNL     1      26.560  -1.218  53.102  1.00  0.00     0.033 A 
HETATM   19  C10 UNL     1      27.899  -1.107  52.892  1.00  0.00     0.044 A 
HETATM   20  C11 UNL     1      28.640  -0.326  53.750  1.00  0.00     0.116 A 
HETATM   21  F1  UNL     1      29.975  -0.189  53.577  1.00  0.00    -0.206 F 
HETATM   22  C12 UNL     1      27.992   0.306  54.782  1.00  0.00     0.044 A 
HETATM   23  C13 UNL     1      26.621   0.160  54.954  1.00  0.00     0.033 A 
ENDBRANCH  15  17
ENDBRANCH   5  15
BRANCH   1  24
HETATM   24  C3  UNL     1      19.435   1.230  51.221  1.00  0.00    -0.015 A 
HETATM   25  C2  UNL     1      18.174   0.625  51.537  1.00  0.00     0.164 A 
HETATM   26  N1  UNL     1      17.954   0.321  50.320  1.00  0.00    -0.322 N 
HETATM   27  O1  UNL     1      18.757   0.725  50.253  1.00  0.00     0.000 OA
HETATM   28  C1  UNL     1      16.805  -0.358  49.792  1.00  0.00     0.171 C 
ENDBRANCH   1  24
BRANCH  14  29
HETATM   29  P1  UNL     1      18.958   3.982  50.933  1.00  0.00    -0.128 P 
HETATM   30  H18 UNL     1      19.055   4.012  52.392  1.00  0.00     0.055 HD
HETATM   31  H19 UNL     1      19.157   5.373  50.512  1.00  0.00     0.055 HD
ENDBRANCH  14  29
TORSDOF 4
ENDMDL
MODEL 3
REMARK VINA RESULT:      -8.3      4.028      6.794
REMARK  4 active torsions:
REMARK  status: ('A' for Active; 'I' for Inactive)
REMARK    1  A    between atoms: C3_4  and  C4_6 
REMARK    2  A    between atoms: C7_10  and  N3_11 
REMARK    3  A    between atoms: N3_11  and  C8_12 
REMARK    4  A    between atoms: C20_27  and  P1_28 
ROOT
HETATM    1  C4  UNL     1      25.240   0.354  52.938  1.00  0.00    -0.028 C 
HETATM    2  C5  UNL     1      25.251   1.408  52.147  1.00  0.00    -0.006 A 
HETATM    3  C6  UNL     1      26.455   1.990  51.622  1.00  0.00     0.146 A 
HETATM    4  N2  UNL     1      26.464   2.981  50.813  1.00  0.00    -0.075 NA
HETATM    5  C7  UNL     1      25.239   3.558  50.400  1.00  0.00     0.722 A 
HETATM    6  N4  UNL     1      24.121   3.098  50.834  1.00  0.00    -0.095 NA
HETATM    7  C14 UNL     1      23.941   2.012  51.738  1.00  0.00     0.167 A 
HETATM    8  C15 UNL     1      23.044   0.958  51.180  1.00  0.00     0.084 C 
HETATM    9  C16 UNL     1      21.619   1.231  51.173  1.00  0.00     0.014 C 
HETATM   10 CL1  UNL     1      20.801   2.092  49.904  1.00  0.00    -0.089 Cl
HETATM   11  C17 UNL     1      21.164   0.701  52.279  1.00  0.00     0.019 C 
HETATM   12  C18 UNL     1      21.766  -0.014  53.385  1.00  0.00    -0.002 C 
HETATM   13  C19 UNL     1      22.996  -0.409  53.756  1.00  0.00    -0.013 C 
HETATM   14  C20 UNL     1      24.430  -0.604  53.721  1.00  0.00     0.065 C 
ENDROOT
BRANCH   5  15
HETATM   15  N3  UNL     1      25.210   4.655  49.499  1.00  0.00    -0.189 N 
HETATM   16  H6  UNL     1      24.279   4.959  49.127  1.00  0.00     0.184 HD
BRANCH  15  17
HETATM   17  C8  UNL     1      26.375   5.342  49.083  1.00  0.00     0.049 A 
HETATM   18  C9  UNL     1      27.551   4.789  48.642  1.00  0.00     0.033 A 
HETATM   19  C10 UNL     1      28.663   5.467  48.250  1.00  0.00     0.044 A 
HETATM   20  C11 UNL     1      28.645   6.842  48.287  1.00  0.00     0.116 A 
HETATM   21  F1  UNL     1      29.731   7.555  47.906  1.00  0.00    -0.206 F 
HETATM   22  C12 UNL     1      27.503   7.470  48.718  1.00  0.00     0.044 A 
HETATM   23  C13 UNL     1      26.392   6.731  49.108  1.00  0.00     0.033 A 
ENDBRANCH  15  17
ENDBRANCH   5  15
BRANCH   1  24
HETATM   24  C3  UNL     1      26.614  -0.144  53.207  1.00  0.00    -0.015 A 
HETATM   25  C2  UNL     1      27.975  -0.329  53.618  1.00  0.00     0.164 A 
HETATM   26  N1  UNL     1      28.034  -1.488  53.094  1.00  0.00    -0.322 N 
HETATM   27  O1  UNL     1      27.187  -1.251  52.893  1.00  0.00     0.000 OA
HETATM   28  C1  UNL     1      29.159  -2.379  53.086  1.00  0.00     0.171 C 
ENDBRANCH   1  24
BRANCH  14  29
HETATM   29  P1  UNL     1      25.076  -0.625  55.506  1.00  0.00    -0.128 P 
HETATM   30  H18 UNL     1      25.062  -2.026  55.925  1.00  0.00     0.055 HD
HETATM   31  H19 UNL     1      26.497  -0.274  55.407  1.00  0.00     0.055 HD
ENDBRANCH  14  29
TORSDOF 4
ENDMDL
MODEL 4
REMARK VINA RESULT:      -8.3      4.014      7.143
REMARK  4 active torsions:
REMARK  status: ('A' for Active; 'I' for Inactive)
REMARK    1  A    between atoms: C3_4  and  C4_6 
REMARK    2  A    between atoms: C7_10  and  N3_11 
REMARK    3  A    between atoms: N3_11  and  C8_12 
REMARK    4  A    between atoms: C20_27  and  P1_28 
ROOT
HETATM    1  C4  UNL     1      24.754   0.095  53.839  1.00  0.00    -0.028 C 
HETATM    2  C5  UNL     1      24.428   1.105  53.056  1.00  0.00    -0.006 A 
HETATM    3  C6  UNL     1      25.395   1.952  52.413  1.00  0.00     0.146 A 
HETATM    4  N2  UNL     1      25.081   2.899  51.613  1.00  0.00    -0.075 NA
HETATM    5  C7  UNL     1      23.717   3.153  51.331  1.00  0.00     0.722 A 
HETATM    6  N4  UNL     1      22.794   2.444  51.875  1.00  0.00    -0.095 NA
HETATM    7  C14 UNL     1      22.976   1.364  52.788  1.00  0.00     0.167 A 
HETATM    8  C15 UNL     1      22.311   0.114  52.319  1.00  0.00     0.084 C 
HETATM    9  C16 UNL     1      20.869   0.033  52.460  1.00  0.00     0.014 C 
HETATM   10 CL1  UNL     1      19.742   0.645  51.287  1.00  0.00    -0.089 Cl
HETATM   11  C17 UNL     1      20.671  -0.570  53.605  1.00  0.00     0.019 C 
HETATM   12  C18 UNL     1      21.539  -1.095  54.639  1.00  0.00    -0.002 C 
HETATM   13  C19 UNL     1      22.859  -1.172  54.879  1.00  0.00    -0.013 C 
HETATM   14  C20 UNL     1      24.286  -1.014  54.695  1.00  0.00     0.065 C 
ENDROOT
BRANCH   5  15
HETATM   15  N3  UNL     1      23.331   4.192  50.444  1.00  0.00    -0.189 N 
HETATM   16  H6  UNL     1      23.365   5.178  50.799  1.00  0.00     0.184 HD
BRANCH  15  17
HETATM   17  C8  UNL     1      22.901   3.953  49.117  1.00  0.00     0.049 A 
HETATM   18  C9  UNL     1      22.736   2.735  48.507  1.00  0.00     0.033 A 
HETATM   19  C10 UNL     1      22.326   2.525  47.227  1.00  0.00     0.044 A 
HETATM   20  C11 UNL     1      22.041   3.616  46.438  1.00  0.00     0.116 A 
HETATM   21  F1  UNL     1      21.630   3.450  45.159  1.00  0.00    -0.206 F 
HETATM   22  C12 UNL     1      22.182   4.869  46.978  1.00  0.00     0.044 A 
HETATM   23  C13 UNL     1      22.605   5.031  48.293  1.00  0.00     0.033 A 
ENDBRANCH  15  17
ENDBRANCH   5  15
BRANCH   1  24
HETATM   24  C3  UNL     1      26.228  -0.049  53.961  1.00  0.00    -0.015 A 
HETATM   25  C2  UNL     1      27.623   0.085  54.270  1.00  0.00     0.164 A 
HETATM   26  N1  UNL     1      27.929  -0.943  53.585  1.00  0.00    -0.322 N 
HETATM   27  O1  UNL     1      27.036  -0.917  53.465  1.00  0.00     0.000 OA
HETATM   28  C1  UNL     1      29.240  -1.495  53.392  1.00  0.00     0.171 C 
ENDBRANCH   1  24
BRANCH  14  29
HETATM   29  P1  UNL     1      25.095  -0.843  56.404  1.00  0.00    -0.128 P 
HETATM   30  H18 UNL     1      24.670   0.455  56.925  1.00  0.00     0.055 HD
HETATM   31  H19 UNL     1      24.419  -1.831  57.252  1.00  0.00     0.055 HD
ENDBRANCH  14  29
TORSDOF 4
ENDMDL
MODEL 5
REMARK VINA RESULT:      -8.3      4.068      7.254
REMARK  4 active torsions:
REMARK  status: ('A' for Active; 'I' for Inactive)
REMARK    1  A    between atoms: C3_4  and  C4_6 
REMARK    2  A    between atoms: C7_10  and  N3_11 
REMARK    3  A    between atoms: N3_11  and  C8_12 
REMARK    4  A    between atoms: C20_27  and  P1_28 
ROOT
HETATM    1  C4  UNL     1      25.252   0.346  52.679  1.00  0.00    -0.028 C 
HETATM    2  C5  UNL     1      25.474   1.469  52.025  1.00  0.00    -0.006 A 
HETATM    3  C6  UNL     1      26.760   1.837  51.501  1.00  0.00     0.146 A 
HETATM    4  N2  UNL     1      26.966   2.901  50.821  1.00  0.00    -0.075 NA
HETATM    5  C7  UNL     1      25.890   3.784  50.561  1.00  0.00     0.722 A 
HETATM    6  N4  UNL     1      24.712   3.527  51.005  1.00  0.00    -0.095 NA
HETATM    7  C14 UNL     1      24.321   2.395  51.778  1.00  0.00     0.167 A 
HETATM    8  C15 UNL     1      23.191   1.650  51.152  1.00  0.00     0.084 C 
HETATM    9  C16 UNL     1      21.865   2.228  51.269  1.00  0.00     0.014 C 
HETATM   10 CL1  UNL     1      21.221   3.411  50.171  1.00  0.00    -0.089 Cl
HETATM   11  C17 UNL     1      21.340   1.667  52.328  1.00  0.00     0.019 C 
HETATM   12  C18 UNL     1      21.803   0.695  53.297  1.00  0.00    -0.002 C 
HETATM   13  C19 UNL     1      22.923  -0.007  53.537  1.00  0.00    -0.013 C 
HETATM   14  C20 UNL     1      24.274  -0.506  53.387  1.00  0.00     0.065 C 
ENDROOT
BRANCH   5  15
HETATM   15  N3  UNL     1      26.079   4.971  49.806  1.00  0.00    -0.189 N 
HETATM   16  H6  UNL     1      26.966   5.066  49.256  1.00  0.00     0.184 HD
BRANCH  15  17
HETATM   17  C8  UNL     1      25.132   6.022  49.771  1.00  0.00     0.049 A 
HETATM   18  C9  UNL     1      24.876   6.940  50.759  1.00  0.00     0.033 A 
HETATM   19  C10 UNL     1      23.957   7.941  50.708  1.00  0.00     0.044 A 
HETATM   20  C11 UNL     1      23.191   8.078  49.573  1.00  0.00     0.116 A 
HETATM   21  F1  UNL     1      22.265   9.061  49.483  1.00  0.00    -0.206 F 
HETATM   22  C12 UNL     1      23.388   7.196  48.540  1.00  0.00     0.044 A 
HETATM   23  C13 UNL     1      24.341   6.189  48.641  1.00  0.00     0.033 A 
ENDBRANCH  15  17
ENDBRANCH   5  15
BRANCH   1  24
HETATM   24  C3  UNL     1      26.486  -0.474  52.796  1.00  0.00    -0.015 A 
HETATM   25  C2  UNL     1      27.489  -1.498  52.758  1.00  0.00     0.164 A 
HETATM   26  N1  UNL     1      28.350  -0.752  53.325  1.00  0.00    -0.322 N 
HETATM   27  O1  UNL     1      27.639  -0.198  53.290  1.00  0.00     0.000 OA
HETATM   28  C1  UNL     1      29.703  -1.092  53.660  1.00  0.00     0.171 C 
ENDBRANCH   1  24
BRANCH  14  29
HETATM   29  P1  UNL     1      24.959  -0.910  55.111  1.00  0.00    -0.128 P 
HETATM   30  H18 UNL     1      26.235  -0.205  55.215  1.00  0.00     0.055 HD
HETATM   31  H19 UNL     1      24.068  -0.220  56.052  1.00  0.00     0.055 HD
ENDBRANCH  14  29
TORSDOF 4
ENDMDL
MODEL 6
REMARK VINA RESULT:      -8.1      3.987      5.353
REMARK  4 active torsions:
REMARK  status: ('A' for Active; 'I' for Inactive)
REMARK    1  A    between atoms: C3_4  and  C4_6 
REMARK    2  A    between atoms: C7_10  and  N3_11 
REMARK    3  A    between atoms: N3_11  and  C8_12 
REMARK    4  A    between atoms: C20_27  and  P1_28 
ROOT
HETATM    1  C4  UNL     1      25.947   6.993  48.731  1.00  0.00    -0.028 C 
HETATM    2  C5  UNL     1      25.934   5.746  49.157  1.00  0.00    -0.006 A 
HETATM    3  C6  UNL     1      27.071   4.871  49.078  1.00  0.00     0.146 A 
HETATM    4  N2  UNL     1      27.075   3.677  49.538  1.00  0.00    -0.075 NA
HETATM    5  C7  UNL     1      25.912   3.163  50.159  1.00  0.00     0.722 A 
HETATM    6  N4  UNL     1      24.853   3.883  50.260  1.00  0.00    -0.095 NA
HETATM    7  C14 UNL     1      24.684   5.220  49.795  1.00  0.00     0.167 A 
HETATM    8  C15 UNL     1      24.236   6.140  50.880  1.00  0.00     0.084 C 
HETATM    9  C16 UNL     1      22.844   6.069  51.283  1.00  0.00     0.014 C 
HETATM   10 CL1  UNL     1      22.229   4.955  52.467  1.00  0.00    -0.089 Cl
HETATM   11  C17 UNL     1      22.237   6.988  50.575  1.00  0.00     0.019 C 
HETATM   12  C18 UNL     1      22.661   7.940  49.570  1.00  0.00    -0.002 C 
HETATM   13  C19 UNL     1      23.800   8.270  48.936  1.00  0.00    -0.013 C 
HETATM   14  C20 UNL     1      25.194   8.252  48.549  1.00  0.00     0.065 C 
ENDROOT
BRANCH   5  15
HETATM   15  N3  UNL     1      25.881   1.845  50.687  1.00  0.00    -0.189 N 
HETATM   16  H6  UNL     1      25.230   1.155  50.243  1.00  0.00     0.184 HD
BRANCH  15  17
HETATM   17  C8  UNL     1      26.681   1.434  51.779  1.00  0.00     0.049 A 
HETATM   18  C9  UNL     1      27.460   2.229  52.582  1.00  0.00     0.033 A 
HETATM   19  C10 UNL     1      28.227   1.813  53.625  1.00  0.00     0.044 A 
HETATM   20  C11 UNL     1      28.249   0.473  53.936  1.00  0.00     0.116 A 
HETATM   21  F1  UNL     1      28.999   0.018  54.967  1.00  0.00    -0.206 F 
HETATM   22  C12 UNL     1      27.495  -0.387  53.177  1.00  0.00     0.044 A 
HETATM   23  C13 UNL     1      26.727   0.088  52.120  1.00  0.00     0.033 A 
ENDBRANCH  15  17
ENDBRANCH   5  15
BRANCH   1  24
HETATM   24  C3  UNL     1      27.272   7.367  48.171  1.00  0.00    -0.015 A 
HETATM   25  C2  UNL     1      28.447   7.547  47.367  1.00  0.00     0.164 A 
HETATM   26  N1  UNL     1      29.011   8.263  48.256  1.00  0.00    -0.322 N 
HETATM   27  O1  UNL     1      28.227   8.076  48.659  1.00  0.00     0.000 OA
HETATM   28  C1  UNL     1      30.311   8.866  48.185  1.00  0.00     0.171 C 
ENDBRANCH   1  24
BRANCH  14  29
HETATM   29  P1  UNL     1      25.317   8.773  46.727  1.00  0.00    -0.128 P 
HETATM   30  H18 UNL     1      25.477   7.537  45.962  1.00  0.00     0.055 HD
HETATM   31  H19 UNL     1      23.980   9.265  46.375  1.00  0.00     0.055 HD
ENDBRANCH  14  29
TORSDOF 4
ENDMDL
MODEL 7
REMARK VINA RESULT:      -8.1      3.574      6.776
REMARK  4 active torsions:
REMARK  status: ('A' for Active; 'I' for Inactive)
REMARK    1  A    between atoms: C3_4  and  C4_6 
REMARK    2  A    between atoms: C7_10  and  N3_11 
REMARK    3  A    between atoms: N3_11  and  C8_12 
REMARK    4  A    between atoms: C20_27  and  P1_28 
ROOT
HETATM    1  C4  UNL     1      22.772   0.718  53.028  1.00  0.00    -0.028 C 
HETATM    2  C5  UNL     1      22.744   2.007  52.755  1.00  0.00    -0.006 A 
HETATM    3  C6  UNL     1      23.904   2.853  52.811  1.00  0.00     0.146 A 
HETATM    4  N2  UNL     1      23.888   4.093  52.495  1.00  0.00    -0.075 NA
HETATM    5  C7  UNL     1      22.677   4.691  52.070  1.00  0.00     0.722 A 
HETATM    6  N4  UNL     1      21.596   4.000  52.002  1.00  0.00    -0.095 NA
HETATM    7  C14 UNL     1      21.445   2.619  52.323  1.00  0.00     0.167 A 
HETATM    8  C15 UNL     1      20.862   1.840  51.193  1.00  0.00     0.084 C 
HETATM    9  C16 UNL     1      19.436   1.973  50.957  1.00  0.00     0.014 C 
HETATM   10 CL1  UNL     1      18.726   3.228  49.985  1.00  0.00    -0.089 Cl
HETATM   11  C17 UNL     1      18.887   0.984  51.614  1.00  0.00     0.019 C 
HETATM   12  C18 UNL     1      19.393  -0.085  52.449  1.00  0.00    -0.002 C 
HETATM   13  C19 UNL     1      20.585  -0.501  52.911  1.00  0.00    -0.013 C 
HETATM   14  C20 UNL     1      22.013  -0.545  53.143  1.00  0.00     0.065 C 
ENDROOT
BRANCH   5  15
HETATM   15  N3  UNL     1      22.622   6.062  51.706  1.00  0.00    -0.189 N 
HETATM   16  H6  UNL     1      22.011   6.695  52.274  1.00  0.00     0.184 HD
BRANCH  15  17
HETATM   17  C8  UNL     1      23.347   6.600  50.616  1.00  0.00     0.049 A 
HETATM   18  C9  UNL     1      23.559   6.016  49.393  1.00  0.00     0.033 A 
HETATM   19  C10 UNL     1      24.263   6.548  48.358  1.00  0.00     0.044 A 
HETATM   20  C11 UNL     1      24.833   7.790  48.517  1.00  0.00     0.116 A 
HETATM   21  F1  UNL     1      25.542   8.355  47.512  1.00  0.00    -0.206 F 
HETATM   22  C12 UNL     1      24.665   8.439  49.715  1.00  0.00     0.044 A 
HETATM   23  C13 UNL     1      23.936   7.852  50.742  1.00  0.00     0.033 A 
ENDBRANCH  15  17
ENDBRANCH   5  15
BRANCH   1  24
HETATM   24  C3  UNL     1      24.140   0.265  53.393  1.00  0.00    -0.015 A 
HETATM   25  C2  UNL     1      25.391  -0.021  54.035  1.00  0.00     0.164 A 
HETATM   26  N1  UNL     1      25.834  -0.641  53.016  1.00  0.00    -0.322 N 
HETATM   27  O1  UNL     1      25.016  -0.398  52.726  1.00  0.00     0.000 OA
HETATM   28  C1  UNL     1      27.118  -1.267  52.875  1.00  0.00     0.171 C 
ENDBRANCH   1  24
BRANCH  14  29
HETATM   29  P1  UNL     1      22.317  -1.280  54.867  1.00  0.00    -0.128 P 
HETATM   30  H18 UNL     1      22.933  -2.587  54.647  1.00  0.00     0.055 HD
HETATM   31  H19 UNL     1      23.378  -0.456  55.456  1.00  0.00     0.055 HD
ENDBRANCH  14  29
TORSDOF 4
ENDMDL
MODEL 8
REMARK VINA RESULT:      -8.0      3.789      6.164
REMARK  4 active torsions:
REMARK  status: ('A' for Active; 'I' for Inactive)
REMARK    1  A    between atoms: C3_4  and  C4_6 
REMARK    2  A    between atoms: C7_10  and  N3_11 
REMARK    3  A    between atoms: N3_11  and  C8_12 
REMARK    4  A    between atoms: C20_27  and  P1_28 
ROOT
HETATM    1  C4  UNL     1      20.541   2.876  51.487  1.00  0.00    -0.028 C 
HETATM    2  C5  UNL     1      21.506   3.766  51.364  1.00  0.00    -0.006 A 
HETATM    3  C6  UNL     1      21.272   5.148  51.048  1.00  0.00     0.146 A 
HETATM    4  N2  UNL     1      22.204   6.022  50.979  1.00  0.00    -0.075 NA
HETATM    5  C7  UNL     1      23.545   5.636  51.218  1.00  0.00     0.722 A 
HETATM    6  N4  UNL     1      23.833   4.416  51.498  1.00  0.00    -0.095 NA
HETATM    7  C14 UNL     1      22.919   3.327  51.604  1.00  0.00     0.167 A 
HETATM    8  C15 UNL     1      23.023   2.632  52.920  1.00  0.00     0.084 C 
HETATM    9  C16 UNL     1      24.154   1.745  53.119  1.00  0.00     0.014 C 
HETATM   10 CL1  UNL     1      25.714   2.268  53.678  1.00  0.00    -0.089 Cl
HETATM   11  C17 UNL     1      23.716   0.556  52.791  1.00  0.00     0.019 C 
HETATM   12  C18 UNL     1      22.453   0.036  52.309  1.00  0.00    -0.002 C 
HETATM   13  C19 UNL     1      21.243   0.521  51.981  1.00  0.00    -0.013 C 
HETATM   14  C20 UNL     1      20.173   1.471  51.760  1.00  0.00     0.065 C 
ENDROOT
BRANCH   5  15
HETATM   15  N3  UNL     1      24.604   6.579  51.157  1.00  0.00    -0.189 N 
HETATM   16  H6  UNL     1      24.619   7.347  51.870  1.00  0.00     0.184 HD
BRANCH  15  17
HETATM   17  C8  UNL     1      25.625   6.530  50.178  1.00  0.00     0.049 A 
HETATM   18  C9  UNL     1      26.078   5.420  49.509  1.00  0.00     0.033 A 
HETATM   19  C10 UNL     1      27.066   5.392  48.575  1.00  0.00     0.044 A 
HETATM   20  C11 UNL     1      27.694   6.570  48.241  1.00  0.00     0.116 A 
HETATM   21  F1  UNL     1      28.682   6.585  47.316  1.00  0.00    -0.206 F 
HETATM   22  C12 UNL     1      27.296   7.724  48.869  1.00  0.00     0.044 A 
HETATM   23  C13 UNL     1      26.281   7.700  49.818  1.00  0.00     0.033 A 
ENDBRANCH  15  17
ENDBRANCH   5  15
BRANCH   1  24
HETATM   24  C3  UNL     1      19.203   3.485  51.262  1.00  0.00    -0.015 A 
HETATM   25  C2  UNL     1      18.043   4.152  50.747  1.00  0.00     0.164 A 
HETATM   26  N1  UNL     1      17.381   3.941  51.814  1.00  0.00    -0.322 N 
HETATM   27  O1  UNL     1      18.168   3.552  52.021  1.00  0.00     0.000 OA
HETATM   28  C1  UNL     1      16.029   4.338  52.087  1.00  0.00     0.171 C 
ENDBRANCH   1  24
BRANCH  14  29
HETATM   29  P1  UNL     1      19.095   0.838  50.331  1.00  0.00    -0.128 P 
HETATM   30  H18 UNL     1      18.848  -0.576  50.607  1.00  0.00     0.055 HD
HETATM   31  H19 UNL     1      17.794   1.491  50.510  1.00  0.00     0.055 HD
ENDBRANCH  14  29
TORSDOF 4
ENDMDL
MODEL 9
REMARK VINA RESULT:      -7.9      4.062      6.946
REMARK  4 active torsions:
REMARK  status: ('A' for Active; 'I' for Inactive)
REMARK    1  A    between atoms: C3_4  and  C4_6 
REMARK    2  A    between atoms: C7_10  and  N3_11 
REMARK    3  A    between atoms: N3_11  and  C8_12 
REMARK    4  A    between atoms: C20_27  and  P1_28 
ROOT
HETATM    1  C4  UNL     1      23.736   1.974  51.041  1.00  0.00    -0.028 C 
HETATM    2  C5  UNL     1      24.094   3.089  50.436  1.00  0.00    -0.006 A 
HETATM    3  C6  UNL     1      25.322   3.781  50.714  1.00  0.00     0.146 A 
HETATM    4  N2  UNL     1      25.695   4.834  50.090  1.00  0.00    -0.075 NA
HETATM    5  C7  UNL     1      24.872   5.371  49.070  1.00  0.00     0.722 A 
HETATM    6  N4  UNL     1      23.755   4.812  48.771  1.00  0.00    -0.095 NA
HETATM    7  C14 UNL     1      23.197   3.647  49.372  1.00  0.00     0.167 A 
HETATM    8  C15 UNL     1      22.879   2.592  48.366  1.00  0.00     0.084 C 
HETATM    9  C16 UNL     1      21.691   2.781  47.554  1.00  0.00     0.014 C 
HETATM   10 CL1  UNL     1      21.660   3.695  46.076  1.00  0.00    -0.089 Cl
HETATM   11  C17 UNL     1      20.742   2.136  48.183  1.00  0.00     0.019 C 
HETATM   12  C18 UNL     1      20.675   1.370  49.409  1.00  0.00    -0.002 C 
HETATM   13  C19 UNL     1      21.509   1.018  50.403  1.00  0.00    -0.013 C 
HETATM   14  C20 UNL     1      22.721   0.910  51.188  1.00  0.00     0.065 C 
ENDROOT
BRANCH   5  15
HETATM   15  N3  UNL     1      25.255   6.534  48.353  1.00  0.00    -0.189 N 
HETATM   16  H6  UNL     1      24.639   6.850  47.566  1.00  0.00     0.184 HD
BRANCH  15  17
HETATM   17  C8  UNL     1      26.425   7.273  48.649  1.00  0.00     0.049 A 
HETATM   18  C9  UNL     1      27.676   7.095  48.113  1.00  0.00     0.033 A 
HETATM   19  C10 UNL     1      28.790   7.813  48.416  1.00  0.00     0.044 A 
HETATM   20  C11 UNL     1      28.694   8.824  49.344  1.00  0.00     0.116 A 
HETATM   21  F1  UNL     1      29.779   9.562  49.673  1.00  0.00    -0.206 F 
HETATM   22  C12 UNL     1      27.474   9.063  49.926  1.00  0.00     0.044 A 
HETATM   23  C13 UNL     1      26.363   8.300  49.583  1.00  0.00     0.033 A 
ENDBRANCH  15  17
ENDBRANCH   5  15
BRANCH   1  24
HETATM   24  C3  UNL     1      24.756   1.536  52.030  1.00  0.00    -0.015 A 
HETATM   25  C2  UNL     1      25.610   1.361  53.169  1.00  0.00     0.164 A 
HETATM   26  N1  UNL     1      26.229   0.391  52.624  1.00  0.00    -0.322 N 
HETATM   27  O1  UNL     1      25.638   0.602  51.977  1.00  0.00     0.000 OA
HETATM   28  C1  UNL     1      27.308  -0.371  53.184  1.00  0.00     0.171 C 
ENDBRANCH   1  24
BRANCH  14  29
HETATM   29  P1  UNL     1      22.240   0.780  53.020  1.00  0.00    -0.128 P 
HETATM   30  H18 UNL     1      20.875   0.255  53.043  1.00  0.00     0.055 HD
HETATM   31  H19 UNL     1      23.070  -0.302  53.561  1.00  0.00     0.055 HD
ENDBRANCH  14  29
TORSDOF 4
ENDMDL
