MODEL 1
REMARK VINA RESULT:      -8.0      0.000      0.000
REMARK  4 active torsions:
REMARK  status: ('A' for Active; 'I' for Inactive)
REMARK    1  A    between atoms: C6_7  and  N2_8 
REMARK       I    between atoms: N2_8  and  C7_9 
REMARK    2  A    between atoms: C7_9  and  O2_11 
REMARK    3  A    between atoms: O2_11  and  C8_12 
REMARK    4  A    between atoms: C14_18  and  O3_19 
ROOT
HETATM    1  C1  UNL     1      18.228   2.327  51.368  1.00  0.00     0.041 C 
HETATM    2  C2  UNL     1      19.348   1.739  51.781  1.00  0.00     0.032 C 
HETATM    3  N1  UNL     1      20.557   1.923  52.459  1.00  0.00    -0.262 NA
HETATM    4  C3  UNL     1      21.623   1.603  51.766  1.00  0.00     0.017 C 
HETATM    5  C4  UNL     1      22.969   2.252  51.992  1.00  0.00     0.083 C 
HETATM    6  C5  UNL     1      23.840   1.385  52.767  1.00  0.00     0.004 C 
HETATM    7  C6  UNL     1      24.369   0.363  53.443  1.00  0.00     0.014 C 
HETATM    8  C10 UNL     1      23.478  -0.796  53.393  1.00  0.00     0.083 C 
HETATM    9  C11 UNL     1      22.889  -1.248  54.657  1.00  0.00    -0.024 C 
HETATM   10  C12 UNL     1      21.542  -1.135  54.661  1.00  0.00    -0.022 C 
HETATM   11  C13 UNL     1      21.066  -0.571  53.368  1.00  0.00     0.057 C 
HETATM   12  C14 UNL     1      19.831  -0.281  52.908  1.00  0.00     0.109 C 
HETATM   13  C16 UNL     1      19.748   0.282  51.578  1.00  0.00     0.080 C 
HETATM   14  C17 UNL     1      21.059   0.580  50.860  1.00  0.00     0.069 C 
ENDROOT
BRANCH   7  15
HETATM   15  N2  UNL     1      25.670   0.353  54.075  1.00  0.00    -0.306 N 
HETATM   16  C7  UNL     1      26.755  -0.528  54.064  1.00  0.00     0.364 C 
HETATM   17  O1  UNL     1      26.739  -1.598  53.411  1.00  0.00    -0.238 OA
HETATM   18  H6  UNL     1      25.623   1.254  54.604  1.00  0.00     0.171 HD
BRANCH  16  19
HETATM   19  O2  UNL     1      27.857  -0.162  54.816  1.00  0.00    -0.304 OA
BRANCH  19  20
HETATM   20  C8  UNL     1      28.853   0.588  54.105  1.00  0.00     0.176 C 
HETATM   21  C9  UNL     1      29.910  -0.396  53.658  1.00  0.00     0.034 C 
ENDBRANCH  19  20
ENDBRANCH  16  19
ENDBRANCH   7  15
BRANCH  12  22
HETATM   22  O3  UNL     1      18.427  -0.263  53.148  1.00  0.00    -0.380 OA
HETATM   23  C15 UNL     1      17.765  -1.505  53.429  1.00  0.00     0.202 C 
ENDBRANCH  12  22
TORSDOF 4
ENDMDL
MODEL 2
REMARK VINA RESULT:      -7.7      1.707      2.082
REMARK  4 active torsions:
REMARK  status: ('A' for Active; 'I' for Inactive)
REMARK    1  A    between atoms: C6_7  and  N2_8 
REMARK       I    between atoms: N2_8  and  C7_9 
REMARK    2  A    between atoms: C7_9  and  O2_11 
REMARK    3  A    between atoms: O2_11  and  C8_12 
REMARK    4  A    between atoms: C14_18  and  O3_19 
ROOT
HETATM    1  C1  UNL     1      18.123   3.425  51.571  1.00  0.00     0.041 C 
HETATM    2  C2  UNL     1      19.377   3.031  51.783  1.00  0.00     0.032 C 
HETATM    3  N1  UNL     1      20.527   3.230  52.553  1.00  0.00    -0.262 NA
HETATM    4  C3  UNL     1      21.605   3.505  51.860  1.00  0.00     0.017 C 
HETATM    5  C4  UNL     1      22.743   4.331  52.413  1.00  0.00     0.083 C 
HETATM    6  C5  UNL     1      23.847   3.483  52.828  1.00  0.00     0.004 C 
HETATM    7  C6  UNL     1      24.656   2.449  53.068  1.00  0.00     0.014 C 
HETATM    8  C10 UNL     1      24.099   1.222  52.499  1.00  0.00     0.083 C 
HETATM    9  C11 UNL     1      23.710   0.162  53.434  1.00  0.00    -0.024 C 
HETATM   10  C12 UNL     1      22.382  -0.089  53.397  1.00  0.00    -0.022 C 
HETATM   11  C13 UNL     1      21.714   0.807  52.412  1.00  0.00     0.057 C 
HETATM   12  C14 UNL     1      20.426   0.928  52.031  1.00  0.00     0.109 C 
HETATM   13  C16 UNL     1      20.134   1.938  51.036  1.00  0.00     0.080 C 
HETATM   14  C17 UNL     1      21.285   2.829  50.584  1.00  0.00     0.069 C 
ENDROOT
BRANCH   7  15
HETATM   15  N2  UNL     1      25.943   2.521  53.723  1.00  0.00    -0.306 N 
HETATM   16  C7  UNL     1      27.267   2.374  53.298  1.00  0.00     0.364 C 
HETATM   17  O1  UNL     1      27.560   2.112  52.108  1.00  0.00    -0.238 OA
HETATM   18  H6  UNL     1      25.639   2.733  54.701  1.00  0.00     0.171 HD
BRANCH  16  19
HETATM   19  O2  UNL     1      28.247   2.533  54.261  1.00  0.00    -0.304 OA
BRANCH  19  20
HETATM   20  C8  UNL     1      29.264   1.520  54.263  1.00  0.00     0.176 C 
HETATM   21  C9  UNL     1      28.653   0.284  54.882  1.00  0.00     0.034 C 
ENDBRANCH  19  20
ENDBRANCH  16  19
ENDBRANCH   7  15
BRANCH  12  22
HETATM   22  O3  UNL     1      19.079   0.484  52.167  1.00  0.00    -0.380 OA
HETATM   23  C15 UNL     1      18.825  -0.708  52.926  1.00  0.00     0.202 C 
ENDBRANCH  12  22
TORSDOF 4
ENDMDL
MODEL 3
REMARK VINA RESULT:      -7.5      1.842      3.244
REMARK  4 active torsions:
REMARK  status: ('A' for Active; 'I' for Inactive)
REMARK    1  A    between atoms: C6_7  and  N2_8 
REMARK       I    between atoms: N2_8  and  C7_9 
REMARK    2  A    between atoms: C7_9  and  O2_11 
REMARK    3  A    between atoms: O2_11  and  C8_12 
REMARK    4  A    between atoms: C14_18  and  O3_19 
ROOT
HETATM    1  C1  UNL     1      18.561   0.713  50.276  1.00  0.00     0.041 C 
HETATM    2  C2  UNL     1      19.746   0.839  50.869  1.00  0.00     0.032 C 
HETATM    3  N1  UNL     1      20.924   0.179  51.230  1.00  0.00    -0.262 NA
HETATM    4  C3  UNL     1      21.204   0.226  52.509  1.00  0.00     0.017 C 
HETATM    5  C4  UNL     1      21.997  -0.852  53.213  1.00  0.00     0.083 C 
HETATM    6  C5  UNL     1      23.373  -0.434  53.419  1.00  0.00     0.004 C 
HETATM    7  C6  UNL     1      24.514   0.255  53.473  1.00  0.00     0.014 C 
HETATM    8  C10 UNL     1      24.297   1.637  53.045  1.00  0.00     0.083 C 
HETATM    9  C11 UNL     1      24.971   2.076  51.819  1.00  0.00    -0.024 C 
HETATM   10  C12 UNL     1      24.093   2.409  50.846  1.00  0.00    -0.022 C 
HETATM   11  C13 UNL     1      22.696   2.217  51.322  1.00  0.00     0.057 C 
HETATM   12  C14 UNL     1      21.503   2.413  50.723  1.00  0.00     0.109 C 
HETATM   13  C16 UNL     1      20.325   2.099  51.503  1.00  0.00     0.080 C 
HETATM   14  C17 UNL     1      20.539   1.493  52.884  1.00  0.00     0.069 C 
ENDROOT
BRANCH   7  15
HETATM   15  N2  UNL     1      25.780  -0.248  53.959  1.00  0.00    -0.306 N 
HETATM   16  C7  UNL     1      26.916   0.342  54.523  1.00  0.00     0.364 C 
HETATM   17  O1  UNL     1      27.005   1.579  54.702  1.00  0.00    -0.238 OA
HETATM   18  H6  UNL     1      25.651  -1.270  53.780  1.00  0.00     0.171 HD
BRANCH  16  19
HETATM   19  O2  UNL     1      27.945  -0.511  54.876  1.00  0.00    -0.304 OA
BRANCH  19  20
HETATM   20  C8  UNL     1      29.186  -0.278  54.194  1.00  0.00     0.176 C 
HETATM   21  C9  UNL     1      29.495  -1.526  53.401  1.00  0.00     0.034 C 
ENDBRANCH  19  20
ENDBRANCH  16  19
ENDBRANCH   7  15
BRANCH  12  22
HETATM   22  O3  UNL     1      20.788   2.821  49.560  1.00  0.00    -0.380 OA
HETATM   23  C15 UNL     1      20.510   4.218  49.383  1.00  0.00     0.202 C 
ENDBRANCH  12  22
TORSDOF 4
ENDMDL
MODEL 4
REMARK VINA RESULT:      -7.4      2.003      7.308
REMARK  4 active torsions:
REMARK  status: ('A' for Active; 'I' for Inactive)
REMARK    1  A    between atoms: C6_7  and  N2_8 
REMARK       I    between atoms: N2_8  and  C7_9 
REMARK    2  A    between atoms: C7_9  and  O2_11 
REMARK    3  A    between atoms: O2_11  and  C8_12 
REMARK    4  A    between atoms: C14_18  and  O3_19 
ROOT
HETATM    1  C1  UNL     1      28.409   0.994  53.975  1.00  0.00     0.041 C 
HETATM    2  C2  UNL     1      27.137   0.730  53.684  1.00  0.00     0.032 C 
HETATM    3  N1  UNL     1      25.838   0.645  54.194  1.00  0.00    -0.262 NA
HETATM    4  C3  UNL     1      25.258  -0.516  54.014  1.00  0.00     0.017 C 
HETATM    5  C4  UNL     1      24.197  -1.053  54.947  1.00  0.00     0.083 C 
HETATM    6  C5  UNL     1      22.870  -0.879  54.381  1.00  0.00     0.004 C 
HETATM    7  C6  UNL     1      21.838  -0.602  53.581  1.00  0.00     0.014 C 
HETATM    8  C10 UNL     1      22.313  -0.168  52.268  1.00  0.00     0.083 C 
HETATM    9  C11 UNL     1      22.018   1.211  51.867  1.00  0.00    -0.024 C 
HETATM   10  C12 UNL     1      23.142   1.945  51.702  1.00  0.00    -0.022 C 
HETATM   11  C13 UNL     1      24.346   1.120  51.991  1.00  0.00     0.057 C 
HETATM   12  C14 UNL     1      25.665   1.405  51.963  1.00  0.00     0.109 C 
HETATM   13  C16 UNL     1      26.569   0.335  52.326  1.00  0.00     0.080 C 
HETATM   14  C17 UNL     1      25.952  -0.977  52.793  1.00  0.00     0.069 C 
ENDROOT
BRANCH   7  15
HETATM   15  N2  UNL     1      20.443  -0.777  53.916  1.00  0.00    -0.306 N 
HETATM   16  C7  UNL     1      19.244  -0.665  53.204  1.00  0.00     0.364 C 
HETATM   17  O1  UNL     1      19.216  -0.337  51.994  1.00  0.00    -0.238 OA
HETATM   18  H6  UNL     1      20.528  -1.040  54.924  1.00  0.00     0.171 HD
BRANCH  16  19
HETATM   19  O2  UNL     1      18.082  -0.932  53.903  1.00  0.00    -0.304 OA
BRANCH  19  20
HETATM   20  C8  UNL     1      17.117  -1.725  53.195  1.00  0.00     0.176 C 
HETATM   21  C9  UNL     1      17.398  -3.170  53.536  1.00  0.00     0.034 C 
ENDBRANCH  19  20
ENDBRANCH  16  19
ENDBRANCH   7  15
BRANCH  12  22
HETATM   22  O3  UNL     1      26.687   2.368  51.724  1.00  0.00    -0.380 OA
HETATM   23  C15 UNL     1      26.554   3.240  50.593  1.00  0.00     0.202 C 
ENDBRANCH  12  22
TORSDOF 4
ENDMDL
MODEL 5
REMARK VINA RESULT:      -7.3      2.195      6.838
REMARK  4 active torsions:
REMARK  status: ('A' for Active; 'I' for Inactive)
REMARK    1  A    between atoms: C6_7  and  N2_8 
REMARK       I    between atoms: N2_8  and  C7_9 
REMARK    2  A    between atoms: C7_9  and  O2_11 
REMARK    3  A    between atoms: O2_11  and  C8_12 
REMARK    4  A    between atoms: C14_18  and  O3_19 
ROOT
HETATM    1  C1  UNL     1      24.553   3.278  49.694  1.00  0.00     0.041 C 
HETATM    2  C2  UNL     1      23.870   2.569  50.589  1.00  0.00     0.032 C 
HETATM    3  N1  UNL     1      22.985   1.502  50.775  1.00  0.00    -0.262 NA
HETATM    4  C3  UNL     1      21.880   1.817  51.406  1.00  0.00     0.017 C 
HETATM    5  C4  UNL     1      20.578   1.079  51.191  1.00  0.00     0.083 C 
HETATM    6  C5  UNL     1      20.326   0.145  52.275  1.00  0.00     0.004 C 
HETATM    7  C6  UNL     1      20.388  -0.564  53.404  1.00  0.00     0.014 C 
HETATM    8  C10 UNL     1      21.491  -0.094  54.241  1.00  0.00     0.083 C 
HETATM    9  C11 UNL     1      22.596  -1.027  54.486  1.00  0.00    -0.024 C 
HETATM   10  C12 UNL     1      23.764  -0.581  53.972  1.00  0.00    -0.022 C 
HETATM   11  C13 UNL     1      23.565   0.733  53.299  1.00  0.00     0.057 C 
HETATM   12  C14 UNL     1      24.417   1.555  52.654  1.00  0.00     0.109 C 
HETATM   13  C16 UNL     1      23.856   2.769  52.101  1.00  0.00     0.080 C 
HETATM   14  C17 UNL     1      22.349   2.961  52.217  1.00  0.00     0.069 C 
ENDROOT
BRANCH   7  15
HETATM   15  N2  UNL     1      19.459  -1.598  53.802  1.00  0.00    -0.306 N 
HETATM   16  C7  UNL     1      18.128  -1.892  53.486  1.00  0.00     0.364 C 
HETATM   17  O1  UNL     1      17.457  -1.181  52.702  1.00  0.00    -0.238 OA
HETATM   18  H6  UNL     1      20.065  -2.148  54.452  1.00  0.00     0.171 HD
BRANCH  16  19
HETATM   19  O2  UNL     1      17.583  -3.011  54.087  1.00  0.00    -0.304 OA
BRANCH  19  20
HETATM   20  C8  UNL     1      16.609  -3.709  53.297  1.00  0.00     0.176 C 
HETATM   21  C9  UNL     1      16.353  -5.033  53.981  1.00  0.00     0.034 C 
ENDBRANCH  19  20
ENDBRANCH  16  19
ENDBRANCH   7  15
BRANCH  12  22
HETATM   22  O3  UNL     1      25.747   1.810  52.211  1.00  0.00    -0.380 OA
HETATM   23  C15 UNL     1      26.617   0.693  51.981  1.00  0.00     0.202 C 
ENDBRANCH  12  22
TORSDOF 4
ENDMDL
MODEL 6
REMARK VINA RESULT:      -7.2      3.203      4.282
REMARK  4 active torsions:
REMARK  status: ('A' for Active; 'I' for Inactive)
REMARK    1  A    between atoms: C6_7  and  N2_8 
REMARK       I    between atoms: N2_8  and  C7_9 
REMARK    2  A    between atoms: C7_9  and  O2_11 
REMARK    3  A    between atoms: O2_11  and  C8_12 
REMARK    4  A    between atoms: C14_18  and  O3_19 
ROOT
HETATM    1  C1  UNL     1      23.245   6.583  48.959  1.00  0.00     0.041 C 
HETATM    2  C2  UNL     1      23.582   5.442  49.558  1.00  0.00     0.032 C 
HETATM    3  N1  UNL     1      24.520   4.813  50.383  1.00  0.00    -0.262 NA
HETATM    4  C3  UNL     1      25.067   3.741  49.865  1.00  0.00     0.017 C 
HETATM    5  C4  UNL     1      26.457   3.274  50.231  1.00  0.00     0.083 C 
HETATM    6  C5  UNL     1      26.402   2.168  51.172  1.00  0.00     0.004 C 
HETATM    7  C6  UNL     1      26.002   1.182  51.977  1.00  0.00     0.014 C 
HETATM    8  C10 UNL     1      24.555   0.998  51.879  1.00  0.00     0.083 C 
HETATM    9  C11 UNL     1      23.757   1.279  53.076  1.00  0.00    -0.024 C 
HETATM   10  C12 UNL     1      22.901   2.309  52.888  1.00  0.00    -0.022 C 
HETATM   11  C13 UNL     1      23.040   2.852  51.509  1.00  0.00     0.057 C 
HETATM   12  C14 UNL     1      22.413   3.859  50.867  1.00  0.00     0.109 C 
HETATM   13  C16 UNL     1      22.826   4.119  49.504  1.00  0.00     0.080 C 
HETATM   14  C17 UNL     1      23.987   3.300  48.955  1.00  0.00     0.069 C 
ENDROOT
BRANCH   7  15
HETATM   15  N2  UNL     1      26.868   0.347  52.781  1.00  0.00    -0.306 N 
HETATM   16  C7  UNL     1      27.242   0.336  54.128  1.00  0.00     0.364 C 
HETATM   17  O1  UNL     1      26.817   1.188  54.944  1.00  0.00    -0.238 OA
HETATM   18  H6  UNL     1      27.193  -0.331  52.054  1.00  0.00     0.171 HD
BRANCH  16  19
HETATM   19  O2  UNL     1      28.111  -0.665  54.521  1.00  0.00    -0.304 OA
BRANCH  19  20
HETATM   20  C8  UNL     1      28.932  -1.200  53.473  1.00  0.00     0.176 C 
HETATM   21  C9  UNL     1      30.235  -0.432  53.499  1.00  0.00     0.034 C 
ENDBRANCH  19  20
ENDBRANCH  16  19
ENDBRANCH   7  15
BRANCH  12  22
HETATM   22  O3  UNL     1      21.437   4.896  50.910  1.00  0.00    -0.380 OA
HETATM   23  C15 UNL     1      20.081   4.575  50.567  1.00  0.00     0.202 C 
ENDBRANCH  12  22
TORSDOF 4
ENDMDL
MODEL 7
REMARK VINA RESULT:      -7.0      3.674      7.217
REMARK  4 active torsions:
REMARK  status: ('A' for Active; 'I' for Inactive)
REMARK    1  A    between atoms: C6_7  and  N2_8 
REMARK       I    between atoms: N2_8  and  C7_9 
REMARK    2  A    between atoms: C7_9  and  O2_11 
REMARK    3  A    between atoms: O2_11  and  C8_12 
REMARK    4  A    between atoms: C14_18  and  O3_19 
ROOT
HETATM    1  C1  UNL     1      28.506  -0.486  53.762  1.00  0.00     0.041 C 
HETATM    2  C2  UNL     1      27.470   0.185  53.265  1.00  0.00     0.032 C 
HETATM    3  N1  UNL     1      26.822   0.593  52.095  1.00  0.00    -0.262 NA
HETATM    4  C3  UNL     1      26.652   1.889  51.992  1.00  0.00     0.017 C 
HETATM    5  C4  UNL     1      26.572   2.599  50.660  1.00  0.00     0.083 C 
HETATM    6  C5  UNL     1      25.195   2.906  50.317  1.00  0.00     0.004 C 
HETATM    7  C6  UNL     1      23.869   3.058  50.326  1.00  0.00     0.014 C 
HETATM    8  C10 UNL     1      23.320   2.671  51.625  1.00  0.00     0.083 C 
HETATM    9  C11 UNL     1      22.429   1.507  51.660  1.00  0.00    -0.024 C 
HETATM   10  C12 UNL     1      22.940   0.495  52.396  1.00  0.00    -0.022 C 
HETATM   11  C13 UNL     1      24.271   0.874  52.944  1.00  0.00     0.057 C 
HETATM   12  C14 UNL     1      25.150   0.210  53.722  1.00  0.00     0.109 C 
HETATM   13  C16 UNL     1      26.378   0.902  54.053  1.00  0.00     0.080 C 
HETATM   14  C17 UNL     1      26.604   2.269  53.420  1.00  0.00     0.069 C 
ENDROOT
BRANCH   7  15
HETATM   15  N2  UNL     1      23.075   3.603  49.247  1.00  0.00    -0.306 N 
HETATM   16  C7  UNL     1      22.418   3.053  48.142  1.00  0.00     0.364 C 
HETATM   17  O1  UNL     1      22.439   1.824  47.897  1.00  0.00    -0.238 OA
HETATM   18  H6  UNL     1      23.098   4.618  49.498  1.00  0.00     0.171 HD
BRANCH  16  19
HETATM   19  O2  UNL     1      21.738   3.937  47.324  1.00  0.00    -0.304 OA
BRANCH  19  20
HETATM   20  C8  UNL     1      21.854   3.673  45.918  1.00  0.00     0.176 C 
HETATM   21  C9  UNL     1      21.947   5.013  45.225  1.00  0.00     0.034 C 
ENDBRANCH  19  20
ENDBRANCH  16  19
ENDBRANCH   7  15
BRANCH  12  22
HETATM   22  O3  UNL     1      25.471  -0.979  54.439  1.00  0.00    -0.380 OA
HETATM   23  C15 UNL     1      24.747  -1.266  55.645  1.00  0.00     0.202 C 
ENDBRANCH  12  22
TORSDOF 4
ENDMDL
MODEL 8
REMARK VINA RESULT:      -6.9      3.176      4.782
REMARK  4 active torsions:
REMARK  status: ('A' for Active; 'I' for Inactive)
REMARK    1  A    between atoms: C6_7  and  N2_8 
REMARK       I    between atoms: N2_8  and  C7_9 
REMARK    2  A    between atoms: C7_9  and  O2_11 
REMARK    3  A    between atoms: O2_11  and  C8_12 
REMARK    4  A    between atoms: C14_18  and  O3_19 
ROOT
HETATM    1  C1  UNL     1      20.173   3.446  48.244  1.00  0.00     0.041 C 
HETATM    2  C2  UNL     1      21.232   3.209  49.014  1.00  0.00     0.032 C 
HETATM    3  N1  UNL     1      22.076   2.221  49.532  1.00  0.00    -0.262 NA
HETATM    4  C3  UNL     1      22.157   2.207  50.841  1.00  0.00     0.017 C 
HETATM    5  C4  UNL     1      22.455   0.951  51.627  1.00  0.00     0.083 C 
HETATM    6  C5  UNL     1      23.844   0.922  52.052  1.00  0.00     0.004 C 
HETATM    7  C6  UNL     1      25.121   1.220  52.298  1.00  0.00     0.014 C 
HETATM    8  C10 UNL     1      25.415   2.590  51.879  1.00  0.00     0.083 C 
HETATM    9  C11 UNL     1      26.372   2.769  50.783  1.00  0.00    -0.024 C 
HETATM   10  C12 UNL     1      25.802   3.339  49.697  1.00  0.00    -0.022 C 
HETATM   11  C13 UNL     1      24.359   3.604  49.949  1.00  0.00     0.057 C 
HETATM   12  C14 UNL     1      23.394   4.151  49.181  1.00  0.00     0.109 C 
HETATM   13  C16 UNL     1      22.072   4.238  49.763  1.00  0.00     0.080 C 
HETATM   14  C17 UNL     1      21.872   3.626  51.144  1.00  0.00     0.069 C 
ENDROOT
BRANCH   7  15
HETATM   15  N2  UNL     1      26.076   0.357  52.957  1.00  0.00    -0.306 N 
HETATM   16  C7  UNL     1      27.012   0.536  53.981  1.00  0.00     0.364 C 
HETATM   17  O1  UNL     1      27.180   1.642  54.545  1.00  0.00    -0.238 OA
HETATM   18  H6  UNL     1      25.897  -0.537  52.447  1.00  0.00     0.171 HD
BRANCH  16  19
HETATM   19  O2  UNL     1      27.751  -0.575  54.345  1.00  0.00    -0.304 OA
BRANCH  19  20
HETATM   20  C8  UNL     1      28.572  -1.124  53.303  1.00  0.00     0.176 C 
HETATM   21  C9  UNL     1      30.008  -0.844  53.681  1.00  0.00     0.034 C 
ENDBRANCH  19  20
ENDBRANCH  16  19
ENDBRANCH   7  15
BRANCH  12  22
HETATM   22  O3  UNL     1      23.029   4.736  47.934  1.00  0.00    -0.380 OA
HETATM   23  C15 UNL     1      23.241   6.143  47.752  1.00  0.00     0.202 C 
ENDBRANCH  12  22
TORSDOF 4
ENDMDL
MODEL 9
REMARK VINA RESULT:      -6.8      1.935      7.599
REMARK  4 active torsions:
REMARK  status: ('A' for Active; 'I' for Inactive)
REMARK    1  A    between atoms: C6_7  and  N2_8 
REMARK       I    between atoms: N2_8  and  C7_9 
REMARK    2  A    between atoms: C7_9  and  O2_11 
REMARK    3  A    between atoms: O2_11  and  C8_12 
REMARK    4  A    between atoms: C14_18  and  O3_19 
ROOT
HETATM    1  C1  UNL     1      28.026  -0.172  55.299  1.00  0.00     0.041 C 
HETATM    2  C2  UNL     1      26.982   0.159  54.542  1.00  0.00     0.032 C 
HETATM    3  N1  UNL     1      25.586   0.211  54.471  1.00  0.00    -0.262 NA
HETATM    4  C3  UNL     1      25.068  -0.434  53.455  1.00  0.00     0.017 C 
HETATM    5  C4  UNL     1      23.683  -1.037  53.489  1.00  0.00     0.083 C 
HETATM    6  C5  UNL     1      22.733  -0.196  52.782  1.00  0.00     0.004 C 
HETATM    7  C6  UNL     1      22.153   0.761  52.055  1.00  0.00     0.014 C 
HETATM    8  C10 UNL     1      23.163   1.664  51.503  1.00  0.00     0.083 C 
HETATM    9  C11 UNL     1      23.147   3.055  51.965  1.00  0.00    -0.024 C 
HETATM   10  C12 UNL     1      24.276   3.384  52.632  1.00  0.00    -0.022 C 
HETATM   11  C13 UNL     1      25.195   2.215  52.700  1.00  0.00     0.057 C 
HETATM   12  C14 UNL     1      26.417   2.057  53.251  1.00  0.00     0.109 C 
HETATM   13  C16 UNL     1      27.018   0.746  53.135  1.00  0.00     0.080 C 
HETATM   14  C17 UNL     1      26.184  -0.353  52.488  1.00  0.00     0.069 C 
ENDROOT
BRANCH   7  15
HETATM   15  N2  UNL     1      20.739   0.865  51.773  1.00  0.00    -0.306 N 
HETATM   16  C7  UNL     1      19.733   1.769  52.130  1.00  0.00     0.364 C 
HETATM   17  O1  UNL     1      19.958   2.760  52.864  1.00  0.00    -0.238 OA
HETATM   18  H6  UNL     1      20.610   0.020  51.171  1.00  0.00     0.171 HD
BRANCH  16  19
HETATM   19  O2  UNL     1      18.469   1.517  51.632  1.00  0.00    -0.304 OA
BRANCH  19  20
HETATM   20  C8  UNL     1      18.269   0.186  51.133  1.00  0.00     0.176 C 
HETATM   21  C9  UNL     1      17.147   0.258  50.122  1.00  0.00     0.034 C 
ENDBRANCH  19  20
ENDBRANCH  16  19
ENDBRANCH   7  15
BRANCH  12  22
HETATM   22  O3  UNL     1      27.500   2.636  53.974  1.00  0.00    -0.380 OA
HETATM   23  C15 UNL     1      28.795   2.664  53.357  1.00  0.00     0.202 C 
ENDBRANCH  12  22
TORSDOF 4
ENDMDL
