MODEL 1
REMARK VINA RESULT:      -6.9      0.000      0.000
REMARK  8 active torsions:
REMARK  status: ('A' for Active; 'I' for Inactive)
REMARK    1  A    between atoms: C5_6  and  N2_7 
REMARK    2  A    between atoms: N2_7  and  C6_8 
REMARK    3  A    between atoms: C6_8  and  C7_9 
REMARK    4  A    between atoms: C7_9  and  O1_10 
REMARK    5  A    between atoms: C9_13  and  C10_14 
REMARK    6  A    between atoms: C10_14  and  C11_15 
REMARK    7  A    between atoms: C11_15  and  O2_16 
REMARK    8  A    between atoms: O2_16  and  N4_17 
ROOT
HETATM    1  C1  UNL     1      21.738  -0.053  54.023  1.00  0.00     0.050 C 
HETATM    2  C2  UNL     1      22.862   0.450  53.191  1.00  0.00    -0.029 A 
HETATM    3  C3  UNL     1      22.848   1.289  52.134  1.00  0.00     0.068 A 
HETATM    4  C4  UNL     1      21.557   1.807  51.709  1.00  0.00     0.098 C 
HETATM    5  N1  UNL     1      20.532   2.219  51.351  1.00  0.00    -0.192 NA
HETATM    6  C5  UNL     1      24.224   1.499  51.627  1.00  0.00     0.317 A 
HETATM    7  C8  UNL     1      25.038   0.635  52.536  1.00  0.00     0.087 A 
HETATM    8  N3  UNL     1      26.372   0.458  52.494  1.00  0.00    -0.234 NA
HETATM    9  C9  UNL     1      26.961  -0.352  53.394  1.00  0.00     0.128 A 
HETATM   10  N5  UNL     1      26.213  -0.992  54.344  1.00  0.00    -0.245 NA
HETATM   11  C12 UNL     1      24.881  -0.799  54.366  1.00  0.00     0.132 A 
HETATM   12  C13 UNL     1      24.230   0.021  53.465  1.00  0.00     0.016 A 
ENDROOT
BRANCH   6  13
HETATM   13  N2  UNL     1      24.635   2.857  51.797  1.00  0.00     0.101 N 
HETATM   14  H5  UNL     1      23.961   3.344  52.407  1.00  0.00     0.317 HD
BRANCH  13  15
HETATM   15  C6  UNL     1      24.983   3.547  50.612  1.00  0.00     0.296 C 
BRANCH  15  16
HETATM   16  C7  UNL     1      26.389   3.118  50.179  1.00  0.00     0.194 C 
BRANCH  16  17
HETATM   17  O1  UNL     1      27.282   3.182  51.251  1.00  0.00    -0.399 OA
HETATM   18  H10 UNL     1      28.054   2.620  51.069  1.00  0.00     0.209 HD
ENDBRANCH  16  17
ENDBRANCH  15  16
ENDBRANCH  13  15
ENDBRANCH   6  13
BRANCH   9  19
HETATM   19  C10 UNL     1      28.446  -0.495  53.282  1.00  0.00     0.108 C 
BRANCH  19  20
HETATM   20  C11 UNL     1      29.113   0.669  53.985  1.00  0.00     0.201 C 
BRANCH  20  21
HETATM   21  O2  UNL     1      28.998   1.866  53.275  1.00  0.00    -0.308 OA
BRANCH  21  22
HETATM   22  N4  UNL     1      28.262   2.735  53.965  1.00  0.00    -0.215 NA
HETATM   23  H15 UNL     1      28.407   3.725  53.668  1.00  0.00     0.150 HD
HETATM   24  H16 UNL     1      28.582   2.704  54.980  1.00  0.00     0.150 HD
ENDBRANCH  21  22
ENDBRANCH  20  21
ENDBRANCH  19  20
ENDBRANCH   9  19
TORSDOF 8
ENDMDL
MODEL 2
REMARK VINA RESULT:      -6.9      1.332      1.764
REMARK  8 active torsions:
REMARK  status: ('A' for Active; 'I' for Inactive)
REMARK    1  A    between atoms: C5_6  and  N2_7 
REMARK    2  A    between atoms: N2_7  and  C6_8 
REMARK    3  A    between atoms: C6_8  and  C7_9 
REMARK    4  A    between atoms: C7_9  and  O1_10 
REMARK    5  A    between atoms: C9_13  and  C10_14 
REMARK    6  A    between atoms: C10_14  and  C11_15 
REMARK    7  A    between atoms: C11_15  and  O2_16 
REMARK    8  A    between atoms: O2_16  and  N4_17 
ROOT
HETATM    1  C1  UNL     1      22.181  -0.537  53.935  1.00  0.00     0.050 C 
HETATM    2  C2  UNL     1      23.238   0.149  53.146  1.00  0.00    -0.029 A 
HETATM    3  C3  UNL     1      23.127   0.996  52.102  1.00  0.00     0.068 A 
HETATM    4  C4  UNL     1      21.784   1.318  51.644  1.00  0.00     0.098 C 
HETATM    5  N1  UNL     1      20.720   1.575  51.258  1.00  0.00    -0.192 NA
HETATM    6  C5  UNL     1      24.469   1.424  51.643  1.00  0.00     0.317 A 
HETATM    7  C8  UNL     1      25.378   0.678  52.565  1.00  0.00     0.087 A 
HETATM    8  N3  UNL     1      26.724   0.709  52.563  1.00  0.00    -0.234 NA
HETATM    9  C9  UNL     1      27.404  -0.019  53.470  1.00  0.00     0.128 A 
HETATM   10  N5  UNL     1      26.736  -0.784  54.385  1.00  0.00    -0.245 NA
HETATM   11  C12 UNL     1      25.390  -0.799  54.367  1.00  0.00     0.132 A 
HETATM   12  C13 UNL     1      24.648  -0.071  53.459  1.00  0.00     0.016 A 
ENDROOT
BRANCH   6  13
HETATM   13  N2  UNL     1      24.660   2.826  51.846  1.00  0.00     0.101 N 
HETATM   14  H5  UNL     1      23.961   3.172  52.522  1.00  0.00     0.317 HD
BRANCH  13  15
HETATM   15  C6  UNL     1      24.801   3.604  50.674  1.00  0.00     0.296 C 
BRANCH  15  16
HETATM   16  C7  UNL     1      26.170   3.320  50.047  1.00  0.00     0.194 C 
BRANCH  16  17
HETATM   17  O1  UNL     1      27.180   3.374  51.011  1.00  0.00    -0.399 OA
HETATM   18  H10 UNL     1      27.957   2.879  50.699  1.00  0.00     0.209 HD
ENDBRANCH  16  17
ENDBRANCH  15  16
ENDBRANCH  13  15
ENDBRANCH   6  13
BRANCH   9  19
HETATM   19  C10 UNL     1      28.896   0.070  53.404  1.00  0.00     0.108 C 
BRANCH  19  20
HETATM   20  C11 UNL     1      29.493  -1.272  53.778  1.00  0.00     0.201 C 
BRANCH  20  21
HETATM   21  O2  UNL     1      29.241  -2.259  52.823  1.00  0.00    -0.308 OA
BRANCH  21  22
HETATM   22  N4  UNL     1      28.685  -3.321  53.402  1.00  0.00    -0.215 NA
HETATM   23  H15 UNL     1      29.230  -4.200  53.262  1.00  0.00     0.150 HD
HETATM   24  H16 UNL     1      27.748  -3.502  52.929  1.00  0.00     0.150 HD
ENDBRANCH  21  22
ENDBRANCH  20  21
ENDBRANCH  19  20
ENDBRANCH   9  19
TORSDOF 8
ENDMDL
MODEL 3
REMARK VINA RESULT:      -6.2      2.050      4.474
REMARK  8 active torsions:
REMARK  status: ('A' for Active; 'I' for Inactive)
REMARK    1  A    between atoms: C5_6  and  N2_7 
REMARK    2  A    between atoms: N2_7  and  C6_8 
REMARK    3  A    between atoms: C6_8  and  C7_9 
REMARK    4  A    between atoms: C7_9  and  O1_10 
REMARK    5  A    between atoms: C9_13  and  C10_14 
REMARK    6  A    between atoms: C10_14  and  C11_15 
REMARK    7  A    between atoms: C11_15  and  O2_16 
REMARK    8  A    between atoms: O2_16  and  N4_17 
ROOT
HETATM    1  C1  UNL     1      21.236   0.273  52.310  1.00  0.00     0.050 C 
HETATM    2  C2  UNL     1      22.691   0.468  52.545  1.00  0.00    -0.029 A 
HETATM    3  C3  UNL     1      23.493  -0.056  53.495  1.00  0.00     0.068 A 
HETATM    4  C4  UNL     1      22.882  -0.955  54.462  1.00  0.00     0.098 C 
HETATM    5  N1  UNL     1      22.407  -1.665  55.248  1.00  0.00    -0.192 NA
HETATM    6  C5  UNL     1      24.881   0.433  53.323  1.00  0.00     0.317 A 
HETATM    7  C8  UNL     1      24.759   1.339  52.140  1.00  0.00     0.087 A 
HETATM    8  N3  UNL     1      25.748   2.054  51.572  1.00  0.00    -0.234 NA
HETATM    9  C9  UNL     1      25.477   2.822  50.499  1.00  0.00     0.128 A 
HETATM   10  N5  UNL     1      24.210   2.879  49.990  1.00  0.00    -0.245 NA
HETATM   11  C12 UNL     1      23.237   2.155  50.576  1.00  0.00     0.132 A 
HETATM   12  C13 UNL     1      23.464   1.353  51.676  1.00  0.00     0.016 A 
ENDROOT
BRANCH   6  13
HETATM   13  N2  UNL     1      25.767  -0.637  52.991  1.00  0.00     0.101 N 
HETATM   14  H5  UNL     1      25.313  -1.538  53.210  1.00  0.00     0.317 HD
BRANCH  13  15
HETATM   15  C6  UNL     1      27.095  -0.503  53.457  1.00  0.00     0.296 C 
BRANCH  15  16
HETATM   16  C7  UNL     1      27.076   0.161  54.837  1.00  0.00     0.194 C 
BRANCH  16  17
HETATM   17  O1  UNL     1      28.122   1.078  54.963  1.00  0.00    -0.399 OA
HETATM   18  H10 UNL     1      28.006   1.597  55.778  1.00  0.00     0.209 HD
ENDBRANCH  16  17
ENDBRANCH  15  16
ENDBRANCH  13  15
ENDBRANCH   6  13
BRANCH   9  19
HETATM   19  C10 UNL     1      26.629   3.584  49.925  1.00  0.00     0.108 C 
BRANCH  19  20
HETATM   20  C11 UNL     1      26.109   4.823  49.224  1.00  0.00     0.201 C 
BRANCH  20  21
HETATM   21  O2  UNL     1      27.124   5.570  48.625  1.00  0.00    -0.308 OA
BRANCH  21  22
HETATM   22  N4  UNL     1      28.314   5.115  49.013  1.00  0.00    -0.215 NA
HETATM   23  H15 UNL     1      28.801   4.556  48.279  1.00  0.00     0.150 HD
HETATM   24  H16 UNL     1      28.159   4.434  49.818  1.00  0.00     0.150 HD
ENDBRANCH  21  22
ENDBRANCH  20  21
ENDBRANCH  19  20
ENDBRANCH   9  19
TORSDOF 8
ENDMDL
MODEL 4
REMARK VINA RESULT:      -6.2      2.548      4.042
REMARK  8 active torsions:
REMARK  status: ('A' for Active; 'I' for Inactive)
REMARK    1  A    between atoms: C5_6  and  N2_7 
REMARK    2  A    between atoms: N2_7  and  C6_8 
REMARK    3  A    between atoms: C6_8  and  C7_9 
REMARK    4  A    between atoms: C7_9  and  O1_10 
REMARK    5  A    between atoms: C9_13  and  C10_14 
REMARK    6  A    between atoms: C10_14  and  C11_15 
REMARK    7  A    between atoms: C11_15  and  O2_16 
REMARK    8  A    between atoms: O2_16  and  N4_17 
ROOT
HETATM    1  C1  UNL     1      24.161   3.202  50.029  1.00  0.00     0.050 C 
HETATM    2  C2  UNL     1      24.155   2.345  51.244  1.00  0.00    -0.029 A 
HETATM    3  C3  UNL     1      23.121   1.914  51.994  1.00  0.00     0.068 A 
HETATM    4  C4  UNL     1      21.785   2.326  51.589  1.00  0.00     0.098 C 
HETATM    5  N1  UNL     1      20.715   2.656  51.287  1.00  0.00    -0.192 NA
HETATM    6  C5  UNL     1      23.611   1.076  53.114  1.00  0.00     0.317 A 
HETATM    7  C8  UNL     1      25.092   1.106  52.913  1.00  0.00     0.087 A 
HETATM    8  N3  UNL     1      26.018   0.499  53.679  1.00  0.00    -0.234 NA
HETATM    9  C9  UNL     1      27.321   0.615  53.359  1.00  0.00     0.128 A 
HETATM   10  N5  UNL     1      27.704   1.342  52.267  1.00  0.00    -0.245 NA
HETATM   11  C12 UNL     1      26.760   1.939  51.515  1.00  0.00     0.132 A 
HETATM   12  C13 UNL     1      25.412   1.851  51.801  1.00  0.00     0.016 A 
ENDROOT
BRANCH   6  13
HETATM   13  N2  UNL     1      23.159  -0.273  52.985  1.00  0.00     0.101 N 
HETATM   14  H5  UNL     1      22.495  -0.338  52.197  1.00  0.00     0.317 HD
BRANCH  13  15
HETATM   15  C6  UNL     1      22.734  -0.895  54.182  1.00  0.00     0.296 C 
BRANCH  15  16
HETATM   16  C7  UNL     1      21.209  -1.046  54.153  1.00  0.00     0.194 C 
BRANCH  16  17
HETATM   17  O1  UNL     1      20.599  -0.088  54.967  1.00  0.00    -0.399 OA
HETATM   18  H10 UNL     1      20.525   0.753  54.484  1.00  0.00     0.209 HD
ENDBRANCH  16  17
ENDBRANCH  15  16
ENDBRANCH  13  15
ENDBRANCH   6  13
BRANCH   9  19
HETATM   19  C10 UNL     1      28.288  -0.089  54.258  1.00  0.00     0.108 C 
BRANCH  19  20
HETATM   20  C11 UNL     1      29.018  -1.156  53.468  1.00  0.00     0.201 C 
BRANCH  20  21
HETATM   21  O2  UNL     1      28.186  -2.210  53.088  1.00  0.00    -0.308 OA
BRANCH  21  22
HETATM   22  N4  UNL     1      28.736  -3.372  53.436  1.00  0.00    -0.215 NA
HETATM   23  H15 UNL     1      28.058  -4.165  53.440  1.00  0.00     0.150 HD
HETATM   24  H16 UNL     1      29.068  -3.290  54.445  1.00  0.00     0.150 HD
ENDBRANCH  21  22
ENDBRANCH  20  21
ENDBRANCH  19  20
ENDBRANCH   9  19
TORSDOF 8
ENDMDL
MODEL 5
REMARK VINA RESULT:      -6.0      2.546      5.135
REMARK  8 active torsions:
REMARK  status: ('A' for Active; 'I' for Inactive)
REMARK    1  A    between atoms: C5_6  and  N2_7 
REMARK    2  A    between atoms: N2_7  and  C6_8 
REMARK    3  A    between atoms: C6_8  and  C7_9 
REMARK    4  A    between atoms: C7_9  and  O1_10 
REMARK    5  A    between atoms: C9_13  and  C10_14 
REMARK    6  A    between atoms: C10_14  and  C11_15 
REMARK    7  A    between atoms: C11_15  and  O2_16 
REMARK    8  A    between atoms: O2_16  and  N4_17 
ROOT
HETATM    1  C1  UNL     1      23.497   3.782  49.063  1.00  0.00     0.050 C 
HETATM    2  C2  UNL     1      23.997   3.029  50.244  1.00  0.00    -0.029 A 
HETATM    3  C3  UNL     1      25.258   2.860  50.693  1.00  0.00     0.068 A 
HETATM    4  C4  UNL     1      26.326   3.496  49.937  1.00  0.00     0.098 C 
HETATM    5  N1  UNL     1      27.190   3.988  49.338  1.00  0.00    -0.192 NA
HETATM    6  C5  UNL     1      25.260   2.024  51.915  1.00  0.00     0.317 A 
HETATM    7  C8  UNL     1      23.809   1.712  52.095  1.00  0.00     0.087 A 
HETATM    8  N3  UNL     1      23.266   0.961  53.071  1.00  0.00    -0.234 NA
HETATM    9  C9  UNL     1      21.931   0.780  53.100  1.00  0.00     0.128 A 
HETATM   10  N5  UNL     1      21.134   1.351  52.149  1.00  0.00    -0.245 NA
HETATM   11  C12 UNL     1      21.701   2.098  51.183  1.00  0.00     0.132 A 
HETATM   12  C13 UNL     1      23.062   2.313  51.109  1.00  0.00     0.016 A 
ENDROOT
BRANCH   6  13
HETATM   13  N2  UNL     1      25.713   2.767  53.048  1.00  0.00     0.101 N 
HETATM   14  H5  UNL     1      25.869   3.750  52.773  1.00  0.00     0.317 HD
BRANCH  13  15
HETATM   15  C6  UNL     1      26.761   2.178  53.792  1.00  0.00     0.296 C 
BRANCH  15  16
HETATM   16  C7  UNL     1      27.825   1.649  52.825  1.00  0.00     0.194 C 
BRANCH  16  17
HETATM   17  O1  UNL     1      29.091   2.132  53.166  1.00  0.00    -0.399 OA
HETATM   18  H10 UNL     1      29.190   3.045  52.846  1.00  0.00     0.209 HD
ENDBRANCH  16  17
ENDBRANCH  15  16
ENDBRANCH  13  15
ENDBRANCH   6  13
BRANCH   9  19
HETATM   19  C10 UNL     1      21.404  -0.066  54.217  1.00  0.00     0.108 C 
BRANCH  19  20
HETATM   20  C11 UNL     1      21.989  -1.460  54.106  1.00  0.00     0.201 C 
BRANCH  20  21
HETATM   21  O2  UNL     1      22.107  -2.095  55.343  1.00  0.00    -0.308 OA
BRANCH  21  22
HETATM   22  N4  UNL     1      23.278  -1.793  55.899  1.00  0.00    -0.215 NA
HETATM   23  H15 UNL     1      23.826  -1.093  55.352  1.00  0.00     0.150 HD
HETATM   24  H16 UNL     1      23.880  -2.672  55.899  1.00  0.00     0.150 HD
ENDBRANCH  21  22
ENDBRANCH  20  21
ENDBRANCH  19  20
ENDBRANCH   9  19
TORSDOF 8
ENDMDL
MODEL 6
REMARK VINA RESULT:      -5.9      2.169      5.090
REMARK  8 active torsions:
REMARK  status: ('A' for Active; 'I' for Inactive)
REMARK    1  A    between atoms: C5_6  and  N2_7 
REMARK    2  A    between atoms: N2_7  and  C6_8 
REMARK    3  A    between atoms: C6_8  and  C7_9 
REMARK    4  A    between atoms: C7_9  and  O1_10 
REMARK    5  A    between atoms: C9_13  and  C10_14 
REMARK    6  A    between atoms: C10_14  and  C11_15 
REMARK    7  A    between atoms: C11_15  and  O2_16 
REMARK    8  A    between atoms: O2_16  and  N4_17 
ROOT
HETATM    1  C1  UNL     1      22.682  -0.691  53.929  1.00  0.00     0.050 C 
HETATM    2  C2  UNL     1      23.399   0.463  53.325  1.00  0.00    -0.029 A 
HETATM    3  C3  UNL     1      24.718   0.742  53.293  1.00  0.00     0.068 A 
HETATM    4  C4  UNL     1      25.617  -0.205  53.936  1.00  0.00     0.098 C 
HETATM    5  N1  UNL     1      26.345  -0.945  54.454  1.00  0.00    -0.192 NA
HETATM    6  C5  UNL     1      24.957   2.014  52.573  1.00  0.00     0.317 A 
HETATM    7  C8  UNL     1      23.572   2.444  52.211  1.00  0.00     0.087 A 
HETATM    8  N3  UNL     1      23.228   3.562  51.545  1.00  0.00    -0.234 NA
HETATM    9  C9  UNL     1      21.928   3.805  51.287  1.00  0.00     0.128 A 
HETATM   10  N5  UNL     1      20.965   2.926  51.697  1.00  0.00    -0.245 NA
HETATM   11  C12 UNL     1      21.334   1.815  52.362  1.00  0.00     0.132 A 
HETATM   12  C13 UNL     1      22.652   1.521  52.651  1.00  0.00     0.016 A 
ENDROOT
BRANCH   6  13
HETATM   13  N2  UNL     1      25.698   1.795  51.370  1.00  0.00     0.101 N 
HETATM   14  H5  UNL     1      25.916   0.790  51.281  1.00  0.00     0.317 HD
BRANCH  13  15
HETATM   15  C6  UNL     1      26.788   2.669  51.151  1.00  0.00     0.296 C 
BRANCH  15  16
HETATM   16  C7  UNL     1      26.440   3.625  50.006  1.00  0.00     0.194 C 
BRANCH  16  17
HETATM   17  O1  UNL     1      25.879   4.806  50.496  1.00  0.00    -0.399 OA
HETATM   18  H10 UNL     1      25.924   5.498  49.814  1.00  0.00     0.209 HD
ENDBRANCH  16  17
ENDBRANCH  15  16
ENDBRANCH  13  15
ENDBRANCH   6  13
BRANCH   9  19
HETATM   19  C10 UNL     1      21.627   5.066  50.541  1.00  0.00     0.108 C 
BRANCH  19  20
HETATM   20  C11 UNL     1      22.119   6.252  51.347  1.00  0.00     0.201 C 
BRANCH  20  21
HETATM   21  O2  UNL     1      23.397   6.667  50.970  1.00  0.00    -0.308 OA
BRANCH  21  22
HETATM   22  N4  UNL     1      24.221   6.605  52.015  1.00  0.00    -0.215 NA
HETATM   23  H15 UNL     1      25.229   6.574  51.744  1.00  0.00     0.150 HD
HETATM   24  H16 UNL     1      24.045   5.683  52.519  1.00  0.00     0.150 HD
ENDBRANCH  21  22
ENDBRANCH  20  21
ENDBRANCH  19  20
ENDBRANCH   9  19
TORSDOF 8
ENDMDL
MODEL 7
REMARK VINA RESULT:      -5.6      2.848      6.021
REMARK  8 active torsions:
REMARK  status: ('A' for Active; 'I' for Inactive)
REMARK    1  A    between atoms: C5_6  and  N2_7 
REMARK    2  A    between atoms: N2_7  and  C6_8 
REMARK    3  A    between atoms: C6_8  and  C7_9 
REMARK    4  A    between atoms: C7_9  and  O1_10 
REMARK    5  A    between atoms: C9_13  and  C10_14 
REMARK    6  A    between atoms: C10_14  and  C11_15 
REMARK    7  A    between atoms: C11_15  and  O2_16 
REMARK    8  A    between atoms: O2_16  and  N4_17 
ROOT
HETATM    1  C1  UNL     1      24.764   5.799  48.676  1.00  0.00     0.050 C 
HETATM    2  C2  UNL     1      25.125   4.561  49.415  1.00  0.00    -0.029 A 
HETATM    3  C3  UNL     1      26.325   3.963  49.567  1.00  0.00     0.068 A 
HETATM    4  C4  UNL     1      27.470   4.592  48.928  1.00  0.00     0.098 C 
HETATM    5  N1  UNL     1      28.392   5.076  48.414  1.00  0.00    -0.192 NA
HETATM    6  C5  UNL     1      26.188   2.741  50.394  1.00  0.00     0.317 A 
HETATM    7  C8  UNL     1      24.721   2.708  50.680  1.00  0.00     0.087 A 
HETATM    8  N3  UNL     1      24.065   1.776  51.396  1.00  0.00    -0.234 NA
HETATM    9  C9  UNL     1      22.734   1.893  51.571  1.00  0.00     0.128 A 
HETATM   10  N5  UNL     1      22.053   2.945  51.026  1.00  0.00    -0.245 NA
HETATM   11  C12 UNL     1      22.732   3.863  50.313  1.00  0.00     0.132 A 
HETATM   12  C13 UNL     1      24.095   3.789  50.105  1.00  0.00     0.016 A 
ENDROOT
BRANCH   6  13
HETATM   13  N2  UNL     1      26.892   2.873  51.630  1.00  0.00     0.101 N 
HETATM   14  H5  UNL     1      27.638   3.579  51.525  1.00  0.00     0.317 HD
BRANCH  13  15
HETATM   15  C6  UNL     1      27.291   1.663  52.244  1.00  0.00     0.296 C 
BRANCH  15  16
HETATM   16  C7  UNL     1      28.378   1.963  53.281  1.00  0.00     0.194 C 
BRANCH  16  17
HETATM   17  O1  UNL     1      27.928   2.896  54.218  1.00  0.00    -0.399 OA
HETATM   18  H10 UNL     1      28.564   2.956  54.951  1.00  0.00     0.209 HD
ENDBRANCH  16  17
ENDBRANCH  15  16
ENDBRANCH  13  15
ENDBRANCH   6  13
BRANCH   9  19
HETATM   19  C10 UNL     1      22.078   0.819  52.381  1.00  0.00     0.108 C 
BRANCH  19  20
HETATM   20  C11 UNL     1      20.786   1.354  52.966  1.00  0.00     0.201 C 
BRANCH  20  21
HETATM   21  O2  UNL     1      20.087   0.393  53.699  1.00  0.00    -0.308 OA
BRANCH  21  22
HETATM   22  N4  UNL     1      20.751   0.102  54.816  1.00  0.00    -0.215 NA
HETATM   23  H15 UNL     1      21.739  -0.190  54.644  1.00  0.00     0.150 HD
HETATM   24  H16 UNL     1      20.288  -0.747  55.263  1.00  0.00     0.150 HD
ENDBRANCH  21  22
ENDBRANCH  20  21
ENDBRANCH  19  20
ENDBRANCH   9  19
TORSDOF 8
ENDMDL
MODEL 8
REMARK VINA RESULT:      -5.6      2.261      2.750
REMARK  8 active torsions:
REMARK  status: ('A' for Active; 'I' for Inactive)
REMARK    1  A    between atoms: C5_6  and  N2_7 
REMARK    2  A    between atoms: N2_7  and  C6_8 
REMARK    3  A    between atoms: C6_8  and  C7_9 
REMARK    4  A    between atoms: C7_9  and  O1_10 
REMARK    5  A    between atoms: C9_13  and  C10_14 
REMARK    6  A    between atoms: C10_14  and  C11_15 
REMARK    7  A    between atoms: C11_15  and  O2_16 
REMARK    8  A    between atoms: O2_16  and  N4_17 
ROOT
HETATM    1  C1  UNL     1      20.933  -0.960  53.893  1.00  0.00     0.050 C 
HETATM    2  C2  UNL     1      21.761  -0.201  52.919  1.00  0.00    -0.029 A 
HETATM    3  C3  UNL     1      21.399   0.437  51.787  1.00  0.00     0.068 A 
HETATM    4  C4  UNL     1      19.991   0.404  51.424  1.00  0.00     0.098 C 
HETATM    5  N1  UNL     1      18.872   0.375  51.113  1.00  0.00    -0.192 NA
HETATM    6  C5  UNL     1      22.582   1.057  51.146  1.00  0.00     0.317 A 
HETATM    7  C8  UNL     1      23.692   0.661  52.066  1.00  0.00     0.087 A 
HETATM    8  N3  UNL     1      24.995   0.967  51.928  1.00  0.00    -0.234 NA
HETATM    9  C9  UNL     1      25.876   0.540  52.854  1.00  0.00     0.128 A 
HETATM   10  N5  UNL     1      25.454  -0.197  53.924  1.00  0.00    -0.245 NA
HETATM   11  C12 UNL     1      24.145  -0.490  54.040  1.00  0.00     0.132 A 
HETATM   12  C13 UNL     1      23.203  -0.077  53.119  1.00  0.00     0.016 A 
ENDROOT
BRANCH   6  13
HETATM   13  N2  UNL     1      22.478   2.482  51.139  1.00  0.00     0.101 N 
HETATM   14  H5  UNL     1      23.359   2.887  50.784  1.00  0.00     0.317 HD
BRANCH  13  15
HETATM   15  C6  UNL     1      21.982   3.068  52.326  1.00  0.00     0.296 C 
BRANCH  15  16
HETATM   16  C7  UNL     1      20.832   4.016  51.973  1.00  0.00     0.194 C 
BRANCH  16  17
HETATM   17  O1  UNL     1      19.603   3.473  52.357  1.00  0.00    -0.399 OA
HETATM   18  H10 UNL     1      19.386   3.760  53.260  1.00  0.00     0.209 HD
ENDBRANCH  16  17
ENDBRANCH  15  16
ENDBRANCH  13  15
ENDBRANCH   6  13
BRANCH   9  19
HETATM   19  C10 UNL     1      27.306   0.921  52.630  1.00  0.00     0.108 C 
BRANCH  19  20
HETATM   20  C11 UNL     1      27.948   1.250  53.963  1.00  0.00     0.201 C 
BRANCH  20  21
HETATM   21  O2  UNL     1      28.285   2.600  54.081  1.00  0.00    -0.308 OA
BRANCH  21  22
HETATM   22  N4  UNL     1      28.952   2.998  52.999  1.00  0.00    -0.215 NA
HETATM   23  H15 UNL     1      29.190   4.014  53.011  1.00  0.00     0.150 HD
HETATM   24  H16 UNL     1      28.312   2.877  52.155  1.00  0.00     0.150 HD
ENDBRANCH  21  22
ENDBRANCH  20  21
ENDBRANCH  19  20
ENDBRANCH   9  19
TORSDOF 8
ENDMDL
MODEL 9
REMARK VINA RESULT:      -5.5      2.226      3.165
REMARK  8 active torsions:
REMARK  status: ('A' for Active; 'I' for Inactive)
REMARK    1  A    between atoms: C5_6  and  N2_7 
REMARK    2  A    between atoms: N2_7  and  C6_8 
REMARK    3  A    between atoms: C6_8  and  C7_9 
REMARK    4  A    between atoms: C7_9  and  O1_10 
REMARK    5  A    between atoms: C9_13  and  C10_14 
REMARK    6  A    between atoms: C10_14  and  C11_15 
REMARK    7  A    between atoms: C11_15  and  O2_16 
REMARK    8  A    between atoms: O2_16  and  N4_17 
ROOT
HETATM    1  C1  UNL     1      18.520  -1.136  53.329  1.00  0.00     0.050 C 
HETATM    2  C2  UNL     1      19.793  -0.483  52.924  1.00  0.00    -0.029 A 
HETATM    3  C3  UNL     1      20.045   0.367  51.907  1.00  0.00     0.068 A 
HETATM    4  C4  UNL     1      18.928   0.729  51.048  1.00  0.00     0.098 C 
HETATM    5  N1  UNL     1      18.050   1.019  50.346  1.00  0.00    -0.192 NA
HETATM    6  C5  UNL     1      21.475   0.753  51.903  1.00  0.00     0.317 A 
HETATM    7  C8  UNL     1      22.021  -0.021  53.060  1.00  0.00     0.087 A 
HETATM    8  N3  UNL     1      23.298  -0.031  53.487  1.00  0.00    -0.234 NA
HETATM    9  C9  UNL     1      23.631  -0.779  54.556  1.00  0.00     0.128 A 
HETATM   10  N5  UNL     1      22.685  -1.523  55.204  1.00  0.00    -0.245 NA
HETATM   11  C12 UNL     1      21.415  -1.496  54.758  1.00  0.00     0.132 A 
HETATM   12  C13 UNL     1      21.023  -0.746  53.667  1.00  0.00     0.016 A 
ENDROOT
BRANCH   6  13
HETATM   13  N2  UNL     1      21.633   2.148  52.170  1.00  0.00     0.101 N 
HETATM   14  H5  UNL     1      20.749   2.528  52.542  1.00  0.00     0.317 HD
BRANCH  13  15
HETATM   15  C6  UNL     1      22.226   2.909  51.136  1.00  0.00     0.296 C 
BRANCH  15  16
HETATM   16  C7  UNL     1      23.507   2.208  50.671  1.00  0.00     0.194 C 
BRANCH  16  17
HETATM   17  O1  UNL     1      24.529   2.368  51.610  1.00  0.00    -0.399 OA
HETATM   18  H10 UNL     1      24.146   2.567  52.481  1.00  0.00     0.209 HD
ENDBRANCH  16  17
ENDBRANCH  15  16
ENDBRANCH  13  15
ENDBRANCH   6  13
BRANCH   9  19
HETATM   19  C10 UNL     1      25.069  -0.737  54.970  1.00  0.00     0.108 C 
BRANCH  19  20
HETATM   20  C11 UNL     1      25.819   0.221  54.066  1.00  0.00     0.201 C 
BRANCH  20  21
HETATM   21  O2  UNL     1      26.405   1.277  54.767  1.00  0.00    -0.308 OA
BRANCH  21  22
HETATM   22  N4  UNL     1      26.467   2.358  53.992  1.00  0.00    -0.215 NA
HETATM   23  H15 UNL     1      27.437   2.591  53.686  1.00  0.00     0.150 HD
HETATM   24  H16 UNL     1      26.153   3.196  54.571  1.00  0.00     0.150 HD
ENDBRANCH  21  22
ENDBRANCH  20  21
ENDBRANCH  19  20
ENDBRANCH   9  19
TORSDOF 8
ENDMDL
