MODEL 1
REMARK VINA RESULT:      -8.3      0.000      0.000
REMARK  1 active torsions:
REMARK  status: ('A' for Active; 'I' for Inactive)
REMARK    1  A    between atoms: C2_2  and  C3_3 
ROOT
HETATM    1  C3  UNL     1      27.742   6.057  48.602  1.00  0.00    -0.015 C 
HETATM    2  C4  UNL     1      27.286   4.664  48.977  1.00  0.00     0.029 C 
HETATM    3  C5  UNL     1      26.658   3.559  49.453  1.00  0.00    -0.018 C 
HETATM    4  C6  UNL     1      25.516   3.432  50.294  1.00  0.00     0.018 C 
HETATM    5  C7  UNL     1      24.481   3.799  51.099  1.00  0.00    -0.023 C 
HETATM    6  O1  UNL     1      24.135   5.094  51.485  1.00  0.00     0.000 OA
HETATM    7  C8  UNL     1      23.487   6.084  50.739  1.00  0.00     0.092 C 
HETATM    8  C9  UNL     1      22.004   5.997  51.002  1.00  0.00     0.082 C 
HETATM    9  C10 UNL     1      21.232   7.128  50.500  1.00  0.00    -0.008 C 
HETATM   10 BR1  UNL     1      20.269   8.666  49.935  1.00  0.00    -0.056 Br
HETATM   11  C11 UNL     1      20.853   6.291  49.515  1.00  0.00     0.022 C 
HETATM   12  C12 UNL     1      20.770   5.019  48.731  1.00  0.00    -0.057 C 
HETATM   13  C13 UNL     1      21.292   3.822  48.908  1.00  0.00    -0.024 C 
HETATM   14  C14 UNL     1      21.050   2.712  47.960  1.00  0.00     0.036 C 
HETATM   15  C15 UNL     1      20.132   5.191  47.340  1.00  0.00     0.085 C 
HETATM   16  C16 UNL     1      20.990   6.370  46.817  1.00  0.00     0.095 C 
HETATM   17  N1  UNL     1      22.075   6.390  47.463  1.00  0.00    -0.261 N 
HETATM   18  C17 UNL     1      23.143   7.244  47.383  1.00  0.00     0.226 A 
HETATM   19  N2  UNL     1      23.184   6.399  48.295  1.00  0.00    -0.268 N 
HETATM   20  C18 UNL     1      23.963   5.949  49.349  1.00  0.00     0.175 C 
HETATM   21  C19 UNL     1      25.261   6.745  49.453  1.00  0.00     0.021 C 
HETATM   22  C20 UNL     1      26.486   6.312  48.992  1.00  0.00     0.041 C 
HETATM   23  C21 UNL     1      24.845   7.949  50.185  1.00  0.00     0.247 C 
HETATM   24  O2  UNL     1      25.271   9.102  49.916  1.00  0.00    -0.268 OA
HETATM   25  N3  UNL     1      23.924   7.414  51.166  1.00  0.00    -0.343 N 
HETATM   26  H22 UNL     1      23.661   7.982  52.014  1.00  0.00     0.163 HD
ENDROOT
BRANCH   1  27
HETATM   27  C2  UNL     1      28.730   5.462  48.153  1.00  0.00    -0.004 C 
HETATM   28  C1  UNL     1      30.146   5.294  47.856  1.00  0.00     0.011 C 
ENDBRANCH   1  27
TORSDOF 1
ENDMDL
MODEL 2
REMARK VINA RESULT:      -8.0      5.724      8.285
REMARK  1 active torsions:
REMARK  status: ('A' for Active; 'I' for Inactive)
REMARK    1  A    between atoms: C2_2  and  C3_3 
ROOT
HETATM    1  C3  UNL     1      33.542   5.729  43.645  1.00  0.00    -0.015 C 
HETATM    2  C4  UNL     1      33.199   4.615  44.609  1.00  0.00     0.029 C 
HETATM    3  C5  UNL     1      32.869   3.838  45.672  1.00  0.00    -0.018 C 
HETATM    4  C6  UNL     1      32.644   4.179  47.036  1.00  0.00     0.018 C 
HETATM    5  C7  UNL     1      32.572   4.941  48.162  1.00  0.00    -0.023 C 
HETATM    6  O1  UNL     1      32.874   6.297  48.279  1.00  0.00     0.000 OA
HETATM    7  C8  UNL     1      32.116   7.399  47.870  1.00  0.00     0.092 C 
HETATM    8  C9  UNL     1      31.264   7.860  49.026  1.00  0.00     0.082 C 
HETATM    9  C10 UNL     1      30.621   9.153  48.828  1.00  0.00    -0.008 C 
HETATM   10 BR1  UNL     1      29.888  10.891  48.588  1.00  0.00    -0.056 Br
HETATM   11  C11 UNL     1      29.499   8.440  48.611  1.00  0.00     0.022 C 
HETATM   12  C12 UNL     1      28.630   7.229  48.475  1.00  0.00    -0.057 C 
HETATM   13  C13 UNL     1      28.862   5.940  48.619  1.00  0.00    -0.024 C 
HETATM   14  C14 UNL     1      27.803   4.925  48.419  1.00  0.00     0.036 C 
HETATM   15  C15 UNL     1      27.260   7.521  47.837  1.00  0.00     0.085 C 
HETATM   16  C16 UNL     1      27.730   8.283  46.573  1.00  0.00     0.095 C 
HETATM   17  N1  UNL     1      28.930   7.963  46.339  1.00  0.00    -0.261 N 
HETATM   18  C17 UNL     1      29.785   8.378  45.353  1.00  0.00     0.226 A 
HETATM   19  N2  UNL     1      30.271   7.636  46.225  1.00  0.00    -0.268 N 
HETATM   20  C18 UNL     1      31.446   7.012  46.613  1.00  0.00     0.175 C 
HETATM   21  C19 UNL     1      32.576   7.304  45.630  1.00  0.00     0.021 C 
HETATM   22  C20 UNL     1      33.005   6.436  44.647  1.00  0.00     0.041 C 
HETATM   23  C21 UNL     1      33.053   8.623  46.066  1.00  0.00     0.247 C 
HETATM   24  O2  UNL     1      33.398   9.531  45.265  1.00  0.00    -0.268 OA
HETATM   25  N3  UNL     1      32.993   8.515  47.508  1.00  0.00    -0.343 N 
HETATM   26  H22 UNL     1      33.521   9.195  48.115  1.00  0.00     0.163 HD
ENDROOT
BRANCH   1  27
HETATM   27  C2  UNL     1      33.783   4.795  42.869  1.00  0.00    -0.004 C 
HETATM   28  C1  UNL     1      33.568   3.974  41.685  1.00  0.00     0.011 C 
ENDBRANCH   1  27
TORSDOF 1
ENDMDL
MODEL 3
REMARK VINA RESULT:      -7.7      3.814      7.445
REMARK  1 active torsions:
REMARK  status: ('A' for Active; 'I' for Inactive)
REMARK    1  A    between atoms: C2_2  and  C3_3 
ROOT
HETATM    1  C3  UNL     1      17.096   4.253  51.272  1.00  0.00    -0.015 C 
HETATM    2  C4  UNL     1      17.276   2.764  51.469  1.00  0.00     0.029 C 
HETATM    3  C5  UNL     1      17.672   1.466  51.467  1.00  0.00    -0.018 C 
HETATM    4  C6  UNL     1      18.734   0.822  50.769  1.00  0.00     0.018 C 
HETATM    5  C7  UNL     1      19.780   0.659  49.915  1.00  0.00    -0.023 C 
HETATM    6  O1  UNL     1      20.336   1.623  49.074  1.00  0.00     0.000 OA
HETATM    7  C8  UNL     1      21.185   2.684  49.404  1.00  0.00     0.092 C 
HETATM    8  C9  UNL     1      22.615   2.234  49.234  1.00  0.00     0.082 C 
HETATM    9  C10 UNL     1      23.599   3.308  49.288  1.00  0.00    -0.008 C 
HETATM   10 BR1  UNL     1      24.848   4.740  49.251  1.00  0.00    -0.056 Br
HETATM   11  C11 UNL     1      23.866   2.853  50.528  1.00  0.00     0.022 C 
HETATM   12  C12 UNL     1      23.754   1.982  51.740  1.00  0.00    -0.057 C 
HETATM   13  C13 UNL     1      23.017   0.925  52.018  1.00  0.00    -0.024 C 
HETATM   14  C14 UNL     1      23.097   0.234  53.324  1.00  0.00     0.036 C 
HETATM   15  C15 UNL     1      24.474   2.548  52.977  1.00  0.00     0.085 C 
HETATM   16  C16 UNL     1      23.867   3.974  52.988  1.00  0.00     0.095 C 
HETATM   17  N1  UNL     1      22.775   3.946  52.353  1.00  0.00    -0.261 N 
HETATM   18  C17 UNL     1      21.884   4.947  52.072  1.00  0.00     0.226 A 
HETATM   19  N2  UNL     1      21.650   3.842  51.551  1.00  0.00    -0.268 N 
HETATM   20  C18 UNL     1      20.755   3.177  50.727  1.00  0.00     0.175 C 
HETATM   21  C19 UNL     1      19.619   4.098  50.292  1.00  0.00     0.021 C 
HETATM   22  C20 UNL     1      18.358   4.106  50.849  1.00  0.00     0.041 C 
HETATM   23  C21 UNL     1      20.212   4.835  49.167  1.00  0.00     0.247 C 
HETATM   24  O2  UNL     1      20.013   6.062  48.965  1.00  0.00    -0.268 OA
HETATM   25  N3  UNL     1      20.976   3.809  48.490  1.00  0.00    -0.343 N 
HETATM   26  H22 UNL     1      21.298   3.954  47.497  1.00  0.00     0.163 HD
ENDROOT
BRANCH   1  27
HETATM   27  C2  UNL     1      16.037   4.066  51.886  1.00  0.00    -0.004 C 
HETATM   28  C1  UNL     1      15.178   4.060  53.062  1.00  0.00     0.011 C 
ENDBRANCH   1  27
TORSDOF 1
ENDMDL
MODEL 4
REMARK VINA RESULT:      -7.7      4.420      5.717
REMARK  1 active torsions:
REMARK  status: ('A' for Active; 'I' for Inactive)
REMARK    1  A    between atoms: C2_2  and  C3_3 
ROOT
HETATM    1  C3  UNL     1      31.031   6.343  48.348  1.00  0.00    -0.015 C 
HETATM    2  C4  UNL     1      29.723   5.591  48.239  1.00  0.00     0.029 C 
HETATM    3  C5  UNL     1      28.432   5.171  48.240  1.00  0.00    -0.018 C 
HETATM    4  C6  UNL     1      27.242   5.836  48.651  1.00  0.00     0.018 C 
HETATM    5  C7  UNL     1      26.441   6.804  49.174  1.00  0.00    -0.023 C 
HETATM    6  O1  UNL     1      26.844   8.019  49.726  1.00  0.00     0.000 OA
HETATM    7  C8  UNL     1      27.274   9.177  49.071  1.00  0.00     0.092 C 
HETATM    8  C9  UNL     1      26.087  10.083  48.854  1.00  0.00     0.082 C 
HETATM    9  C10 UNL     1      26.426  11.433  48.420  1.00  0.00    -0.008 C 
HETATM   10 BR1  UNL     1      26.903  13.216  47.965  1.00  0.00    -0.056 Br
HETATM   11  C11 UNL     1      26.020  11.025  47.202  1.00  0.00     0.022 C 
HETATM   12  C12 UNL     1      25.481  10.098  46.158  1.00  0.00    -0.057 C 
HETATM   13  C13 UNL     1      25.050   8.854  46.201  1.00  0.00    -0.024 C 
HETATM   14  C14 UNL     1      24.561   8.150  44.995  1.00  0.00     0.036 C 
HETATM   15  C15 UNL     1      25.663  10.616  44.719  1.00  0.00     0.085 C 
HETATM   16  C16 UNL     1      27.177  10.941  44.760  1.00  0.00     0.095 C 
HETATM   17  N1  UNL     1      27.704  10.263  45.687  1.00  0.00    -0.261 N 
HETATM   18  C17 UNL     1      29.001  10.214  46.126  1.00  0.00     0.226 A 
HETATM   19  N2  UNL     1      28.172   9.564  46.788  1.00  0.00    -0.268 N 
HETATM   20  C18 UNL     1      28.046   8.737  47.893  1.00  0.00     0.175 C 
HETATM   21  C19 UNL     1      29.398   8.498  48.558  1.00  0.00     0.021 C 
HETATM   22  C20 UNL     1      30.164   7.362  48.395  1.00  0.00     0.041 C 
HETATM   23  C21 UNL     1      29.567   9.697  49.391  1.00  0.00     0.247 C 
HETATM   24  O2  UNL     1      30.668  10.289  49.533  1.00  0.00    -0.268 OA
HETATM   25  N3  UNL     1      28.230   9.910  49.903  1.00  0.00    -0.343 N 
HETATM   26  H22 UNL     1      28.074  10.530  50.741  1.00  0.00     0.163 HD
ENDROOT
BRANCH   1  27
HETATM   27  C2  UNL     1      31.528   5.239  48.089  1.00  0.00    -0.004 C 
HETATM   28  C1  UNL     1      31.862   4.112  47.229  1.00  0.00     0.011 C 
ENDBRANCH   1  27
TORSDOF 1
ENDMDL
MODEL 5
REMARK VINA RESULT:      -7.6      5.422      7.986
REMARK  1 active torsions:
REMARK  status: ('A' for Active; 'I' for Inactive)
REMARK    1  A    between atoms: C2_2  and  C3_3 
ROOT
HETATM    1  C3  UNL     1      28.127   5.118  48.580  1.00  0.00    -0.015 C 
HETATM    2  C4  UNL     1      27.104   6.153  48.994  1.00  0.00     0.029 C 
HETATM    3  C5  UNL     1      26.420   7.266  49.363  1.00  0.00    -0.018 C 
HETATM    4  C6  UNL     1      26.875   8.588  49.629  1.00  0.00     0.018 C 
HETATM    5  C7  UNL     1      27.739   9.624  49.809  1.00  0.00    -0.023 C 
HETATM    6  O1  UNL     1      29.131   9.580  49.732  1.00  0.00     0.000 OA
HETATM    7  C8  UNL     1      29.942   9.520  48.595  1.00  0.00     0.092 C 
HETATM    8  C9  UNL     1      30.326  10.924  48.197  1.00  0.00     0.082 C 
HETATM    9  C10 UNL     1      31.378  11.002  47.190  1.00  0.00    -0.008 C 
HETATM   10 BR1  UNL     1      32.827  11.075  45.962  1.00  0.00    -0.056 Br
HETATM   11  C11 UNL     1      30.383  11.299  46.332  1.00  0.00     0.022 C 
HETATM   12  C12 UNL     1      28.987  11.568  45.867  1.00  0.00    -0.057 C 
HETATM   13  C13 UNL     1      27.828  11.618  46.494  1.00  0.00    -0.024 C 
HETATM   14  C14 UNL     1      26.563  11.908  45.783  1.00  0.00     0.036 C 
HETATM   15  C15 UNL     1      28.836  11.578  44.335  1.00  0.00     0.085 C 
HETATM   16  C16 UNL     1      29.514  10.223  44.009  1.00  0.00     0.095 C 
HETATM   17  N1  UNL     1      29.476   9.501  45.045  1.00  0.00    -0.261 N 
HETATM   18  C17 UNL     1      29.954   8.236  45.266  1.00  0.00     0.226 A 
HETATM   19  N2  UNL     1      29.483   8.826  46.255  1.00  0.00    -0.268 N 
HETATM   20  C18 UNL     1      29.232   8.680  47.611  1.00  0.00     0.175 C 
HETATM   21  C19 UNL     1      29.663   7.302  48.105  1.00  0.00     0.021 C 
HETATM   22  C20 UNL     1      28.806   6.243  48.323  1.00  0.00     0.041 C 
HETATM   23  C21 UNL     1      31.106   7.471  48.321  1.00  0.00     0.247 C 
HETATM   24  O2  UNL     1      31.955   6.586  48.035  1.00  0.00    -0.268 OA
HETATM   25  N3  UNL     1      31.183   8.800  48.889  1.00  0.00    -0.343 N 
HETATM   26  H22 UNL     1      32.050   9.110  49.402  1.00  0.00     0.163 HD
ENDROOT
BRANCH   1  27
HETATM   27  C2  UNL     1      27.187   4.328  48.738  1.00  0.00    -0.004 C 
HETATM   28  C1  UNL     1      26.338   3.423  49.501  1.00  0.00     0.011 C 
ENDBRANCH   1  27
TORSDOF 1
ENDMDL
MODEL 6
REMARK VINA RESULT:      -7.6      2.784      5.205
REMARK  1 active torsions:
REMARK  status: ('A' for Active; 'I' for Inactive)
REMARK    1  A    between atoms: C2_2  and  C3_3 
ROOT
HETATM    1  C3  UNL     1      24.545   0.913  53.155  1.00  0.00    -0.015 C 
HETATM    2  C4  UNL     1      25.739   1.697  52.657  1.00  0.00     0.029 C 
HETATM    3  C5  UNL     1      26.640   2.448  51.973  1.00  0.00    -0.018 C 
HETATM    4  C6  UNL     1      26.569   3.022  50.672  1.00  0.00     0.018 C 
HETATM    5  C7  UNL     1      26.080   3.318  49.437  1.00  0.00    -0.023 C 
HETATM    6  O1  UNL     1      24.887   2.865  48.875  1.00  0.00     0.000 OA
HETATM    7  C8  UNL     1      23.581   3.287  49.141  1.00  0.00     0.092 C 
HETATM    8  C9  UNL     1      23.210   4.371  48.160  1.00  0.00     0.082 C 
HETATM    9  C10 UNL     1      21.795   4.721  48.148  1.00  0.00    -0.008 C 
HETATM   10 BR1  UNL     1      19.928   5.075  48.076  1.00  0.00    -0.056 Br
HETATM   11  C11 UNL     1      22.172   5.817  48.834  1.00  0.00     0.022 C 
HETATM   12  C12 UNL     1      23.096   6.776  49.517  1.00  0.00    -0.057 C 
HETATM   13  C13 UNL     1      24.403   6.796  49.682  1.00  0.00    -0.024 C 
HETATM   14  C14 UNL     1      25.084   7.884  50.418  1.00  0.00     0.036 C 
HETATM   15  C15 UNL     1      22.370   7.827  50.376  1.00  0.00     0.085 C 
HETATM   16  C16 UNL     1      21.471   6.885  51.216  1.00  0.00     0.095 C 
HETATM   17  N1  UNL     1      21.991   5.734  51.216  1.00  0.00    -0.261 N 
HETATM   18  C17 UNL     1      21.570   4.567  51.796  1.00  0.00     0.226 A 
HETATM   19  N2  UNL     1      22.577   4.487  51.070  1.00  0.00    -0.268 N 
HETATM   20  C18 UNL     1      23.519   3.594  50.584  1.00  0.00     0.175 C 
HETATM   21  C19 UNL     1      23.276   2.188  51.125  1.00  0.00     0.021 C 
HETATM   22  C20 UNL     1      23.976   1.616  52.167  1.00  0.00     0.041 C 
HETATM   23  C21 UNL     1      22.227   1.673  50.234  1.00  0.00     0.247 C 
HETATM   24  O2  UNL     1      21.265   0.968  50.635  1.00  0.00    -0.268 OA
HETATM   25  N3  UNL     1      22.637   2.185  48.943  1.00  0.00    -0.343 N 
HETATM   26  H22 UNL     1      22.245   1.769  48.058  1.00  0.00     0.163 HD
ENDROOT
BRANCH   1  27
HETATM   27  C2  UNL     1      25.312   0.591  54.071  1.00  0.00    -0.004 C 
HETATM   28  C1  UNL     1      26.450  -0.106  54.655  1.00  0.00     0.011 C 
ENDBRANCH   1  27
TORSDOF 1
ENDMDL
MODEL 7
REMARK VINA RESULT:      -7.5      2.319      3.575
REMARK  1 active torsions:
REMARK  status: ('A' for Active; 'I' for Inactive)
REMARK    1  A    between atoms: C2_2  and  C3_3 
ROOT
HETATM    1  C3  UNL     1      26.546   1.753  51.343  1.00  0.00    -0.015 C 
HETATM    2  C4  UNL     1      25.523   1.935  52.442  1.00  0.00     0.029 C 
HETATM    3  C5  UNL     1      24.561   2.363  53.299  1.00  0.00    -0.018 C 
HETATM    4  C6  UNL     1      23.866   3.603  53.368  1.00  0.00     0.018 C 
HETATM    5  C7  UNL     1      23.520   4.886  53.074  1.00  0.00    -0.023 C 
HETATM    6  O1  UNL     1      24.101   5.713  52.112  1.00  0.00     0.000 OA
HETATM    7  C8  UNL     1      23.936   5.688  50.724  1.00  0.00     0.092 C 
HETATM    8  C9  UNL     1      22.827   6.639  50.349  1.00  0.00     0.082 C 
HETATM    9  C10 UNL     1      22.720   6.913  48.921  1.00  0.00    -0.008 C 
HETATM   10 BR1  UNL     1      22.677   7.339  47.068  1.00  0.00    -0.056 Br
HETATM   11  C11 UNL     1      21.659   6.084  48.952  1.00  0.00     0.022 C 
HETATM   12  C12 UNL     1      20.641   5.156  49.537  1.00  0.00    -0.057 C 
HETATM   13  C13 UNL     1      20.421   4.726  50.763  1.00  0.00    -0.024 C 
HETATM   14  C14 UNL     1      19.323   3.786  51.080  1.00  0.00     0.036 C 
HETATM   15  C15 UNL     1      19.828   4.386  48.481  1.00  0.00     0.085 C 
HETATM   16  C16 UNL     1      20.994   3.822  47.631  1.00  0.00     0.095 C 
HETATM   17  N1  UNL     1      22.035   3.803  48.347  1.00  0.00    -0.261 N 
HETATM   18  C17 UNL     1      23.313   3.411  48.049  1.00  0.00     0.226 A 
HETATM   19  N2  UNL     1      23.143   3.920  49.171  1.00  0.00    -0.268 N 
HETATM   20  C18 UNL     1      23.806   4.270  50.337  1.00  0.00     0.175 C 
HETATM   21  C19 UNL     1      25.283   3.897  50.262  1.00  0.00     0.021 C 
HETATM   22  C20 UNL     1      25.842   2.781  50.849  1.00  0.00     0.041 C 
HETATM   23  C21 UNL     1      25.865   5.020  49.514  1.00  0.00     0.247 C 
HETATM   24  O2  UNL     1      26.761   4.878  48.642  1.00  0.00    -0.268 OA
HETATM   25  N3  UNL     1      25.152   6.157  50.056  1.00  0.00    -0.343 N 
HETATM   26  H22 UNL     1      25.526   7.133  49.921  1.00  0.00     0.163 HD
ENDROOT
BRANCH   1  27
HETATM   27  C2  UNL     1      26.834   0.727  51.971  1.00  0.00    -0.004 C 
HETATM   28  C1  UNL     1      26.660  -0.658  52.388  1.00  0.00     0.011 C 
ENDBRANCH   1  27
TORSDOF 1
ENDMDL
MODEL 8
REMARK VINA RESULT:      -7.1      3.457      5.483
REMARK  1 active torsions:
REMARK  status: ('A' for Active; 'I' for Inactive)
REMARK    1  A    between atoms: C2_2  and  C3_3 
ROOT
HETATM    1  C3  UNL     1      22.743   0.204  52.670  1.00  0.00    -0.015 C 
HETATM    2  C4  UNL     1      21.244   0.403  52.622  1.00  0.00     0.029 C 
HETATM    3  C5  UNL     1      19.971   0.860  52.504  1.00  0.00    -0.018 C 
HETATM    4  C6  UNL     1      19.477   2.164  52.214  1.00  0.00     0.018 C 
HETATM    5  C7  UNL     1      19.487   3.501  51.964  1.00  0.00    -0.023 C 
HETATM    6  O1  UNL     1      20.601   4.340  51.921  1.00  0.00     0.000 OA
HETATM    7  C8  UNL     1      21.559   4.468  50.911  1.00  0.00     0.092 C 
HETATM    8  C9  UNL     1      21.139   5.579  49.981  1.00  0.00     0.082 C 
HETATM    9  C10 UNL     1      22.166   6.000  49.036  1.00  0.00    -0.008 C 
HETATM   10 BR1  UNL     1      23.560   6.603  47.893  1.00  0.00    -0.056 Br
HETATM   11  C11 UNL     1      21.456   5.307  48.124  1.00  0.00     0.022 C 
HETATM   12  C12 UNL     1      20.350   4.458  47.581  1.00  0.00    -0.057 C 
HETATM   13  C13 UNL     1      19.267   3.942  48.126  1.00  0.00    -0.024 C 
HETATM   14  C14 UNL     1      18.315   3.117  47.351  1.00  0.00     0.036 C 
HETATM   15  C15 UNL     1      20.635   3.898  46.176  1.00  0.00     0.085 C 
HETATM   16  C16 UNL     1      22.032   3.280  46.431  1.00  0.00     0.095 C 
HETATM   17  N1  UNL     1      22.151   3.065  47.671  1.00  0.00    -0.261 N 
HETATM   18  C17 UNL     1      23.199   2.551  48.388  1.00  0.00     0.226 A 
HETATM   19  N2  UNL     1      22.232   2.967  49.051  1.00  0.00    -0.268 N 
HETATM   20  C18 UNL     1      21.766   3.120  50.347  1.00  0.00     0.175 C 
HETATM   21  C19 UNL     1      22.770   2.579  51.360  1.00  0.00     0.021 C 
HETATM   22  C20 UNL     1      22.674   1.352  51.983  1.00  0.00     0.041 C 
HETATM   23  C21 UNL     1      23.722   3.690  51.499  1.00  0.00     0.247 C 
HETATM   24  O2  UNL     1      24.966   3.525  51.601  1.00  0.00    -0.268 OA
HETATM   25  N3  UNL     1      22.854   4.848  51.480  1.00  0.00    -0.343 N 
HETATM   26  H22 UNL     1      23.202   5.780  51.828  1.00  0.00     0.163 HD
ENDROOT
BRANCH   1  27
HETATM   27  C2  UNL     1      22.442  -0.905  53.128  1.00  0.00    -0.004 C 
HETATM   28  C1  UNL     1      21.915  -1.819  54.132  1.00  0.00     0.011 C 
ENDBRANCH   1  27
TORSDOF 1
ENDMDL
MODEL 9
REMARK VINA RESULT:      -6.9      2.580      3.481
REMARK  1 active torsions:
REMARK  status: ('A' for Active; 'I' for Inactive)
REMARK    1  A    between atoms: C2_2  and  C3_3 
ROOT
HETATM    1  C3  UNL     1      24.986   2.482  51.636  1.00  0.00    -0.015 C 
HETATM    2  C4  UNL     1      23.709   1.695  51.443  1.00  0.00     0.029 C 
HETATM    3  C5  UNL     1      22.436   1.257  51.272  1.00  0.00    -0.018 C 
HETATM    4  C6  UNL     1      21.206   1.975  51.234  1.00  0.00     0.018 C 
HETATM    5  C7  UNL     1      20.343   3.024  51.307  1.00  0.00    -0.023 C 
HETATM    6  O1  UNL     1      20.655   4.350  51.605  1.00  0.00     0.000 OA
HETATM    7  C8  UNL     1      21.253   5.312  50.785  1.00  0.00     0.092 C 
HETATM    8  C9  UNL     1      20.169   6.102  50.093  1.00  0.00     0.082 C 
HETATM    9  C10 UNL     1      20.635   7.305  49.413  1.00  0.00    -0.008 C 
HETATM   10 BR1  UNL     1      21.255   8.923  48.632  1.00  0.00    -0.056 Br
HETATM   11  C11 UNL     1      20.488   6.589  48.281  1.00  0.00     0.022 C 
HETATM   12  C12 UNL     1      20.158   5.413  47.417  1.00  0.00    -0.057 C 
HETATM   13  C13 UNL     1      19.688   4.211  47.683  1.00  0.00    -0.024 C 
HETATM   14  C14 UNL     1      19.447   3.210  46.620  1.00  0.00     0.036 C 
HETATM   15  C15 UNL     1      20.660   5.550  45.969  1.00  0.00     0.085 C 
HETATM   16  C16 UNL     1      22.139   5.913  46.251  1.00  0.00     0.095 C 
HETATM   17  N1  UNL     1      22.434   5.507  47.411  1.00  0.00    -0.261 N 
HETATM   18  C17 UNL     1      23.604   5.605  48.117  1.00  0.00     0.226 A 
HETATM   19  N2  UNL     1      22.632   5.126  48.728  1.00  0.00    -0.268 N 
HETATM   20  C18 UNL     1      22.246   4.605  49.953  1.00  0.00     0.175 C 
HETATM   21  C19 UNL     1      23.415   4.578  50.933  1.00  0.00     0.021 C 
HETATM   22  C20 UNL     1      24.161   3.457  51.234  1.00  0.00     0.041 C 
HETATM   23  C21 UNL     1      23.439   5.953  51.448  1.00  0.00     0.247 C 
HETATM   24  O2  UNL     1      24.502   6.590  51.669  1.00  0.00    -0.268 OA
HETATM   25  N3  UNL     1      22.030   6.258  51.588  1.00  0.00    -0.343 N 
HETATM   26  H22 UNL     1      21.718   7.066  52.187  1.00  0.00     0.163 HD
ENDROOT
BRANCH   1  27
HETATM   27  C2  UNL     1      25.492   1.362  51.780  1.00  0.00    -0.004 C 
HETATM   28  C1  UNL     1      26.482   0.414  52.274  1.00  0.00     0.011 C 
ENDBRANCH   1  27
TORSDOF 1
ENDMDL
