MODEL 1
REMARK VINA RESULT:      -8.2      0.000      0.000
REMARK  4 active torsions:
REMARK  status: ('A' for Active; 'I' for Inactive)
REMARK    1  A    between atoms: C5_6  and  C6_7 
REMARK    2  A    between atoms: C6_7  and  N1_9 
REMARK    3  A    between atoms: N1_9  and  C8_10 
REMARK    4  A    between atoms: C8_10  and  C9_11 
ROOT
HETATM    1  C8  UNL     1      25.555   1.567  52.095  1.00  0.00     0.159 C 
ENDROOT
BRANCH   1   2
HETATM    2  N1  UNL     1      24.509   1.892  53.014  1.00  0.00    -0.386 N 
HETATM    3  H8  UNL     1      24.753   2.625  53.719  1.00  0.00     0.160 HD
BRANCH   2   4
HETATM    4  C6  UNL     1      23.353   1.122  52.745  1.00  0.00     0.031 C 
HETATM    5  C7  UNL     1      23.326   1.493  51.489  1.00  0.00     0.043 C 
BRANCH   4   6
HETATM    6  C5  UNL     1      22.516   0.247  53.546  1.00  0.00     0.019 C 
HETATM    7  C2  UNL     1      22.945  -0.843  54.400  1.00  0.00    -0.029 C 
HETATM    8  C1  UNL     1      24.165  -1.041  54.889  1.00  0.00     0.022 C 
HETATM    9  C3  UNL     1      21.653  -1.611  54.537  1.00  0.00     0.213 C 
HETATM   10  O1  UNL     1      20.737  -0.550  54.369  1.00  0.00    -0.358 OA
HETATM   11  C4  UNL     1      21.220   0.429  53.520  1.00  0.00     0.149 C 
ENDBRANCH   4   6
ENDBRANCH   2   4
ENDBRANCH   1   2
BRANCH   1  12
HETATM   12  C9  UNL     1      26.875   1.308  52.723  1.00  0.00    -0.029 A 
HETATM   13  C10 UNL     1      27.647   2.339  53.238  1.00  0.00     0.010 A 
HETATM   14  C11 UNL     1      28.887   2.099  53.825  1.00  0.00     0.002 A 
HETATM   15  C12 UNL     1      29.393   0.816  53.913  1.00  0.00     0.012 A 
HETATM   16  C13 UNL     1      28.640  -0.226  53.406  1.00  0.00    -0.025 A 
HETATM   17  C14 UNL     1      29.096  -1.529  53.465  1.00  0.00     0.012 A 
HETATM   18  C18 UNL     1      27.425   0.038  52.835  1.00  0.00    -0.018 A 
HETATM   19  C15 UNL     1      28.389  -2.611  52.974  1.00  0.00     0.001 A 
HETATM   20  C16 UNL     1      27.158  -2.328  52.398  1.00  0.00     0.001 A 
HETATM   21  C17 UNL     1      26.703  -1.026  52.340  1.00  0.00     0.013 A 
ENDBRANCH   1  12
TORSDOF 4
ENDMDL
MODEL 2
REMARK VINA RESULT:      -8.1      2.255      6.281
REMARK  4 active torsions:
REMARK  status: ('A' for Active; 'I' for Inactive)
REMARK    1  A    between atoms: C5_6  and  C6_7 
REMARK    2  A    between atoms: C6_7  and  N1_9 
REMARK    3  A    between atoms: N1_9  and  C8_10 
REMARK    4  A    between atoms: C8_10  and  C9_11 
ROOT
HETATM    1  C8  UNL     1      25.089  -0.265  54.511  1.00  0.00     0.159 C 
ENDROOT
BRANCH   1   2
HETATM    2  N1  UNL     1      25.986  -1.269  54.029  1.00  0.00    -0.386 N 
HETATM    3  H8  UNL     1      25.818  -2.228  54.407  1.00  0.00     0.160 HD
BRANCH   2   4
HETATM    4  C6  UNL     1      26.918  -0.709  53.124  1.00  0.00     0.031 C 
HETATM    5  C7  UNL     1      26.662  -1.611  52.209  1.00  0.00     0.043 C 
BRANCH   4   6
HETATM    6  C5  UNL     1      27.814   0.432  53.177  1.00  0.00     0.019 C 
HETATM    7  C2  UNL     1      29.176   0.459  53.674  1.00  0.00    -0.029 C 
HETATM    8  C1  UNL     1      29.983  -0.583  53.850  1.00  0.00     0.022 C 
HETATM    9  C3  UNL     1      29.356   1.940  53.904  1.00  0.00     0.213 C 
HETATM   10  O1  UNL     1      28.457   2.433  52.934  1.00  0.00    -0.358 OA
HETATM   11  C4  UNL     1      27.381   1.586  52.740  1.00  0.00     0.149 C 
ENDBRANCH   4   6
ENDBRANCH   2   4
ENDBRANCH   1   2
BRANCH   1  12
HETATM   12  C9  UNL     1      23.661  -0.496  54.180  1.00  0.00    -0.029 A 
HETATM   13  C10 UNL     1      22.861  -1.324  54.956  1.00  0.00     0.010 A 
HETATM   14  C11 UNL     1      21.522  -1.545  54.645  1.00  0.00     0.002 A 
HETATM   15  C12 UNL     1      20.941  -0.943  53.545  1.00  0.00     0.012 A 
HETATM   16  C13 UNL     1      21.719  -0.115  52.758  1.00  0.00    -0.025 A 
HETATM   17  C14 UNL     1      21.192   0.512  51.645  1.00  0.00     0.012 A 
HETATM   18  C18 UNL     1      23.032   0.085  53.086  1.00  0.00    -0.018 A 
HETATM   19  C15 UNL     1      21.921   1.349  50.821  1.00  0.00     0.001 A 
HETATM   20  C16 UNL     1      23.251   1.543  51.167  1.00  0.00     0.001 A 
HETATM   21  C17 UNL     1      23.777   0.917  52.278  1.00  0.00     0.013 A 
ENDBRANCH   1  12
TORSDOF 4
ENDMDL
MODEL 3
REMARK VINA RESULT:      -8.1      2.117      6.316
REMARK  4 active torsions:
REMARK  status: ('A' for Active; 'I' for Inactive)
REMARK    1  A    between atoms: C5_6  and  C6_7 
REMARK    2  A    between atoms: C6_7  and  N1_9 
REMARK    3  A    between atoms: N1_9  and  C8_10 
REMARK    4  A    between atoms: C8_10  and  C9_11 
ROOT
HETATM    1  C8  UNL     1      24.274   0.736  52.243  1.00  0.00     0.159 C 
ENDROOT
BRANCH   1   2
HETATM    2  N1  UNL     1      25.427   1.147  52.982  1.00  0.00    -0.386 N 
HETATM    3  H8  UNL     1      25.236   1.812  53.765  1.00  0.00     0.160 HD
BRANCH   2   4
HETATM    4  C6  UNL     1      26.593   0.536  52.463  1.00  0.00     0.031 C 
HETATM    5  C7  UNL     1      26.698   1.418  51.499  1.00  0.00     0.043 C 
BRANCH   4   6
HETATM    6  C5  UNL     1      27.382  -0.620  52.848  1.00  0.00     0.019 C 
HETATM    7  C2  UNL     1      28.689  -0.624  53.476  1.00  0.00    -0.029 C 
HETATM    8  C1  UNL     1      29.266   0.380  54.127  1.00  0.00     0.022 C 
HETATM    9  C3  UNL     1      29.138  -2.033  53.167  1.00  0.00     0.213 C 
HETATM   10  O1  UNL     1      27.877  -2.663  53.090  1.00  0.00    -0.358 OA
HETATM   11  C4  UNL     1      26.895  -1.812  52.617  1.00  0.00     0.149 C 
ENDBRANCH   4   6
ENDBRANCH   2   4
ENDBRANCH   1   2
BRANCH   1  12
HETATM   12  C9  UNL     1      23.231   0.053  53.048  1.00  0.00    -0.029 A 
HETATM   13  C10 UNL     1      23.548  -0.638  54.209  1.00  0.00     0.010 A 
HETATM   14  C11 UNL     1      22.571  -1.282  54.964  1.00  0.00     0.002 A 
HETATM   15  C12 UNL     1      21.244  -1.254  54.579  1.00  0.00     0.012 A 
HETATM   16  C13 UNL     1      20.906  -0.572  53.426  1.00  0.00    -0.025 A 
HETATM   17  C14 UNL     1      19.596  -0.512  52.992  1.00  0.00     0.012 A 
HETATM   18  C18 UNL     1      21.886   0.052  52.703  1.00  0.00    -0.018 A 
HETATM   19  C15 UNL     1      19.198   0.154  51.847  1.00  0.00     0.001 A 
HETATM   20  C16 UNL     1      20.202   0.783  51.124  1.00  0.00     0.001 A 
HETATM   21  C17 UNL     1      21.511   0.723  51.558  1.00  0.00     0.013 A 
ENDBRANCH   1  12
TORSDOF 4
ENDMDL
MODEL 4
REMARK VINA RESULT:      -7.9      2.266      5.825
REMARK  4 active torsions:
REMARK  status: ('A' for Active; 'I' for Inactive)
REMARK    1  A    between atoms: C5_6  and  C6_7 
REMARK    2  A    between atoms: C6_7  and  N1_9 
REMARK    3  A    between atoms: N1_9  and  C8_10 
REMARK    4  A    between atoms: C8_10  and  C9_11 
ROOT
HETATM    1  C8  UNL     1      24.430   1.901  51.512  1.00  0.00     0.159 C 
ENDROOT
BRANCH   1   2
HETATM    2  N1  UNL     1      25.324   2.699  52.292  1.00  0.00    -0.386 N 
HETATM    3  H8  UNL     1      24.873   3.485  52.814  1.00  0.00     0.160 HD
BRANCH   2   4
HETATM    4  C6  UNL     1      26.651   2.223  52.171  1.00  0.00     0.031 C 
HETATM    5  C7  UNL     1      26.699   2.507  50.893  1.00  0.00     0.043 C 
BRANCH   4   6
HETATM    6  C5  UNL     1      27.603   1.646  53.103  1.00  0.00     0.019 C 
HETATM    7  C2  UNL     1      27.751   0.248  53.458  1.00  0.00    -0.029 C 
HETATM    8  C1  UNL     1      27.305  -0.801  52.773  1.00  0.00     0.022 C 
HETATM    9  C3  UNL     1      28.516   0.372  54.754  1.00  0.00     0.213 C 
HETATM   10  O1  UNL     1      29.183   1.592  54.510  1.00  0.00    -0.358 OA
HETATM   11  C4  UNL     1      28.439   2.445  53.715  1.00  0.00     0.149 C 
ENDBRANCH   4   6
ENDBRANCH   2   4
ENDBRANCH   1   2
BRANCH   1  12
HETATM   12  C9  UNL     1      23.089   1.700  52.115  1.00  0.00    -0.029 A 
HETATM   13  C10 UNL     1      21.998   2.465  51.728  1.00  0.00     0.010 A 
HETATM   14  C11 UNL     1      20.739   2.280  52.294  1.00  0.00     0.002 A 
HETATM   15  C12 UNL     1      20.535   1.322  53.269  1.00  0.00     0.012 A 
HETATM   16  C13 UNL     1      21.607   0.550  53.670  1.00  0.00    -0.025 A 
HETATM   17  C14 UNL     1      21.462  -0.423  54.641  1.00  0.00     0.012 A 
HETATM   18  C18 UNL     1      22.833   0.752  53.097  1.00  0.00    -0.018 A 
HETATM   19  C15 UNL     1      22.498  -1.224  55.083  1.00  0.00     0.001 A 
HETATM   20  C16 UNL     1      23.735  -1.009  54.492  1.00  0.00     0.001 A 
HETATM   21  C17 UNL     1      23.880  -0.038  53.522  1.00  0.00     0.013 A 
ENDBRANCH   1  12
TORSDOF 4
ENDMDL
MODEL 5
REMARK VINA RESULT:      -7.9      2.298      6.306
REMARK  4 active torsions:
REMARK  status: ('A' for Active; 'I' for Inactive)
REMARK    1  A    between atoms: C5_6  and  C6_7 
REMARK    2  A    between atoms: C6_7  and  N1_9 
REMARK    3  A    between atoms: N1_9  and  C8_10 
REMARK    4  A    between atoms: C8_10  and  C9_11 
ROOT
HETATM    1  C8  UNL     1      24.851  -0.063  53.681  1.00  0.00     0.159 C 
ENDROOT
BRANCH   1   2
HETATM    2  N1  UNL     1      25.656  -1.067  53.057  1.00  0.00    -0.386 N 
HETATM    3  H8  UNL     1      25.121  -1.850  52.617  1.00  0.00     0.160 HD
BRANCH   2   4
HETATM    4  C6  UNL     1      27.029  -0.754  53.186  1.00  0.00     0.031 C 
HETATM    5  C7  UNL     1      27.399  -1.877  52.621  1.00  0.00     0.043 C 
BRANCH   4   6
HETATM    6  C5  UNL     1      27.758   0.377  53.730  1.00  0.00     0.019 C 
HETATM    7  C2  UNL     1      27.941   1.681  53.121  1.00  0.00    -0.029 C 
HETATM    8  C1  UNL     1      27.217   2.214  52.142  1.00  0.00     0.022 C 
HETATM    9  C3  UNL     1      29.129   2.186  53.905  1.00  0.00     0.213 C 
HETATM   10  O1  UNL     1      28.927   1.477  55.109  1.00  0.00    -0.358 OA
HETATM   11  C4  UNL     1      28.333   0.247  54.898  1.00  0.00     0.149 C 
ENDBRANCH   4   6
ENDBRANCH   2   4
ENDBRANCH   1   2
BRANCH   1  12
HETATM   12  C9  UNL     1      23.708   0.413  52.863  1.00  0.00    -0.029 A 
HETATM   13  C10 UNL     1      23.883   1.329  51.836  1.00  0.00     0.010 A 
HETATM   14  C11 UNL     1      22.811   1.779  51.069  1.00  0.00     0.002 A 
HETATM   15  C12 UNL     1      21.528   1.326  51.309  1.00  0.00     0.012 A 
HETATM   16  C13 UNL     1      21.330   0.414  52.328  1.00  0.00    -0.025 A 
HETATM   17  C14 UNL     1      20.069  -0.073  52.614  1.00  0.00     0.012 A 
HETATM   18  C18 UNL     1      22.401  -0.012  53.066  1.00  0.00    -0.018 A 
HETATM   19  C15 UNL     1      19.810  -0.984  53.621  1.00  0.00     0.001 A 
HETATM   20  C16 UNL     1      20.906  -1.408  54.360  1.00  0.00     0.001 A 
HETATM   21  C17 UNL     1      22.165  -0.922  54.074  1.00  0.00     0.013 A 
ENDBRANCH   1  12
TORSDOF 4
ENDMDL
MODEL 6
REMARK VINA RESULT:      -7.4      1.190      2.119
REMARK  4 active torsions:
REMARK  status: ('A' for Active; 'I' for Inactive)
REMARK    1  A    between atoms: C5_6  and  C6_7 
REMARK    2  A    between atoms: C6_7  and  N1_9 
REMARK    3  A    between atoms: N1_9  and  C8_10 
REMARK    4  A    between atoms: C8_10  and  C9_11 
ROOT
HETATM    1  C8  UNL     1      25.077   0.503  52.295  1.00  0.00     0.159 C 
ENDROOT
BRANCH   1   2
HETATM    2  N1  UNL     1      24.045   1.054  53.117  1.00  0.00    -0.386 N 
HETATM    3  H8  UNL     1      24.257   1.995  53.520  1.00  0.00     0.160 HD
BRANCH   2   4
HETATM    4  C6  UNL     1      22.944   0.169  53.194  1.00  0.00     0.031 C 
HETATM    5  C7  UNL     1      23.602  -0.679  53.946  1.00  0.00     0.043 C 
BRANCH   4   6
HETATM    6  C5  UNL     1      21.596   0.187  52.655  1.00  0.00     0.019 C 
HETATM    7  C2  UNL     1      21.165   0.725  51.379  1.00  0.00    -0.029 C 
HETATM    8  C1  UNL     1      21.930   0.986  50.324  1.00  0.00     0.022 C 
HETATM    9  C3  UNL     1      19.684   0.877  51.631  1.00  0.00     0.213 C 
HETATM   10  O1  UNL     1      19.508  -0.148  52.586  1.00  0.00    -0.358 OA
HETATM   11  C4  UNL     1      20.631  -0.329  53.372  1.00  0.00     0.149 C 
ENDBRANCH   4   6
ENDBRANCH   2   4
ENDBRANCH   1   2
BRANCH   1  12
HETATM   12  C9  UNL     1      26.457   0.767  52.771  1.00  0.00    -0.029 A 
HETATM   13  C10 UNL     1      26.888   2.052  53.069  1.00  0.00     0.010 A 
HETATM   14  C11 UNL     1      28.184   2.302  53.513  1.00  0.00     0.002 A 
HETATM   15  C12 UNL     1      29.091   1.271  53.672  1.00  0.00     0.012 A 
HETATM   16  C13 UNL     1      28.683  -0.016  53.381  1.00  0.00    -0.025 A 
HETATM   17  C14 UNL     1      29.547  -1.086  53.519  1.00  0.00     0.012 A 
HETATM   18  C18 UNL     1      27.404  -0.234  52.946  1.00  0.00    -0.018 A 
HETATM   19  C15 UNL     1      29.196  -2.394  53.242  1.00  0.00     0.001 A 
HETATM   20  C16 UNL     1      27.895  -2.601  52.803  1.00  0.00     0.001 A 
HETATM   21  C17 UNL     1      27.033  -1.532  52.665  1.00  0.00     0.013 A 
ENDBRANCH   1  12
TORSDOF 4
ENDMDL
MODEL 7
REMARK VINA RESULT:      -7.4      0.812      2.425
REMARK  4 active torsions:
REMARK  status: ('A' for Active; 'I' for Inactive)
REMARK    1  A    between atoms: C5_6  and  C6_7 
REMARK    2  A    between atoms: C6_7  and  N1_9 
REMARK    3  A    between atoms: N1_9  and  C8_10 
REMARK    4  A    between atoms: C8_10  and  C9_11 
ROOT
HETATM    1  C8  UNL     1      25.181   1.542  51.909  1.00  0.00     0.159 C 
ENDROOT
BRANCH   1   2
HETATM    2  N1  UNL     1      23.877   1.057  51.578  1.00  0.00    -0.386 N 
HETATM    3  H8  UNL     1      23.794   0.629  50.628  1.00  0.00     0.160 HD
BRANCH   2   4
HETATM    4  C6  UNL     1      22.978   1.279  52.647  1.00  0.00     0.031 C 
HETATM    5  C7  UNL     1      23.248   2.560  52.688  1.00  0.00     0.043 C 
BRANCH   4   6
HETATM    6  C5  UNL     1      22.088   0.421  53.409  1.00  0.00     0.019 C 
HETATM    7  C2  UNL     1      22.455  -0.687  54.268  1.00  0.00    -0.029 C 
HETATM    8  C1  UNL     1      23.650  -0.924  54.799  1.00  0.00     0.022 C 
HETATM    9  C3  UNL     1      21.137  -1.420  54.351  1.00  0.00     0.213 C 
HETATM   10  O1  UNL     1      20.258  -0.332  54.159  1.00  0.00    -0.358 OA
HETATM   11  C4  UNL     1      20.800   0.639  53.338  1.00  0.00     0.149 C 
ENDBRANCH   4   6
ENDBRANCH   2   4
ENDBRANCH   1   2
BRANCH   1  12
HETATM   12  C9  UNL     1      26.147   0.493  52.321  1.00  0.00    -0.029 A 
HETATM   13  C10 UNL     1      25.899  -0.852  52.090  1.00  0.00     0.010 A 
HETATM   14  C11 UNL     1      26.803  -1.838  52.478  1.00  0.00     0.002 A 
HETATM   15  C12 UNL     1      27.986  -1.505  53.112  1.00  0.00     0.012 A 
HETATM   16  C13 UNL     1      28.253  -0.172  53.352  1.00  0.00    -0.025 A 
HETATM   17  C14 UNL     1      29.418   0.219  53.984  1.00  0.00     0.012 A 
HETATM   18  C18 UNL     1      27.347   0.777  52.961  1.00  0.00    -0.018 A 
HETATM   19  C15 UNL     1      29.739   1.537  54.252  1.00  0.00     0.001 A 
HETATM   20  C16 UNL     1      28.812   2.488  53.848  1.00  0.00     0.001 A 
HETATM   21  C17 UNL     1      27.648   2.097  53.217  1.00  0.00     0.013 A 
ENDBRANCH   1  12
TORSDOF 4
ENDMDL
MODEL 8
REMARK VINA RESULT:      -7.3      2.490      3.739
REMARK  4 active torsions:
REMARK  status: ('A' for Active; 'I' for Inactive)
REMARK    1  A    between atoms: C5_6  and  C6_7 
REMARK    2  A    between atoms: C6_7  and  N1_9 
REMARK    3  A    between atoms: N1_9  and  C8_10 
REMARK    4  A    between atoms: C8_10  and  C9_11 
ROOT
HETATM    1  C8  UNL     1      25.958   2.036  52.216  1.00  0.00     0.159 C 
ENDROOT
BRANCH   1   2
HETATM    2  N1  UNL     1      25.167   2.876  53.061  1.00  0.00    -0.386 N 
HETATM    3  H8  UNL     1      25.640   3.191  53.937  1.00  0.00     0.160 HD
BRANCH   2   4
HETATM    4  C6  UNL     1      23.888   3.089  52.493  1.00  0.00     0.031 C 
HETATM    5  C7  UNL     1      23.471   1.896  52.837  1.00  0.00     0.043 C 
BRANCH   4   6
HETATM    6  C5  UNL     1      23.267   4.203  51.799  1.00  0.00     0.019 C 
HETATM    7  C2  UNL     1      23.669   4.786  50.534  1.00  0.00    -0.029 C 
HETATM    8  C1  UNL     1      24.439   4.228  49.606  1.00  0.00     0.022 C 
HETATM    9  C3  UNL     1      22.978   6.126  50.617  1.00  0.00     0.213 C 
HETATM   10  O1  UNL     1      21.893   5.774  51.449  1.00  0.00    -0.358 OA
HETATM   11  C4  UNL     1      22.225   4.775  52.345  1.00  0.00     0.149 C 
ENDBRANCH   4   6
ENDBRANCH   2   4
ENDBRANCH   1   2
BRANCH   1  12
HETATM   12  C9  UNL     1      27.203   1.524  52.840  1.00  0.00    -0.029 A 
HETATM   13  C10 UNL     1      28.119   2.378  53.436  1.00  0.00     0.010 A 
HETATM   14  C11 UNL     1      29.290   1.899  54.020  1.00  0.00     0.002 A 
HETATM   15  C12 UNL     1      29.580   0.548  54.023  1.00  0.00     0.012 A 
HETATM   16  C13 UNL     1      28.681  -0.320  53.434  1.00  0.00    -0.025 A 
HETATM   17  C14 UNL     1      28.919  -1.681  53.406  1.00  0.00     0.012 A 
HETATM   18  C18 UNL     1      27.538   0.176  52.868  1.00  0.00    -0.018 A 
HETATM   19  C15 UNL     1      28.058  -2.598  52.831  1.00  0.00     0.001 A 
HETATM   20  C16 UNL     1      26.903  -2.080  52.262  1.00  0.00     0.001 A 
HETATM   21  C17 UNL     1      26.666  -0.720  52.290  1.00  0.00     0.013 A 
ENDBRANCH   1  12
TORSDOF 4
ENDMDL
MODEL 9
REMARK VINA RESULT:      -7.2      4.330      6.838
REMARK  4 active torsions:
REMARK  status: ('A' for Active; 'I' for Inactive)
REMARK    1  A    between atoms: C5_6  and  C6_7 
REMARK    2  A    between atoms: C6_7  and  N1_9 
REMARK    3  A    between atoms: N1_9  and  C8_10 
REMARK    4  A    between atoms: C8_10  and  C9_11 
ROOT
HETATM    1  C8  UNL     1      26.332   2.916  50.336  1.00  0.00     0.159 C 
ENDROOT
BRANCH   1   2
HETATM    2  N1  UNL     1      26.278   2.865  51.764  1.00  0.00    -0.386 N 
HETATM    3  H8  UNL     1      26.222   3.795  52.237  1.00  0.00     0.160 HD
BRANCH   2   4
HETATM    4  C6  UNL     1      26.313   1.524  52.215  1.00  0.00     0.031 C 
HETATM    5  C7  UNL     1      25.090   1.292  51.807  1.00  0.00     0.043 C 
BRANCH   4   6
HETATM    6  C5  UNL     1      27.318   0.708  52.873  1.00  0.00     0.019 C 
HETATM    7  C2  UNL     1      28.569   1.153  53.457  1.00  0.00    -0.029 C 
HETATM    8  C1  UNL     1      28.887   2.393  53.814  1.00  0.00     0.022 C 
HETATM    9  C3  UNL     1      29.324  -0.154  53.517  1.00  0.00     0.213 C 
HETATM   10  O1  UNL     1      28.233  -1.043  53.629  1.00  0.00    -0.358 OA
HETATM   11  C4  UNL     1      27.110  -0.580  52.969  1.00  0.00     0.149 C 
ENDBRANCH   4   6
ENDBRANCH   2   4
ENDBRANCH   1   2
BRANCH   1  12
HETATM   12  C9  UNL     1      25.748   4.141  49.737  1.00  0.00    -0.029 A 
HETATM   13  C10 UNL     1      24.391   4.417  49.826  1.00  0.00     0.010 A 
HETATM   14  C11 UNL     1      23.841   5.565  49.261  1.00  0.00     0.002 A 
HETATM   15  C12 UNL     1      24.635   6.474  48.588  1.00  0.00     0.012 A 
HETATM   16  C13 UNL     1      25.989   6.219  48.487  1.00  0.00    -0.025 A 
HETATM   17  C14 UNL     1      26.831   7.092  47.824  1.00  0.00     0.012 A 
HETATM   18  C18 UNL     1      26.503   5.084  49.051  1.00  0.00    -0.018 A 
HETATM   19  C15 UNL     1      28.192   6.890  47.689  1.00  0.00     0.001 A 
HETATM   20  C16 UNL     1      28.700   5.735  48.268  1.00  0.00     0.001 A 
HETATM   21  C17 UNL     1      27.858   4.864  48.929  1.00  0.00     0.013 A 
ENDBRANCH   1  12
TORSDOF 4
ENDMDL
