MODEL 1
REMARK VINA RESULT:      -7.5      0.000      0.000
REMARK  2 active torsions:
REMARK  status: ('A' for Active; 'I' for Inactive)
REMARK    1  A    between atoms: C5_5  and  O1_6 
REMARK    2  A    between atoms: C12_16  and  O4_17 
ROOT
HETATM    1  C1  UNL     1      24.942   2.503  53.586  1.00  0.00     0.048 C 
HETATM    2  C2  UNL     1      25.490   1.857  52.305  1.00  0.00     0.087 A 
HETATM    3  C3  UNL     1      25.514   2.689  51.220  1.00  0.00     0.109 A 
HETATM    4  C4  UNL     1      26.816   2.641  51.884  1.00  0.00     0.086 A 
HETATM    5  C5  UNL     1      27.381   1.988  53.000  1.00  0.00     0.146 C 
HETATM    6  C6  UNL     1      27.060   0.502  53.052  1.00  0.00     0.284 C 
HETATM    7  N1  UNL     1      26.070   0.115  54.020  1.00  0.00    -0.243 NA
HETATM    8  C7  UNL     1      25.784  -1.096  54.316  1.00  0.00     0.259 C 
HETATM    9  O2  UNL     1      24.748  -1.358  55.299  1.00  0.00    -0.269 OA
HETATM   10  C8  UNL     1      23.445  -0.937  54.926  1.00  0.00     0.288 C 
HETATM   11  O3  UNL     1      24.071  -0.581  53.925  1.00  0.00    -0.260 OA
HETATM   12  C9  UNL     1      22.084  -0.473  54.483  1.00  0.00     0.082 C 
HETATM   13  C10 UNL     1      21.989   0.149  53.314  1.00  0.00     0.011 C 
HETATM   14  C11 UNL     1      21.597   0.844  52.095  1.00  0.00     0.064 C 
HETATM   15  C12 UNL     1      21.851   1.432  50.898  1.00  0.00     0.186 C 
HETATM   16  O5  UNL     1      23.210   1.466  50.481  1.00  0.00    -0.255 OA
HETATM   17  C13 UNL     1      24.138   2.270  51.114  1.00  0.00     0.279 C 
HETATM   18  O6  UNL     1      23.073   2.575  51.718  1.00  0.00    -0.264 OA
HETATM   19  O7  UNL     1      26.009   0.561  51.922  1.00  0.00    -0.349 OA
ENDROOT
BRANCH   5  20
HETATM   20  O1  UNL     1      28.104   2.871  53.795  1.00  0.00    -0.381 OA
HETATM   21  H5  UNL     1      28.377   2.565  54.708  1.00  0.00     0.211 HD
ENDBRANCH   5  20
BRANCH  15  22
HETATM   22  O4  UNL     1      20.706   1.900  50.312  1.00  0.00    -0.341 OA
HETATM   23  H11 UNL     1      20.346   1.384  49.492  1.00  0.00     0.220 HD
ENDBRANCH  15  22
TORSDOF 2
ENDMDL
MODEL 2
REMARK VINA RESULT:      -7.3      2.229      5.797
REMARK  2 active torsions:
REMARK  status: ('A' for Active; 'I' for Inactive)
REMARK    1  A    between atoms: C5_5  and  O1_6 
REMARK    2  A    between atoms: C12_16  and  O4_17 
ROOT
HETATM    1  C1  UNL     1      23.310   3.079  52.756  1.00  0.00     0.048 C 
HETATM    2  C2  UNL     1      22.912   1.686  52.246  1.00  0.00     0.087 A 
HETATM    3  C3  UNL     1      22.880   0.720  53.213  1.00  0.00     0.109 A 
HETATM    4  C4  UNL     1      21.548   1.267  52.961  1.00  0.00     0.086 A 
HETATM    5  C5  UNL     1      20.976   2.241  52.116  1.00  0.00     0.146 C 
HETATM    6  C6  UNL     1      21.435   2.124  50.670  1.00  0.00     0.284 C 
HETATM    7  N1  UNL     1      22.392   3.109  50.242  1.00  0.00    -0.243 NA
HETATM    8  C7  UNL     1      22.773   3.266  49.031  1.00  0.00     0.259 C 
HETATM    9  O2  UNL     1      23.762   4.286  48.729  1.00  0.00    -0.269 OA
HETATM   10  C8  UNL     1      25.040   4.074  49.309  1.00  0.00     0.288 C 
HETATM   11  O3  UNL     1      24.451   3.082  49.742  1.00  0.00    -0.260 OA
HETATM   12  C9  UNL     1      26.376   3.803  49.945  1.00  0.00     0.082 C 
HETATM   13  C10 UNL     1      26.488   2.736  50.727  1.00  0.00     0.011 C 
HETATM   14  C11 UNL     1      26.891   1.652  51.613  1.00  0.00     0.064 C 
HETATM   15  C12 UNL     1      26.661   0.525  52.334  1.00  0.00     0.186 C 
HETATM   16  O5  UNL     1      25.336   0.011  52.307  1.00  0.00    -0.255 OA
HETATM   17  C13 UNL     1      24.294   0.668  52.933  1.00  0.00     0.279 C 
HETATM   18  O6  UNL     1      25.283   1.388  53.245  1.00  0.00    -0.264 OA
HETATM   19  O7  UNL     1      22.548   1.098  50.975  1.00  0.00    -0.349 OA
ENDROOT
BRANCH   5  20
HETATM   20  O1  UNL     1      20.120   3.085  52.816  1.00  0.00    -0.381 OA
HETATM   21  H5  UNL     1      19.231   3.296  52.408  1.00  0.00     0.211 HD
ENDBRANCH   5  20
BRANCH  15  22
HETATM   22  O4  UNL     1      27.791   0.097  52.977  1.00  0.00    -0.341 OA
HETATM   23  H11 UNL     1      27.938   0.419  53.948  1.00  0.00     0.220 HD
ENDBRANCH  15  22
TORSDOF 2
ENDMDL
MODEL 3
REMARK VINA RESULT:      -7.3      1.727      4.228
REMARK  2 active torsions:
REMARK  status: ('A' for Active; 'I' for Inactive)
REMARK    1  A    between atoms: C5_5  and  O1_6 
REMARK    2  A    between atoms: C12_16  and  O4_17 
ROOT
HETATM    1  C1  UNL     1      26.947  -0.400  52.824  1.00  0.00     0.048 C 
HETATM    2  C2  UNL     1      27.001   0.448  54.103  1.00  0.00     0.087 A 
HETATM    3  C3  UNL     1      27.399  -0.237  55.217  1.00  0.00     0.109 A 
HETATM    4  C4  UNL     1      28.515   0.485  54.609  1.00  0.00     0.086 A 
HETATM    5  C5  UNL     1      28.712   1.329  53.495  1.00  0.00     0.146 C 
HETATM    6  C6  UNL     1      27.661   2.422  53.377  1.00  0.00     0.284 C 
HETATM    7  N1  UNL     1      26.670   2.221  52.354  1.00  0.00    -0.243 NA
HETATM    8  C7  UNL     1      25.806   3.097  52.003  1.00  0.00     0.259 C 
HETATM    9  O2  UNL     1      24.844   2.765  50.967  1.00  0.00    -0.269 OA
HETATM   10  C8  UNL     1      23.940   1.722  51.299  1.00  0.00     0.288 C 
HETATM   11  O3  UNL     1      24.602   1.758  52.338  1.00  0.00    -0.260 OA
HETATM   12  C9  UNL     1      23.005   0.614  51.700  1.00  0.00     0.082 C 
HETATM   13  C10 UNL     1      23.186   0.044  52.886  1.00  0.00     0.011 C 
HETATM   14  C11 UNL     1      23.153  -0.743  54.111  1.00  0.00     0.064 C 
HETATM   15  C12 UNL     1      23.612  -1.099  55.338  1.00  0.00     0.186 C 
HETATM   16  O5  UNL     1      24.760  -0.408  55.813  1.00  0.00    -0.255 OA
HETATM   17  C13 UNL     1      26.005  -0.606  55.250  1.00  0.00     0.279 C 
HETATM   18  O6  UNL     1      25.296  -1.432  54.612  1.00  0.00    -0.264 OA
HETATM   19  O7  UNL     1      26.738   1.826  54.462  1.00  0.00    -0.349 OA
ENDROOT
BRANCH   5  20
HETATM   20  O1  UNL     1      29.834   0.954  52.764  1.00  0.00    -0.381 OA
HETATM   21  H5  UNL     1      30.218   0.044  52.925  1.00  0.00     0.211 HD
ENDBRANCH   5  20
BRANCH  15  22
HETATM   22  O4  UNL     1      22.855  -2.097  55.891  1.00  0.00    -0.341 OA
HETATM   23  H11 UNL     1      22.131  -2.531  55.294  1.00  0.00     0.220 HD
ENDBRANCH  15  22
TORSDOF 2
ENDMDL
MODEL 4
REMARK VINA RESULT:      -7.2      1.771      2.831
REMARK  2 active torsions:
REMARK  status: ('A' for Active; 'I' for Inactive)
REMARK    1  A    between atoms: C5_5  and  O1_6 
REMARK    2  A    between atoms: C12_16  and  O4_17 
ROOT
HETATM    1  C1  UNL     1      24.351   2.151  53.505  1.00  0.00     0.048 C 
HETATM    2  C2  UNL     1      24.329   1.257  52.257  1.00  0.00     0.087 A 
HETATM    3  C3  UNL     1      23.236   1.434  51.456  1.00  0.00     0.109 A 
HETATM    4  C4  UNL     1      24.382   2.201  50.970  1.00  0.00     0.086 A 
HETATM    5  C5  UNL     1      25.722   2.408  51.358  1.00  0.00     0.146 C 
HETATM    6  C6  UNL     1      26.456   1.119  51.694  1.00  0.00     0.284 C 
HETATM    7  N1  UNL     1      26.666   0.872  53.095  1.00  0.00    -0.243 NA
HETATM    8  C7  UNL     1      27.392  -0.073  53.561  1.00  0.00     0.259 C 
HETATM    9  O2  UNL     1      27.510  -0.230  55.000  1.00  0.00    -0.269 OA
HETATM   10  C8  UNL     1      26.304  -0.565  55.668  1.00  0.00     0.288 C 
HETATM   11  O3  UNL     1      25.886  -0.499  54.510  1.00  0.00    -0.260 OA
HETATM   12  C9  UNL     1      24.999  -0.921  56.328  1.00  0.00     0.082 C 
HETATM   13  C10 UNL     1      23.916  -0.997  55.565  1.00  0.00     0.011 C 
HETATM   14  C11 UNL     1      22.591  -1.150  54.979  1.00  0.00     0.064 C 
HETATM   15  C12 UNL     1      21.711  -1.131  53.945  1.00  0.00     0.186 C 
HETATM   16  O5  UNL     1      22.233  -0.772  52.673  1.00  0.00    -0.255 OA
HETATM   17  C13 UNL     1      22.640   0.520  52.398  1.00  0.00     0.279 C 
HETATM   18  O6  UNL     1      22.188   0.631  53.571  1.00  0.00    -0.264 OA
HETATM   19  O7  UNL     1      25.184   0.243  51.676  1.00  0.00    -0.349 OA
ENDROOT
BRANCH   5  20
HETATM   20  O1  UNL     1      26.056   3.759  51.341  1.00  0.00    -0.381 OA
HETATM   21  H5  UNL     1      25.570   4.371  51.966  1.00  0.00     0.211 HD
ENDBRANCH   5  20
BRANCH  15  22
HETATM   22  O4  UNL     1      20.447  -1.466  54.350  1.00  0.00    -0.341 OA
HETATM   23  H11 UNL     1      20.284  -2.444  54.642  1.00  0.00     0.220 HD
ENDBRANCH  15  22
TORSDOF 2
ENDMDL
MODEL 5
REMARK VINA RESULT:      -7.2      2.219      4.354
REMARK  2 active torsions:
REMARK  status: ('A' for Active; 'I' for Inactive)
REMARK    1  A    between atoms: C5_5  and  O1_6 
REMARK    2  A    between atoms: C12_16  and  O4_17 
ROOT
HETATM    1  C1  UNL     1      23.632   3.484  53.128  1.00  0.00     0.048 C 
HETATM    2  C2  UNL     1      22.917   3.116  51.819  1.00  0.00     0.087 A 
HETATM    3  C3  UNL     1      21.560   2.988  51.935  1.00  0.00     0.109 A 
HETATM    4  C4  UNL     1      21.931   4.313  51.440  1.00  0.00     0.086 A 
HETATM    5  C5  UNL     1      23.123   5.001  51.128  1.00  0.00     0.146 C 
HETATM    6  C6  UNL     1      24.086   4.181  50.284  1.00  0.00     0.284 C 
HETATM    7  N1  UNL     1      25.225   3.649  50.984  1.00  0.00    -0.243 NA
HETATM    8  C7  UNL     1      26.215   3.071  50.416  1.00  0.00     0.259 C 
HETATM    9  O2  UNL     1      27.299   2.558  51.236  1.00  0.00    -0.269 OA
HETATM   10  C8  UNL     1      26.939   1.506  52.117  1.00  0.00     0.288 C 
HETATM   11  O3  UNL     1      25.845   1.715  51.590  1.00  0.00    -0.260 OA
HETATM   12  C9  UNL     1      26.506   0.392  53.032  1.00  0.00     0.082 C 
HETATM   13  C10 UNL     1      25.224   0.049  53.032  1.00  0.00     0.011 C 
HETATM   14  C11 UNL     1      23.900  -0.526  53.232  1.00  0.00     0.064 C 
HETATM   15  C12 UNL     1      22.566  -0.612  52.997  1.00  0.00     0.186 C 
HETATM   16  O5  UNL     1      22.021   0.320  52.072  1.00  0.00    -0.255 OA
HETATM   17  C13 UNL     1      21.919   1.663  52.378  1.00  0.00     0.279 C 
HETATM   18  O6  UNL     1      22.370   1.184  53.454  1.00  0.00    -0.264 OA
HETATM   19  O7  UNL     1      23.302   2.860  50.448  1.00  0.00    -0.349 OA
ENDROOT
BRANCH   5  20
HETATM   20  O1  UNL     1      23.131   6.280  51.676  1.00  0.00    -0.381 OA
HETATM   21  H5  UNL     1      22.299   6.604  52.127  1.00  0.00     0.211 HD
ENDBRANCH   5  20
BRANCH  15  22
HETATM   22  O4  UNL     1      21.987  -1.611  53.732  1.00  0.00    -0.341 OA
HETATM   23  H11 UNL     1      21.366  -2.270  53.233  1.00  0.00     0.220 HD
ENDBRANCH  15  22
TORSDOF 2
ENDMDL
MODEL 6
REMARK VINA RESULT:      -7.2      2.594      6.084
REMARK  2 active torsions:
REMARK  status: ('A' for Active; 'I' for Inactive)
REMARK    1  A    between atoms: C5_5  and  O1_6 
REMARK    2  A    between atoms: C12_16  and  O4_17 
ROOT
HETATM    1  C1  UNL     1      20.428   1.947  52.906  1.00  0.00     0.048 C 
HETATM    2  C2  UNL     1      20.085   0.621  52.212  1.00  0.00     0.087 A 
HETATM    3  C3  UNL     1      19.220  -0.174  52.911  1.00  0.00     0.109 A 
HETATM    4  C4  UNL     1      18.519   0.615  51.900  1.00  0.00     0.086 A 
HETATM    5  C5  UNL     1      18.861   1.568  50.917  1.00  0.00     0.146 C 
HETATM    6  C6  UNL     1      20.059   1.158  50.074  1.00  0.00     0.284 C 
HETATM    7  N1  UNL     1      21.290   1.839  50.375  1.00  0.00    -0.243 NA
HETATM    8  C7  UNL     1      22.357   1.742  49.676  1.00  0.00     0.259 C 
HETATM    9  O2  UNL     1      23.544   2.467  50.096  1.00  0.00    -0.269 OA
HETATM   10  C8  UNL     1      24.089   2.058  51.341  1.00  0.00     0.288 C 
HETATM   11  O3  UNL     1      23.128   1.289  51.274  1.00  0.00    -0.260 OA
HETATM   12  C9  UNL     1      24.628   1.586  52.664  1.00  0.00     0.082 C 
HETATM   13  C10 UNL     1      23.958   0.636  53.306  1.00  0.00     0.011 C 
HETATM   14  C11 UNL     1      23.436  -0.379  54.211  1.00  0.00     0.064 C 
HETATM   15  C12 UNL     1      22.533  -1.319  54.590  1.00  0.00     0.186 C 
HETATM   16  O5  UNL     1      21.427  -1.525  53.720  1.00  0.00    -0.255 OA
HETATM   17  C13 UNL     1      20.435  -0.575  53.578  1.00  0.00     0.279 C 
HETATM   18  O6  UNL     1      21.167  -0.057  54.465  1.00  0.00    -0.264 OA
HETATM   19  O7  UNL     1      20.440  -0.039  50.973  1.00  0.00    -0.349 OA
ENDROOT
BRANCH   5  20
HETATM   20  O1  UNL     1      18.009   2.667  50.954  1.00  0.00    -0.381 OA
HETATM   21  H5  UNL     1      17.145   2.575  51.450  1.00  0.00     0.211 HD
ENDBRANCH   5  20
BRANCH  15  22
HETATM   22  O4  UNL     1      22.874  -1.896  55.783  1.00  0.00    -0.341 OA
HETATM   23  H11 UNL     1      23.740  -2.460  55.809  1.00  0.00     0.220 HD
ENDBRANCH  15  22
TORSDOF 2
ENDMDL
MODEL 7
REMARK VINA RESULT:      -7.1      1.693      2.513
REMARK  2 active torsions:
REMARK  status: ('A' for Active; 'I' for Inactive)
REMARK    1  A    between atoms: C5_5  and  O1_6 
REMARK    2  A    between atoms: C12_16  and  O4_17 
ROOT
HETATM    1  C1  UNL     1      25.306   2.562  53.568  1.00  0.00     0.048 C 
HETATM    2  C2  UNL     1      25.910   1.680  52.465  1.00  0.00     0.087 A 
HETATM    3  C3  UNL     1      26.940   2.261  51.779  1.00  0.00     0.109 A 
HETATM    4  C4  UNL     1      27.434   1.390  52.844  1.00  0.00     0.086 A 
HETATM    5  C5  UNL     1      26.876   0.557  53.837  1.00  0.00     0.146 C 
HETATM    6  C6  UNL     1      25.777  -0.352  53.311  1.00  0.00     0.284 C 
HETATM    7  N1  UNL     1      24.435   0.033  53.658  1.00  0.00    -0.243 NA
HETATM    8  C7  UNL     1      23.399  -0.685  53.440  1.00  0.00     0.259 C 
HETATM    9  O2  UNL     1      22.093  -0.176  53.821  1.00  0.00    -0.269 OA
HETATM   10  C8  UNL     1      21.674   0.986  53.123  1.00  0.00     0.288 C 
HETATM   11  O3  UNL     1      22.776   0.816  52.597  1.00  0.00    -0.260 OA
HETATM   12  C9  UNL     1      21.277   2.216  52.353  1.00  0.00     0.082 C 
HETATM   13  C10 UNL     1      22.147   2.715  51.484  1.00  0.00     0.011 C 
HETATM   14  C11 UNL     1      22.893   3.463  50.480  1.00  0.00     0.064 C 
HETATM   15  C12 UNL     1      23.984   3.706  49.711  1.00  0.00     0.186 C 
HETATM   16  O5  UNL     1      25.091   2.830  49.880  1.00  0.00    -0.255 OA
HETATM   17  C13 UNL     1      25.854   2.845  51.031  1.00  0.00     0.279 C 
HETATM   18  O6  UNL     1      25.045   3.790  51.241  1.00  0.00    -0.264 OA
HETATM   19  O7  UNL     1      25.679   0.351  51.939  1.00  0.00    -0.349 OA
ENDROOT
BRANCH   5  20
HETATM   20  O1  UNL     1      27.473   0.771  55.076  1.00  0.00    -0.381 OA
HETATM   21  H5  UNL     1      27.665   1.715  55.348  1.00  0.00     0.211 HD
ENDBRANCH   5  20
BRANCH  15  22
HETATM   22  O4  UNL     1      23.800   4.795  48.901  1.00  0.00    -0.341 OA
HETATM   23  H11 UNL     1      23.459   5.665  49.344  1.00  0.00     0.220 HD
ENDBRANCH  15  22
TORSDOF 2
ENDMDL
MODEL 8
REMARK VINA RESULT:      -7.0      9.503     11.619
REMARK  2 active torsions:
REMARK  status: ('A' for Active; 'I' for Inactive)
REMARK    1  A    between atoms: C5_5  and  O1_6 
REMARK    2  A    between atoms: C12_16  and  O4_17 
ROOT
HETATM    1  C1  UNL     1      31.687   6.412  49.597  1.00  0.00     0.048 C 
HETATM    2  C2  UNL     1      31.165   6.555  48.159  1.00  0.00     0.087 A 
HETATM    3  C3  UNL     1      30.081   5.772  47.873  1.00  0.00     0.109 A 
HETATM    4  C4  UNL     1      29.678   7.132  48.228  1.00  0.00     0.086 A 
HETATM    5  C5  UNL     1      30.318   8.333  48.600  1.00  0.00     0.146 C 
HETATM    6  C6  UNL     1      31.497   8.687  47.708  1.00  0.00     0.284 C 
HETATM    7  N1  UNL     1      32.797   8.461  48.281  1.00  0.00    -0.243 NA
HETATM    8  C7  UNL     1      33.897   8.840  47.747  1.00  0.00     0.259 C 
HETATM    9  O2  UNL     1      35.149   8.534  48.416  1.00  0.00    -0.269 OA
HETATM   10  C8  UNL     1      35.451   7.151  48.523  1.00  0.00     0.288 C 
HETATM   11  O3  UNL     1      34.368   7.081  47.938  1.00  0.00    -0.260 OA
HETATM   12  C9  UNL     1      35.725   5.674  48.609  1.00  0.00     0.082 C 
HETATM   13  C10 UNL     1      34.806   4.842  48.134  1.00  0.00     0.011 C 
HETATM   14  C11 UNL     1      33.988   3.719  47.695  1.00  0.00     0.064 C 
HETATM   15  C12 UNL     1      32.875   3.171  47.145  1.00  0.00     0.186 C 
HETATM   16  O5  UNL     1      31.859   4.074  46.729  1.00  0.00    -0.255 OA
HETATM   17  C13 UNL     1      31.103   4.780  47.645  1.00  0.00     0.279 C 
HETATM   18  O6  UNL     1      31.818   4.061  48.395  1.00  0.00    -0.264 OA
HETATM   19  O7  UNL     1      31.520   7.322  46.985  1.00  0.00    -0.349 OA
ENDROOT
BRANCH   5  20
HETATM   20  O1  UNL     1      29.709   8.912  49.709  1.00  0.00    -0.381 OA
HETATM   21  H5  UNL     1      28.920   9.509  49.554  1.00  0.00     0.211 HD
ENDBRANCH   5  20
BRANCH  15  22
HETATM   22  O4  UNL     1      32.951   1.804  47.107  1.00  0.00    -0.341 OA
HETATM   23  H11 UNL     1      32.925   1.352  46.177  1.00  0.00     0.220 HD
ENDBRANCH  15  22
TORSDOF 2
ENDMDL
MODEL 9
REMARK VINA RESULT:      -7.0      2.465      4.529
REMARK  2 active torsions:
REMARK  status: ('A' for Active; 'I' for Inactive)
REMARK    1  A    between atoms: C5_5  and  O1_6 
REMARK    2  A    between atoms: C12_16  and  O4_17 
ROOT
HETATM    1  C1  UNL     1      23.106   1.367  50.866  1.00  0.00     0.048 C 
HETATM    2  C2  UNL     1      23.778   1.742  52.195  1.00  0.00     0.087 A 
HETATM    3  C3  UNL     1      24.592   0.770  52.708  1.00  0.00     0.109 A 
HETATM    4  C4  UNL     1      25.357   1.767  51.960  1.00  0.00     0.086 A 
HETATM    5  C5  UNL     1      25.084   2.949  51.240  1.00  0.00     0.146 C 
HETATM    6  C6  UNL     1      24.158   3.902  51.980  1.00  0.00     0.284 C 
HETATM    7  N1  UNL     1      22.804   3.950  51.498  1.00  0.00    -0.243 NA
HETATM    8  C7  UNL     1      21.928   4.797  51.889  1.00  0.00     0.259 C 
HETATM    9  O2  UNL     1      20.585   4.729  51.339  1.00  0.00    -0.269 OA
HETATM   10  C8  UNL     1      19.866   3.547  51.654  1.00  0.00     0.288 C 
HETATM   11  O3  UNL     1      20.925   3.305  52.237  1.00  0.00    -0.260 OA
HETATM   12  C9  UNL     1      19.146   2.277  52.017  1.00  0.00     0.082 C 
HETATM   13  C10 UNL     1      19.806   1.368  52.725  1.00  0.00     0.011 C 
HETATM   14  C11 UNL     1      20.279   0.219  53.485  1.00  0.00     0.064 C 
HETATM   15  C12 UNL     1      21.218  -0.475  54.178  1.00  0.00     0.186 C 
HETATM   16  O5  UNL     1      22.496   0.135  54.305  1.00  0.00    -0.255 OA
HETATM   17  C13 UNL     1      23.342   0.268  53.221  1.00  0.00     0.279 C 
HETATM   18  O6  UNL     1      22.374  -0.369  52.721  1.00  0.00    -0.264 OA
HETATM   19  O7  UNL     1      23.786   2.886  53.081  1.00  0.00    -0.349 OA
ENDROOT
BRANCH   5  20
HETATM   20  O1  UNL     1      25.734   2.959  50.010  1.00  0.00    -0.381 OA
HETATM   21  H5  UNL     1      25.607   2.172  49.405  1.00  0.00     0.211 HD
ENDBRANCH   5  20
BRANCH  15  22
HETATM   22  O4  UNL     1      20.731  -1.673  54.627  1.00  0.00    -0.341 OA
HETATM   23  H11 UNL     1      19.966  -1.646  55.322  1.00  0.00     0.220 HD
ENDBRANCH  15  22
TORSDOF 2
ENDMDL
