MODEL 1
REMARK VINA RESULT:      -8.1      0.000      0.000
REMARK  8 active torsions:
REMARK  status: ('A' for Active; 'I' for Inactive)
REMARK    1  A    between atoms: O1_2  and  C2_3 
REMARK    2  A    between atoms: C2_3  and  C3_4 
REMARK    3  A    between atoms: C3_4  and  C17_21 
REMARK    4  A    between atoms: C4_5  and  C5_6 
REMARK       I    between atoms: N2_13  and  C11_14 
REMARK    5  A    between atoms: C11_14  and  C12_16 
REMARK    6  A    between atoms: C17_21  and  N3_22 
REMARK    7  A    between atoms: N3_22  and  C18_23 
REMARK    8  A    between atoms: C23_29  and  N5_30 
ROOT
HETATM    1  C3  UNL     1      23.324   0.303  53.094  1.00  0.00    -0.026 C 
HETATM    2  C4  UNL     1      23.730   1.037  52.029  1.00  0.00     0.036 C 
ENDROOT
BRANCH   2   3
HETATM    3  C5  UNL     1      23.063   2.012  51.192  1.00  0.00     0.035 A 
HETATM    4  C6  UNL     1      22.523   1.766  49.919  1.00  0.00     0.031 A 
HETATM    5  C7  UNL     1      21.938   2.902  49.401  1.00  0.00     0.029 A 
HETATM    6  C8  UNL     1      22.151   3.811  50.401  1.00  0.00     0.030 A 
HETATM    7  N1  UNL     1      22.810   3.305  51.456  1.00  0.00    -0.347 N 
HETATM    8  C16 UNL     1      21.778   5.268  50.517  1.00  0.00     0.183 C 
HETATM    9  C9  UNL     1      23.092   4.175  52.567  1.00  0.00     0.149 C 
HETATM   10  C10 UNL     1      23.719   5.445  52.023  1.00  0.00     0.146 C 
HETATM   11  N2  UNL     1      23.002   5.954  50.880  1.00  0.00    -0.344 N 
HETATM   12  C11 UNL     1      23.556   7.060  50.229  1.00  0.00     0.227 C 
HETATM   13  O2  UNL     1      24.586   7.196  50.968  1.00  0.00    -0.273 OA
BRANCH  12  14
HETATM   14  C12 UNL     1      23.053   7.793  49.056  1.00  0.00     0.030 C 
HETATM   15  C13 UNL     1      24.120   8.844  48.723  1.00  0.00     0.025 C 
HETATM   16  C14 UNL     1      22.818   6.966  47.840  1.00  0.00     0.025 C 
HETATM   17  C15 UNL     1      21.758   8.499  49.457  1.00  0.00     0.025 C 
ENDBRANCH  12  14
ENDBRANCH   2   3
BRANCH   1  18
HETATM   18  C2  UNL     1      21.932   0.485  53.550  1.00  0.00     0.203 C 
BRANCH  18  19
HETATM   19  O1  UNL     1      21.489  -0.330  54.529  1.00  0.00    -0.392 OA
HETATM   20  C1  UNL     1      20.870  -1.496  54.290  1.00  0.00     0.201 C 
ENDBRANCH  18  19
ENDBRANCH   1  18
BRANCH   1  21
HETATM   21  C17 UNL     1      24.347  -0.569  53.714  1.00  0.00     0.311 C 
BRANCH  21  22
HETATM   22  N3  UNL     1      25.650  -0.020  53.372  1.00  0.00     0.141 N 
HETATM   23  H26 UNL     1      26.247  -0.738  52.909  1.00  0.00     0.321 HD
BRANCH  22  24
HETATM   24  C18 UNL     1      26.384   0.487  54.501  1.00  0.00     0.560 C 
HETATM   25  N4  UNL     1      26.382   1.947  54.321  1.00  0.00    -0.226 NA
HETATM   26  C19 UNL     1      27.110   2.449  53.413  1.00  0.00     0.082 C 
HETATM   27  C20 UNL     1      28.389   2.178  53.455  1.00  0.00     0.051 C 
HETATM   28  C21 UNL     1      29.423   1.013  54.433  1.00  0.00     0.311 A 
HETATM   29  C22 UNL     1      28.821   0.586  54.490  1.00  0.00     0.199 A 
HETATM   30  N5  UNL     1      27.698  -0.147  54.593  1.00  0.00     0.062 N 
HETATM   31  C23 UNL     1      28.378   0.289  54.532  1.00  0.00     0.199 A 
ENDBRANCH  22  24
ENDBRANCH  21  22
ENDBRANCH   1  21
TORSDOF 8
ENDMDL
MODEL 2
REMARK VINA RESULT:      -7.8      3.526      5.322
REMARK  8 active torsions:
REMARK  status: ('A' for Active; 'I' for Inactive)
REMARK    1  A    between atoms: O1_2  and  C2_3 
REMARK    2  A    between atoms: C2_3  and  C3_4 
REMARK    3  A    between atoms: C3_4  and  C17_21 
REMARK    4  A    between atoms: C4_5  and  C5_6 
REMARK       I    between atoms: N2_13  and  C11_14 
REMARK    5  A    between atoms: C11_14  and  C12_16 
REMARK    6  A    between atoms: C17_21  and  N3_22 
REMARK    7  A    between atoms: N3_22  and  C18_23 
REMARK    8  A    between atoms: C23_29  and  N5_30 
ROOT
HETATM    1  C3  UNL     1      23.348   3.786  50.470  1.00  0.00    -0.026 C 
HETATM    2  C4  UNL     1      24.586   4.261  50.749  1.00  0.00     0.036 C 
ENDROOT
BRANCH   2   3
HETATM    3  C5  UNL     1      25.673   4.730  49.914  1.00  0.00     0.035 A 
HETATM    4  C6  UNL     1      26.743   3.949  49.448  1.00  0.00     0.031 A 
HETATM    5  C7  UNL     1      27.593   4.694  48.658  1.00  0.00     0.029 A 
HETATM    6  C8  UNL     1      26.992   5.923  48.677  1.00  0.00     0.030 A 
HETATM    7  N1  UNL     1      25.867   5.960  49.409  1.00  0.00    -0.347 N 
HETATM    8  C16 UNL     1      27.375   7.228  48.025  1.00  0.00     0.183 C 
HETATM    9  C9  UNL     1      25.152   7.205  49.503  1.00  0.00     0.149 C 
HETATM   10  C10 UNL     1      26.145   8.290  49.875  1.00  0.00     0.146 C 
HETATM   11  N2  UNL     1      27.349   8.214  49.087  1.00  0.00    -0.344 N 
HETATM   12  C11 UNL     1      28.380   9.098  49.421  1.00  0.00     0.227 C 
HETATM   13  O2  UNL     1      27.798   9.678  50.396  1.00  0.00    -0.273 OA
BRANCH  12  14
HETATM   14  C12 UNL     1      29.704   9.256  48.799  1.00  0.00     0.030 C 
HETATM   15  C13 UNL     1      30.450  10.294  49.647  1.00  0.00     0.025 C 
HETATM   16  C14 UNL     1      30.532   8.020  48.739  1.00  0.00     0.025 C 
HETATM   17  C15 UNL     1      29.502   9.809  47.388  1.00  0.00     0.025 C 
ENDBRANCH  12  14
ENDBRANCH   2   3
BRANCH   1  18
HETATM   18  C2  UNL     1      22.957   3.705  49.050  1.00  0.00     0.203 C 
BRANCH  18  19
HETATM   19  O1  UNL     1      23.092   2.512  48.437  1.00  0.00    -0.392 OA
HETATM   20  C1  UNL     1      22.055   1.708  48.155  1.00  0.00     0.201 C 
ENDBRANCH  18  19
ENDBRANCH   1  18
BRANCH   1  21
HETATM   21  C17 UNL     1      22.502   3.446  51.638  1.00  0.00     0.311 C 
BRANCH  21  22
HETATM   22  N3  UNL     1      23.288   2.586  52.508  1.00  0.00     0.141 N 
HETATM   23  H26 UNL     1      24.167   3.062  52.806  1.00  0.00     0.321 HD
BRANCH  22  24
HETATM   24  C18 UNL     1      23.661   1.333  51.907  1.00  0.00     0.560 C 
HETATM   25  N4  UNL     1      22.616   0.390  52.337  1.00  0.00    -0.226 NA
HETATM   26  C19 UNL     1      22.609  -0.001  53.543  1.00  0.00     0.082 C 
HETATM   27  C20 UNL     1      23.697  -0.570  53.993  1.00  0.00     0.051 C 
HETATM   28  C21 UNL     1      25.406  -0.767  53.343  1.00  0.00     0.311 A 
HETATM   29  C22 UNL     1      25.292  -0.144  52.960  1.00  0.00     0.199 A 
HETATM   30  N5  UNL     1      25.034   0.976  52.260  1.00  0.00     0.062 N 
HETATM   31  C23 UNL     1      25.195   0.303  52.681  1.00  0.00     0.199 A 
ENDBRANCH  22  24
ENDBRANCH  21  22
ENDBRANCH   1  21
TORSDOF 8
ENDMDL
MODEL 3
REMARK VINA RESULT:      -7.7      2.065      2.725
REMARK  8 active torsions:
REMARK  status: ('A' for Active; 'I' for Inactive)
REMARK    1  A    between atoms: O1_2  and  C2_3 
REMARK    2  A    between atoms: C2_3  and  C3_4 
REMARK    3  A    between atoms: C3_4  and  C17_21 
REMARK    4  A    between atoms: C4_5  and  C5_6 
REMARK       I    between atoms: N2_13  and  C11_14 
REMARK    5  A    between atoms: C11_14  and  C12_16 
REMARK    6  A    between atoms: C17_21  and  N3_22 
REMARK    7  A    between atoms: N3_22  and  C18_23 
REMARK    8  A    between atoms: C23_29  and  N5_30 
ROOT
HETATM    1  C3  UNL     1      24.412   1.467  51.990  1.00  0.00    -0.026 C 
HETATM    2  C4  UNL     1      23.223   1.339  51.353  1.00  0.00     0.036 C 
ENDROOT
BRANCH   2   3
HETATM    3  C5  UNL     1      22.505   2.189  50.426  1.00  0.00     0.035 A 
HETATM    4  C6  UNL     1      22.396   1.983  49.041  1.00  0.00     0.031 A 
HETATM    5  C7  UNL     1      21.624   2.963  48.454  1.00  0.00     0.029 A 
HETATM    6  C8  UNL     1      21.288   3.740  49.528  1.00  0.00     0.030 A 
HETATM    7  N1  UNL     1      21.797   3.301  50.689  1.00  0.00    -0.347 N 
HETATM    8  C16 UNL     1      20.455   4.994  49.626  1.00  0.00     0.183 C 
HETATM    9  C9  UNL     1      21.511   4.046  51.887  1.00  0.00     0.149 C 
HETATM   10  C10 UNL     1      21.813   5.507  51.616  1.00  0.00     0.146 C 
HETATM   11  N2  UNL     1      21.272   5.946  50.354  1.00  0.00    -0.344 N 
HETATM   12  C11 UNL     1      21.586   7.247  49.950  1.00  0.00     0.227 C 
HETATM   13  O2  UNL     1      22.307   7.567  50.951  1.00  0.00    -0.273 OA
BRANCH  12  14
HETATM   14  C12 UNL     1      21.176   7.964  48.731  1.00  0.00     0.030 C 
HETATM   15  C13 UNL     1      21.857   7.239  47.564  1.00  0.00     0.025 C 
HETATM   16  C14 UNL     1      19.710   7.991  48.471  1.00  0.00     0.025 C 
HETATM   17  C15 UNL     1      21.711   9.393  48.819  1.00  0.00     0.025 C 
ENDBRANCH  12  14
ENDBRANCH   2   3
BRANCH   1  18
HETATM   18  C2  UNL     1      25.191   2.694  51.731  1.00  0.00     0.203 C 
BRANCH  18  19
HETATM   19  O1  UNL     1      26.156   2.629  50.792  1.00  0.00    -0.392 OA
HETATM   20  C1  UNL     1      26.340   3.578  49.860  1.00  0.00     0.201 C 
ENDBRANCH  18  19
ENDBRANCH   1  18
BRANCH   1  21
HETATM   21  C17 UNL     1      24.822   0.327  52.842  1.00  0.00     0.311 C 
BRANCH  21  22
HETATM   22  N3  UNL     1      26.220   0.048  52.552  1.00  0.00     0.141 N 
HETATM   23  H26 UNL     1      26.309  -0.669  51.801  1.00  0.00     0.321 HD
BRANCH  22  24
HETATM   24  C18 UNL     1      26.967  -0.423  53.687  1.00  0.00     0.560 C 
HETATM   25  N4  UNL     1      27.378   0.800  54.396  1.00  0.00    -0.226 NA
HETATM   26  C19 UNL     1      28.287   1.521  53.887  1.00  0.00     0.082 C 
HETATM   27  C20 UNL     1      29.436   0.946  53.640  1.00  0.00     0.051 C 
HETATM   28  C21 UNL     1      30.029  -0.795  53.648  1.00  0.00     0.311 A 
HETATM   29  C22 UNL     1      29.332  -0.993  53.503  1.00  0.00     0.199 A 
HETATM   30  N5  UNL     1      28.047  -1.314  53.265  1.00  0.00     0.062 N 
HETATM   31  C23 UNL     1      28.822  -1.126  53.405  1.00  0.00     0.199 A 
ENDBRANCH  22  24
ENDBRANCH  21  22
ENDBRANCH   1  21
TORSDOF 8
ENDMDL
MODEL 4
REMARK VINA RESULT:      -7.5      3.145      5.965
REMARK  8 active torsions:
REMARK  status: ('A' for Active; 'I' for Inactive)
REMARK    1  A    between atoms: O1_2  and  C2_3 
REMARK    2  A    between atoms: C2_3  and  C3_4 
REMARK    3  A    between atoms: C3_4  and  C17_21 
REMARK    4  A    between atoms: C4_5  and  C5_6 
REMARK       I    between atoms: N2_13  and  C11_14 
REMARK    5  A    between atoms: C11_14  and  C12_16 
REMARK    6  A    between atoms: C17_21  and  N3_22 
REMARK    7  A    between atoms: N3_22  and  C18_23 
REMARK    8  A    between atoms: C23_29  and  N5_30 
ROOT
HETATM    1  C3  UNL     1      24.669   1.714  52.261  1.00  0.00    -0.026 C 
HETATM    2  C4  UNL     1      23.700   0.766  52.231  1.00  0.00     0.036 C 
ENDROOT
BRANCH   2   3
HETATM    3  C5  UNL     1      22.356   0.712  52.767  1.00  0.00     0.035 A 
HETATM    4  C6  UNL     1      21.989   0.165  54.007  1.00  0.00     0.031 A 
HETATM    5  C7  UNL     1      20.634   0.295  54.224  1.00  0.00     0.029 A 
HETATM    6  C8  UNL     1      20.224   0.929  53.084  1.00  0.00     0.030 A 
HETATM    7  N1  UNL     1      21.221   1.180  52.220  1.00  0.00    -0.347 N 
HETATM    8  C16 UNL     1      18.859   1.388  52.636  1.00  0.00     0.183 C 
HETATM    9  C9  UNL     1      20.904   1.842  50.982  1.00  0.00     0.149 C 
HETATM   10  C10 UNL     1      19.731   1.118  50.349  1.00  0.00     0.146 C 
HETATM   11  N2  UNL     1      18.685   0.845  51.303  1.00  0.00    -0.344 N 
HETATM   12  C11 UNL     1      17.602   0.083  50.853  1.00  0.00     0.227 C 
HETATM   13  O2  UNL     1      18.007  -0.099  49.658  1.00  0.00    -0.273 OA
BRANCH  12  14
HETATM   14  C12 UNL     1      16.400  -0.342  51.587  1.00  0.00     0.030 C 
HETATM   15  C13 UNL     1      16.889  -1.286  52.693  1.00  0.00     0.025 C 
HETATM   16  C14 UNL     1      15.619   0.756  52.222  1.00  0.00     0.025 C 
HETATM   17  C15 UNL     1      15.505  -1.118  50.621  1.00  0.00     0.025 C 
ENDBRANCH  12  14
ENDBRANCH   2   3
BRANCH   1  18
HETATM   18  C2  UNL     1      24.359   2.976  52.959  1.00  0.00     0.203 C 
BRANCH  18  19
HETATM   19  O1  UNL     1      23.926   4.010  52.210  1.00  0.00    -0.392 OA
HETATM   20  C1  UNL     1      22.809   4.701  52.485  1.00  0.00     0.201 C 
ENDBRANCH  18  19
ENDBRANCH   1  18
BRANCH   1  21
HETATM   21  C17 UNL     1      25.920   1.391  51.538  1.00  0.00     0.311 C 
BRANCH  21  22
HETATM   22  N3  UNL     1      27.022   1.593  52.466  1.00  0.00     0.141 N 
HETATM   23  H26 UNL     1      27.932   1.638  51.959  1.00  0.00     0.321 HD
BRANCH  22  24
HETATM   24  C18 UNL     1      27.137   0.566  53.467  1.00  0.00     0.560 C 
HETATM   25  N4  UNL     1      28.074   1.118  54.459  1.00  0.00    -0.226 NA
HETATM   26  C19 UNL     1      29.303   1.193  54.159  1.00  0.00     0.082 C 
HETATM   27  C20 UNL     1      29.900   0.086  53.802  1.00  0.00     0.051 C 
HETATM   28  C21 UNL     1      29.320  -1.612  53.398  1.00  0.00     0.311 A 
HETATM   29  C22 UNL     1      28.679  -1.305  53.195  1.00  0.00     0.199 A 
HETATM   30  N5  UNL     1      27.520  -0.709  52.862  1.00  0.00     0.062 N 
HETATM   31  C23 UNL     1      28.216  -1.072  53.059  1.00  0.00     0.199 A 
ENDBRANCH  22  24
ENDBRANCH  21  22
ENDBRANCH   1  21
TORSDOF 8
ENDMDL
MODEL 5
REMARK VINA RESULT:      -7.4      3.411      6.223
REMARK  8 active torsions:
REMARK  status: ('A' for Active; 'I' for Inactive)
REMARK    1  A    between atoms: O1_2  and  C2_3 
REMARK    2  A    between atoms: C2_3  and  C3_4 
REMARK    3  A    between atoms: C3_4  and  C17_21 
REMARK    4  A    between atoms: C4_5  and  C5_6 
REMARK       I    between atoms: N2_13  and  C11_14 
REMARK    5  A    between atoms: C11_14  and  C12_16 
REMARK    6  A    between atoms: C17_21  and  N3_22 
REMARK    7  A    between atoms: N3_22  and  C18_23 
REMARK    8  A    between atoms: C23_29  and  N5_30 
ROOT
HETATM    1  C3  UNL     1      23.872   2.882  52.306  1.00  0.00    -0.026 C 
HETATM    2  C4  UNL     1      22.552   2.924  52.614  1.00  0.00     0.036 C 
ENDROOT
BRANCH   2   3
HETATM    3  C5  UNL     1      21.350   2.712  51.835  1.00  0.00     0.035 A 
HETATM    4  C6  UNL     1      20.666   3.695  51.101  1.00  0.00     0.031 A 
HETATM    5  C7  UNL     1      19.573   3.158  50.454  1.00  0.00     0.029 A 
HETATM    6  C8  UNL     1      19.640   1.844  50.829  1.00  0.00     0.030 A 
HETATM    7  N1  UNL     1      20.675   1.568  51.638  1.00  0.00    -0.347 N 
HETATM    8  C16 UNL     1      18.757   0.668  50.492  1.00  0.00     0.183 C 
HETATM    9  C9  UNL     1      20.840   0.214  52.098  1.00  0.00     0.149 C 
HETATM   10  C10 UNL     1      19.509  -0.264  52.645  1.00  0.00     0.146 C 
HETATM   11  N2  UNL     1      18.415   0.063  51.765  1.00  0.00    -0.344 N 
HETATM   12  C11 UNL     1      17.126  -0.231  52.221  1.00  0.00     0.227 C 
HETATM   13  O2  UNL     1      17.454  -0.715  53.355  1.00  0.00    -0.273 OA
BRANCH  12  14
HETATM   14  C12 UNL     1      15.834  -0.021  51.550  1.00  0.00     0.030 C 
HETATM   15  C13 UNL     1      14.758  -0.419  52.567  1.00  0.00     0.025 C 
HETATM   16  C14 UNL     1      15.565   1.375  51.107  1.00  0.00     0.025 C 
HETATM   17  C15 UNL     1      15.765  -0.964  50.349  1.00  0.00     0.025 C 
ENDBRANCH  12  14
ENDBRANCH   2   3
BRANCH   1  18
HETATM   18  C2  UNL     1      24.231   2.556  50.912  1.00  0.00     0.203 C 
BRANCH  18  19
HETATM   19  O1  UNL     1      25.413   3.014  50.454  1.00  0.00    -0.392 OA
HETATM   20  C1  UNL     1      25.581   4.250  49.957  1.00  0.00     0.201 C 
ENDBRANCH  18  19
ENDBRANCH   1  18
BRANCH   1  21
HETATM   21  C17 UNL     1      24.811   3.121  53.425  1.00  0.00     0.311 C 
BRANCH  21  22
HETATM   22  N3  UNL     1      25.957   2.247  53.225  1.00  0.00     0.141 N 
HETATM   23  H26 UNL     1      26.146   2.109  52.209  1.00  0.00     0.321 HD
BRANCH  22  24
HETATM   24  C18 UNL     1      25.806   0.943  53.815  1.00  0.00     0.560 C 
HETATM   25  N4  UNL     1      26.919   0.838  54.772  1.00  0.00    -0.226 NA
HETATM   26  C19 UNL     1      28.094   0.681  54.323  1.00  0.00     0.082 C 
HETATM   27  C20 UNL     1      28.302  -0.348  53.543  1.00  0.00     0.051 C 
HETATM   28  C21 UNL     1      27.209  -1.574  52.715  1.00  0.00     0.311 A 
HETATM   29  C22 UNL     1      26.683  -1.054  52.724  1.00  0.00     0.199 A 
HETATM   30  N5  UNL     1      25.746  -0.091  52.784  1.00  0.00     0.062 N 
HETATM   31  C23 UNL     1      26.307  -0.673  52.743  1.00  0.00     0.199 A 
ENDBRANCH  22  24
ENDBRANCH  21  22
ENDBRANCH   1  21
TORSDOF 8
ENDMDL
MODEL 6
REMARK VINA RESULT:      -7.3      2.126      2.831
REMARK  8 active torsions:
REMARK  status: ('A' for Active; 'I' for Inactive)
REMARK    1  A    between atoms: O1_2  and  C2_3 
REMARK    2  A    between atoms: C2_3  and  C3_4 
REMARK    3  A    between atoms: C3_4  and  C17_21 
REMARK    4  A    between atoms: C4_5  and  C5_6 
REMARK       I    between atoms: N2_13  and  C11_14 
REMARK    5  A    between atoms: C11_14  and  C12_16 
REMARK    6  A    between atoms: C17_21  and  N3_22 
REMARK    7  A    between atoms: N3_22  and  C18_23 
REMARK    8  A    between atoms: C23_29  and  N5_30 
ROOT
HETATM    1  C3  UNL     1      23.593   0.745  52.849  1.00  0.00    -0.026 C 
HETATM    2  C4  UNL     1      24.220   1.862  52.403  1.00  0.00     0.036 C 
ENDROOT
BRANCH   2   3
HETATM    3  C5  UNL     1      23.736   3.137  51.917  1.00  0.00     0.035 A 
HETATM    4  C6  UNL     1      23.448   4.260  52.710  1.00  0.00     0.031 A 
HETATM    5  C7  UNL     1      23.028   5.319  51.934  1.00  0.00     0.029 A 
HETATM    6  C8  UNL     1      23.079   4.786  50.676  1.00  0.00     0.030 A 
HETATM    7  N1  UNL     1      23.491   3.508  50.650  1.00  0.00    -0.347 N 
HETATM    8  C16 UNL     1      22.754   5.382  49.329  1.00  0.00     0.183 C 
HETATM    9  C9  UNL     1      23.579   2.844  49.376  1.00  0.00     0.149 C 
HETATM   10  C10 UNL     1      22.273   3.067  48.637  1.00  0.00     0.146 C 
HETATM   11  N2  UNL     1      21.846   4.443  48.698  1.00  0.00    -0.344 N 
HETATM   12  C11 UNL     1      20.597   4.742  48.145  1.00  0.00     0.227 C 
HETATM   13  O2  UNL     1      20.289   3.562  47.773  1.00  0.00    -0.273 OA
BRANCH  12  14
HETATM   14  C12 UNL     1      19.911   6.040  48.055  1.00  0.00     0.030 C 
HETATM   15  C13 UNL     1      19.577   6.445  49.496  1.00  0.00     0.025 C 
HETATM   16  C14 UNL     1      20.702   7.138  47.433  1.00  0.00     0.025 C 
HETATM   17  C15 UNL     1      18.612   5.836  47.275  1.00  0.00     0.025 C 
ENDBRANCH  12  14
ENDBRANCH   2   3
BRANCH   1  18
HETATM   18  C2  UNL     1      22.118   0.762  52.876  1.00  0.00     0.203 C 
BRANCH  18  19
HETATM   19  O1  UNL     1      21.472   0.103  51.893  1.00  0.00    -0.392 OA
HETATM   20  C1  UNL     1      20.664   0.709  51.009  1.00  0.00     0.201 C 
ENDBRANCH  18  19
ENDBRANCH   1  18
BRANCH   1  21
HETATM   21  C17 UNL     1      24.470  -0.356  53.309  1.00  0.00     0.311 C 
BRANCH  21  22
HETATM   22  N3  UNL     1      25.837   0.004  52.962  1.00  0.00     0.141 N 
HETATM   23  H26 UNL     1      26.167  -0.542  52.137  1.00  0.00     0.321 HD
BRANCH  22  24
HETATM   24  C18 UNL     1      26.783  -0.206  54.025  1.00  0.00     0.560 C 
HETATM   25  N4  UNL     1      27.075   1.143  54.535  1.00  0.00    -0.226 NA
HETATM   26  C19 UNL     1      27.788   1.918  53.830  1.00  0.00     0.082 C 
HETATM   27  C20 UNL     1      28.975   1.490  53.487  1.00  0.00     0.051 C 
HETATM   28  C21 UNL     1      29.837  -0.132  53.597  1.00  0.00     0.311 A 
HETATM   29  C22 UNL     1      29.168  -0.446  53.573  1.00  0.00     0.199 A 
HETATM   30  N5  UNL     1      27.932  -0.977  53.553  1.00  0.00     0.062 N 
HETATM   31  C23 UNL     1      28.678  -0.663  53.563  1.00  0.00     0.199 A 
ENDBRANCH  22  24
ENDBRANCH  21  22
ENDBRANCH   1  21
TORSDOF 8
ENDMDL
MODEL 7
REMARK VINA RESULT:      -7.3      2.130      2.892
REMARK  8 active torsions:
REMARK  status: ('A' for Active; 'I' for Inactive)
REMARK    1  A    between atoms: O1_2  and  C2_3 
REMARK    2  A    between atoms: C2_3  and  C3_4 
REMARK    3  A    between atoms: C3_4  and  C17_21 
REMARK    4  A    between atoms: C4_5  and  C5_6 
REMARK       I    between atoms: N2_13  and  C11_14 
REMARK    5  A    between atoms: C11_14  and  C12_16 
REMARK    6  A    between atoms: C17_21  and  N3_22 
REMARK    7  A    between atoms: N3_22  and  C18_23 
REMARK    8  A    between atoms: C23_29  and  N5_30 
ROOT
HETATM    1  C3  UNL     1      24.312   1.924  51.821  1.00  0.00    -0.026 C 
HETATM    2  C4  UNL     1      23.180   2.491  52.306  1.00  0.00     0.036 C 
ENDROOT
BRANCH   2   3
HETATM    3  C5  UNL     1      22.311   3.537  51.810  1.00  0.00     0.035 A 
HETATM    4  C6  UNL     1      20.971   3.374  51.422  1.00  0.00     0.031 A 
HETATM    5  C7  UNL     1      20.423   4.573  51.019  1.00  0.00     0.029 A 
HETATM    6  C8  UNL     1      21.473   5.434  51.182  1.00  0.00     0.030 A 
HETATM    7  N1  UNL     1      22.586   4.842  51.643  1.00  0.00    -0.347 N 
HETATM    8  C16 UNL     1      21.592   6.917  50.932  1.00  0.00     0.183 C 
HETATM    9  C9  UNL     1      23.757   5.653  51.849  1.00  0.00     0.149 C 
HETATM   10  C10 UNL     1      23.990   6.470  50.593  1.00  0.00     0.146 C 
HETATM   11  N2  UNL     1      22.775   7.078  50.110  1.00  0.00    -0.344 N 
HETATM   12  C11 UNL     1      22.852   7.763  48.893  1.00  0.00     0.227 C 
HETATM   13  O2  UNL     1      24.087   7.556  48.658  1.00  0.00    -0.273 OA
BRANCH  12  14
HETATM   14  C12 UNL     1      21.793   8.481  48.166  1.00  0.00     0.030 C 
HETATM   15  C13 UNL     1      22.423   8.942  46.846  1.00  0.00     0.025 C 
HETATM   16  C14 UNL     1      20.580   7.676  47.848  1.00  0.00     0.025 C 
HETATM   17  C15 UNL     1      21.396   9.705  48.990  1.00  0.00     0.025 C 
ENDBRANCH  12  14
ENDBRANCH   2   3
BRANCH   1  18
HETATM   18  C2  UNL     1      24.818   2.421  50.527  1.00  0.00     0.203 C 
BRANCH  18  19
HETATM   19  O1  UNL     1      26.132   2.714  50.446  1.00  0.00    -0.392 OA
HETATM   20  C1  UNL     1      26.612   3.757  49.750  1.00  0.00     0.201 C 
ENDBRANCH  18  19
ENDBRANCH   1  18
BRANCH   1  21
HETATM   21  C17 UNL     1      24.890   0.826  52.630  1.00  0.00     0.311 C 
BRANCH  21  22
HETATM   22  N3  UNL     1      26.197   1.267  53.091  1.00  0.00     0.141 N 
HETATM   23  H26 UNL     1      26.850   1.399  52.289  1.00  0.00     0.321 HD
BRANCH  22  24
HETATM   24  C18 UNL     1      26.826   0.360  54.013  1.00  0.00     0.560 C 
HETATM   25  N4  UNL     1      27.818   1.182  54.725  1.00  0.00    -0.226 NA
HETATM   26  C19 UNL     1      28.864   1.542  54.107  1.00  0.00     0.082 C 
HETATM   27  C20 UNL     1      29.608   0.597  53.591  1.00  0.00     0.051 C 
HETATM   28  C21 UNL     1      29.393  -1.212  53.339  1.00  0.00     0.311 A 
HETATM   29  C22 UNL     1      28.665  -1.085  53.319  1.00  0.00     0.199 A 
HETATM   30  N5  UNL     1      27.347  -0.814  53.314  1.00  0.00     0.062 N 
HETATM   31  C23 UNL     1      28.139  -0.982  53.313  1.00  0.00     0.199 A 
ENDBRANCH  22  24
ENDBRANCH  21  22
ENDBRANCH   1  21
TORSDOF 8
ENDMDL
MODEL 8
REMARK VINA RESULT:      -7.2      4.280      8.495
REMARK  8 active torsions:
REMARK  status: ('A' for Active; 'I' for Inactive)
REMARK    1  A    between atoms: O1_2  and  C2_3 
REMARK    2  A    between atoms: C2_3  and  C3_4 
REMARK    3  A    between atoms: C3_4  and  C17_21 
REMARK    4  A    between atoms: C4_5  and  C5_6 
REMARK       I    between atoms: N2_13  and  C11_14 
REMARK    5  A    between atoms: C11_14  and  C12_16 
REMARK    6  A    between atoms: C17_21  and  N3_22 
REMARK    7  A    between atoms: N3_22  and  C18_23 
REMARK    8  A    between atoms: C23_29  and  N5_30 
ROOT
HETATM    1  C3  UNL     1      17.663   1.199  50.727  1.00  0.00    -0.026 C 
HETATM    2  C4  UNL     1      18.827   0.518  50.590  1.00  0.00     0.036 C 
ENDROOT
BRANCH   2   3
HETATM    3  C5  UNL     1      20.215   0.929  50.589  1.00  0.00     0.035 A 
HETATM    4  C6  UNL     1      20.998   1.166  49.447  1.00  0.00     0.031 A 
HETATM    5  C7  UNL     1      22.271   1.566  49.794  1.00  0.00     0.029 A 
HETATM    6  C8  UNL     1      22.209   1.555  51.160  1.00  0.00     0.030 A 
HETATM    7  N1  UNL     1      21.012   1.183  51.640  1.00  0.00    -0.347 N 
HETATM    8  C16 UNL     1      23.245   1.883  52.206  1.00  0.00     0.183 C 
HETATM    9  C9  UNL     1      20.834   1.132  53.068  1.00  0.00     0.149 C 
HETATM   10  C10 UNL     1      21.987   0.343  53.658  1.00  0.00     0.146 C 
HETATM   11  N2  UNL     1      23.256   0.750  53.110  1.00  0.00    -0.344 N 
HETATM   12  C11 UNL     1      24.379   0.013  53.501  1.00  0.00     0.227 C 
HETATM   13  O2  UNL     1      23.781  -0.819  54.259  1.00  0.00    -0.273 OA
BRANCH  12  14
HETATM   14  C12 UNL     1      25.788   0.197  53.118  1.00  0.00     0.030 C 
HETATM   15  C13 UNL     1      26.401  -1.208  53.071  1.00  0.00     0.025 C 
HETATM   16  C14 UNL     1      26.009   0.847  51.796  1.00  0.00     0.025 C 
HETATM   17  C15 UNL     1      26.475   1.011  54.214  1.00  0.00     0.025 C 
ENDBRANCH  12  14
ENDBRANCH   2   3
BRANCH   1  18
HETATM   18  C2  UNL     1      17.752   2.659  50.921  1.00  0.00     0.203 C 
BRANCH  18  19
HETATM   19  O1  UNL     1      17.846   3.427  49.817  1.00  0.00    -0.392 OA
HETATM   20  C1  UNL     1      16.959   4.386  49.509  1.00  0.00     0.201 C 
ENDBRANCH  18  19
ENDBRANCH   1  18
BRANCH   1  21
HETATM   21  C17 UNL     1      16.426   0.385  50.716  1.00  0.00     0.311 C 
BRANCH  21  22
HETATM   22  N3  UNL     1      16.781  -0.950  51.170  1.00  0.00     0.141 N 
HETATM   23  H26 UNL     1      16.566  -1.662  50.439  1.00  0.00     0.321 HD
BRANCH  22  24
HETATM   24  C18 UNL     1      16.107  -1.355  52.375  1.00  0.00     0.560 C 
HETATM   25  N4  UNL     1      17.079  -1.095  53.450  1.00  0.00    -0.226 NA
HETATM   26  C19 UNL     1      18.083  -1.860  53.558  1.00  0.00     0.082 C 
HETATM   27  C20 UNL     1      17.848  -3.139  53.702  1.00  0.00     0.051 C 
HETATM   28  C21 UNL     1      16.345  -4.190  53.565  1.00  0.00     0.311 A 
HETATM   29  C22 UNL     1      16.080  -3.685  53.095  1.00  0.00     0.199 A 
HETATM   30  N5  UNL     1      15.624  -2.730  52.264  1.00  0.00     0.062 N 
HETATM   31  C23 UNL     1      15.895  -3.309  52.761  1.00  0.00     0.199 A 
ENDBRANCH  22  24
ENDBRANCH  21  22
ENDBRANCH   1  21
TORSDOF 8
ENDMDL
MODEL 9
REMARK VINA RESULT:      -7.1      4.874      8.302
REMARK  8 active torsions:
REMARK  status: ('A' for Active; 'I' for Inactive)
REMARK    1  A    between atoms: O1_2  and  C2_3 
REMARK    2  A    between atoms: C2_3  and  C3_4 
REMARK    3  A    between atoms: C3_4  and  C17_21 
REMARK    4  A    between atoms: C4_5  and  C5_6 
REMARK       I    between atoms: N2_13  and  C11_14 
REMARK    5  A    between atoms: C11_14  and  C12_16 
REMARK    6  A    between atoms: C17_21  and  N3_22 
REMARK    7  A    between atoms: N3_22  and  C18_23 
REMARK    8  A    between atoms: C23_29  and  N5_30 
ROOT
HETATM    1  C3  UNL     1      27.210   8.859  49.024  1.00  0.00    -0.026 C 
HETATM    2  C4  UNL     1      26.610   8.242  50.072  1.00  0.00     0.036 C 
ENDROOT
BRANCH   2   3
HETATM    3  C5  UNL     1      25.413   7.436  50.187  1.00  0.00     0.035 A 
HETATM    4  C6  UNL     1      24.192   7.856  50.739  1.00  0.00     0.031 A 
HETATM    5  C7  UNL     1      23.248   6.853  50.675  1.00  0.00     0.029 A 
HETATM    6  C8  UNL     1      23.949   5.843  50.075  1.00  0.00     0.030 A 
HETATM    7  N1  UNL     1      25.218   6.169  49.784  1.00  0.00    -0.347 N 
HETATM    8  C16 UNL     1      23.542   4.442  49.691  1.00  0.00     0.183 C 
HETATM    9  C9  UNL     1      26.050   5.179  49.153  1.00  0.00     0.149 C 
HETATM   10  C10 UNL     1      25.929   3.889  49.942  1.00  0.00     0.146 C 
HETATM   11  N2  UNL     1      24.558   3.575  50.256  1.00  0.00    -0.344 N 
HETATM   12  C11 UNL     1      24.335   2.466  51.077  1.00  0.00     0.227 C 
HETATM   13  O2  UNL     1      25.554   2.136  51.252  1.00  0.00    -0.273 OA
BRANCH  12  14
HETATM   14  C12 UNL     1      23.061   1.906  51.555  1.00  0.00     0.030 C 
HETATM   15  C13 UNL     1      23.431   0.765  52.511  1.00  0.00     0.025 C 
HETATM   16  C14 UNL     1      22.180   2.859  52.285  1.00  0.00     0.025 C 
HETATM   17  C15 UNL     1      22.314   1.333  50.350  1.00  0.00     0.025 C 
ENDBRANCH  12  14
ENDBRANCH   2   3
BRANCH   1  18
HETATM   18  C2  UNL     1      26.572   8.721  47.701  1.00  0.00     0.203 C 
BRANCH  18  19
HETATM   19  O1  UNL     1      27.262   8.068  46.745  1.00  0.00    -0.392 OA
HETATM   20  C1  UNL     1      27.501   8.583  45.528  1.00  0.00     0.201 C 
ENDBRANCH  18  19
ENDBRANCH   1  18
BRANCH   1  21
HETATM   21  C17 UNL     1      28.477   9.565  49.322  1.00  0.00     0.311 C 
BRANCH  21  22
HETATM   22  N3  UNL     1      29.499   8.553  49.537  1.00  0.00     0.141 N 
HETATM   23  H26 UNL     1      30.093   8.792  50.360  1.00  0.00     0.321 HD
BRANCH  22  24
HETATM   24  C18 UNL     1      30.378   8.363  48.413  1.00  0.00     0.560 C 
HETATM   25  N4  UNL     1      30.191   6.955  48.029  1.00  0.00    -0.226 NA
HETATM   26  C19 UNL     1      30.678   6.052  48.773  1.00  0.00     0.082 C 
HETATM   27  C20 UNL     1      31.963   6.105  49.014  1.00  0.00     0.051 C 
HETATM   28  C21 UNL     1      33.278   7.351  48.698  1.00  0.00     0.311 A 
HETATM   29  C22 UNL     1      32.745   7.864  48.723  1.00  0.00     0.199 A 
HETATM   30  N5  UNL     1      31.743   8.762  48.749  1.00  0.00     0.062 N 
HETATM   31  C23 UNL     1      32.350   8.226  48.735  1.00  0.00     0.199 A 
ENDBRANCH  22  24
ENDBRANCH  21  22
ENDBRANCH   1  21
TORSDOF 8
ENDMDL
