MODEL 1
REMARK VINA RESULT:      -8.0      0.000      0.000
REMARK  3 active torsions:
REMARK  status: ('A' for Active; 'I' for Inactive)
REMARK    1  A    between atoms: C3_3  and  N1_4 
REMARK       I    between atoms: N1_4  and  C4_5 
REMARK    2  A    between atoms: C4_5  and  C5_7 
REMARK    3  A    between atoms: N4_17  and  C13_18 
ROOT
HETATM    1  C5  UNL     1      27.170   4.521  49.045  1.00  0.00    -0.006 C 
HETATM    2  C6  UNL     1      27.910   5.332  48.534  1.00  0.00    -0.101 C 
HETATM    3  C7  UNL     1      28.814   6.300  47.913  1.00  0.00     0.112 C 
ENDROOT
BRANCH   1   4
HETATM    4  C4  UNL     1      26.296   3.553  49.679  1.00  0.00     0.300 C 
HETATM    5  N1  UNL     1      24.922   3.930  49.763  1.00  0.00    -0.318 N 
HETATM    6  H5  UNL     1      24.561   4.856  49.386  1.00  0.00     0.169 HD
HETATM    7  O1  UNL     1      26.722   2.455  50.127  1.00  0.00    -0.258 OA
BRANCH   5   8
HETATM    8  C3  UNL     1      23.866   3.167  50.333  1.00  0.00     0.032 C 
HETATM    9  C2  UNL     1      23.687   3.019  51.797  1.00  0.00     0.131 C 
HETATM   10  C1  UNL     1      22.477   3.861  52.184  1.00  0.00     0.039 C 
HETATM   11  N4  UNL     1      23.604   1.698  52.306  1.00  0.00    -0.354 N 
HETATM   12  C12 UNL     1      22.842   0.478  52.145  1.00  0.00     0.207 C 
HETATM   13  N3  UNL     1      21.769   1.170  52.154  1.00  0.00    -0.238 NA
HETATM   14  C11 UNL     1      20.495   0.573  52.022  1.00  0.00     0.227 C 
HETATM   15  N2  UNL     1      20.033   0.579  50.784  1.00  0.00    -0.282 NA
HETATM   16  C10 UNL     1      20.923   1.196  49.801  1.00  0.00     0.098 C 
HETATM   17  C9  UNL     1      21.836   1.824  48.985  1.00  0.00     0.100 C 
HETATM   18  C8  UNL     1      23.022   2.614  49.443  1.00  0.00     0.008 C 
BRANCH  11  19
HETATM   19  C13 UNL     1      24.491   1.276  53.347  1.00  0.00     0.133 A 
HETATM   20  C14 UNL     1      25.105  -0.066  53.073  1.00  0.00     0.004 A 
HETATM   21  C15 UNL     1      26.432   0.034  53.062  1.00  0.00     0.017 A 
HETATM   22  C16 UNL     1      26.804   1.422  53.322  1.00  0.00     0.009 A 
HETATM   23 BR1  UNL     1      28.446   2.370  53.468  1.00  0.00    -0.051 Br
HETATM   24  C17 UNL     1      25.688   2.124  53.485  1.00  0.00     0.021 A 
ENDBRANCH  11  19
ENDBRANCH   5   8
ENDBRANCH   1   4
TORSDOF 3
ENDMDL
MODEL 2
REMARK VINA RESULT:      -7.5      2.413      6.458
REMARK  3 active torsions:
REMARK  status: ('A' for Active; 'I' for Inactive)
REMARK    1  A    between atoms: C3_3  and  N1_4 
REMARK       I    between atoms: N1_4  and  C4_5 
REMARK    2  A    between atoms: C4_5  and  C5_7 
REMARK    3  A    between atoms: N4_17  and  C13_18 
ROOT
HETATM    1  C5  UNL     1      20.081   0.232  51.777  1.00  0.00    -0.006 C 
HETATM    2  C6  UNL     1      18.931  -0.113  51.937  1.00  0.00    -0.101 C 
HETATM    3  C7  UNL     1      17.542  -0.523  52.144  1.00  0.00     0.112 C 
ENDROOT
BRANCH   1   4
HETATM    4  C4  UNL     1      21.465   0.624  51.597  1.00  0.00     0.300 C 
HETATM    5  N1  UNL     1      22.212   0.809  52.799  1.00  0.00    -0.318 N 
HETATM    6  H5  UNL     1      21.784   0.668  53.763  1.00  0.00     0.169 HD
HETATM    7  O1  UNL     1      21.972   0.792  50.456  1.00  0.00    -0.258 OA
BRANCH   5   8
HETATM    8  C3  UNL     1      23.577   1.190  52.899  1.00  0.00     0.032 C 
HETATM    9  C2  UNL     1      24.108   2.431  52.286  1.00  0.00     0.131 C 
HETATM   10  C1  UNL     1      24.379   3.409  53.424  1.00  0.00     0.039 C 
HETATM   11  N4  UNL     1      25.224   2.296  51.421  1.00  0.00    -0.354 N 
HETATM   12  C12 UNL     1      26.574   1.775  51.401  1.00  0.00     0.207 C 
HETATM   13  N3  UNL     1      26.783   2.327  52.533  1.00  0.00    -0.238 NA
HETATM   14  C11 UNL     1      28.027   2.222  53.196  1.00  0.00     0.227 C 
HETATM   15  N2  UNL     1      28.068   1.253  54.094  1.00  0.00    -0.282 NA
HETATM   16  C10 UNL     1      26.830   0.485  54.223  1.00  0.00     0.098 C 
HETATM   17  C9  UNL     1      25.604  -0.139  54.267  1.00  0.00     0.100 C 
HETATM   18  C8  UNL     1      24.348   0.355  53.621  1.00  0.00     0.008 C 
BRANCH  11  19
HETATM   19  C13 UNL     1      25.162   2.816  50.089  1.00  0.00     0.133 A 
HETATM   20  C14 UNL     1      24.362   4.083  50.001  1.00  0.00     0.004 A 
HETATM   21  C15 UNL     1      25.114   5.064  49.507  1.00  0.00     0.017 A 
HETATM   22  C16 UNL     1      26.450   4.543  49.230  1.00  0.00     0.009 A 
HETATM   23 BR1  UNL     1      28.061   5.274  48.535  1.00  0.00    -0.051 Br
HETATM   24  C17 UNL     1      26.468   3.257  49.566  1.00  0.00     0.021 A 
ENDBRANCH  11  19
ENDBRANCH   5   8
ENDBRANCH   1   4
TORSDOF 3
ENDMDL
MODEL 3
REMARK VINA RESULT:      -7.1      2.634      5.000
REMARK  3 active torsions:
REMARK  status: ('A' for Active; 'I' for Inactive)
REMARK    1  A    between atoms: C3_3  and  N1_4 
REMARK       I    between atoms: N1_4  and  C4_5 
REMARK    2  A    between atoms: C4_5  and  C5_7 
REMARK    3  A    between atoms: N4_17  and  C13_18 
ROOT
HETATM    1  C5  UNL     1      27.774   0.333  53.168  1.00  0.00    -0.006 C 
HETATM    2  C6  UNL     1      28.471  -0.654  53.249  1.00  0.00    -0.101 C 
HETATM    3  C7  UNL     1      29.305  -1.851  53.362  1.00  0.00     0.112 C 
ENDROOT
BRANCH   1   4
HETATM    4  C4  UNL     1      26.958   1.528  53.083  1.00  0.00     0.300 C 
HETATM    5  N1  UNL     1      26.105   1.610  51.941  1.00  0.00    -0.318 N 
HETATM    6  H5  UNL     1      26.070   0.846  51.201  1.00  0.00     0.169 HD
HETATM    7  O1  UNL     1      27.000   2.434  53.958  1.00  0.00    -0.258 OA
BRANCH   5   8
HETATM    8  C3  UNL     1      25.212   2.668  51.623  1.00  0.00     0.032 C 
HETATM    9  C2  UNL     1      23.933   2.879  52.342  1.00  0.00     0.131 C 
HETATM   10  C1  UNL     1      24.116   4.107  53.225  1.00  0.00     0.039 C 
HETATM   11  N4  UNL     1      22.756   2.957  51.554  1.00  0.00    -0.354 N 
HETATM   12  C12 UNL     1      22.193   3.701  50.447  1.00  0.00     0.207 C 
HETATM   13  N3  UNL     1      22.597   4.782  50.993  1.00  0.00    -0.238 NA
HETATM   14  C11 UNL     1      22.376   6.046  50.400  1.00  0.00     0.227 C 
HETATM   15  N2  UNL     1      23.395   6.480  49.682  1.00  0.00    -0.282 NA
HETATM   16  C10 UNL     1      24.544   5.575  49.639  1.00  0.00     0.098 C 
HETATM   17  C9  UNL     1      25.562   4.652  49.702  1.00  0.00     0.100 C 
HETATM   18  C8  UNL     1      25.630   3.486  50.639  1.00  0.00     0.008 C 
BRANCH  11  19
HETATM   19  C13 UNL     1      21.652   2.090  51.830  1.00  0.00     0.133 A 
HETATM   20  C14 UNL     1      21.476   1.029  50.783  1.00  0.00     0.004 A 
HETATM   21  C15 UNL     1      21.547  -0.178  51.341  1.00  0.00     0.017 A 
HETATM   22  C16 UNL     1      21.771  -0.023  52.776  1.00  0.00     0.009 A 
HETATM   23 BR1  UNL     1      21.982  -1.218  54.240  1.00  0.00    -0.051 Br
HETATM   24  C17 UNL     1      21.829   1.277  53.046  1.00  0.00     0.021 A 
ENDBRANCH  11  19
ENDBRANCH   5   8
ENDBRANCH   1   4
TORSDOF 3
ENDMDL
MODEL 4
REMARK VINA RESULT:      -7.0      2.908      4.681
REMARK  3 active torsions:
REMARK  status: ('A' for Active; 'I' for Inactive)
REMARK    1  A    between atoms: C3_3  and  N1_4 
REMARK       I    between atoms: N1_4  and  C4_5 
REMARK    2  A    between atoms: C4_5  and  C5_7 
REMARK    3  A    between atoms: N4_17  and  C13_18 
ROOT
HETATM    1  C5  UNL     1      28.228   5.992  48.184  1.00  0.00    -0.006 C 
HETATM    2  C6  UNL     1      29.243   6.456  47.714  1.00  0.00    -0.101 C 
HETATM    3  C7  UNL     1      30.473   7.024  47.162  1.00  0.00     0.112 C 
ENDROOT
BRANCH   1   4
HETATM    4  C4  UNL     1      27.000   5.457  48.740  1.00  0.00     0.300 C 
HETATM    5  N1  UNL     1      27.160   4.358  49.637  1.00  0.00    -0.318 N 
HETATM    6  H5  UNL     1      28.114   3.959  49.883  1.00  0.00     0.169 HD
HETATM    7  O1  UNL     1      25.869   5.929  48.448  1.00  0.00    -0.258 OA
BRANCH   5   8
HETATM    8  C3  UNL     1      26.125   3.658  50.313  1.00  0.00     0.032 C 
HETATM    9  C2  UNL     1      24.714   4.115  50.308  1.00  0.00     0.131 C 
HETATM   10  C1  UNL     1      23.941   3.163  49.404  1.00  0.00     0.039 C 
HETATM   11  N4  UNL     1      24.087   4.282  51.570  1.00  0.00    -0.354 N 
HETATM   12  C12 UNL     1      23.788   3.548  52.781  1.00  0.00     0.207 C 
HETATM   13  N3  UNL     1      23.398   2.565  52.067  1.00  0.00    -0.238 NA
HETATM   14  C11 UNL     1      22.920   1.366  52.644  1.00  0.00     0.227 C 
HETATM   15  N2  UNL     1      23.842   0.426  52.751  1.00  0.00    -0.282 NA
HETATM   16  C10 UNL     1      25.165   0.807  52.257  1.00  0.00     0.098 C 
HETATM   17  C9  UNL     1      26.349   1.277  51.736  1.00  0.00     0.100 C 
HETATM   18  C8  UNL     1      26.515   2.529  50.933  1.00  0.00     0.008 C 
BRANCH  11  19
HETATM   19  C13 UNL     1      23.478   5.533  51.906  1.00  0.00     0.133 A 
HETATM   20  C14 UNL     1      24.221   6.706  51.337  1.00  0.00     0.004 A 
HETATM   21  C15 UNL     1      23.415   7.421  50.555  1.00  0.00     0.017 A 
HETATM   22  C16 UNL     1      22.096   6.795  50.538  1.00  0.00     0.009 A 
HETATM   23 BR1  UNL     1      20.436   7.180  49.693  1.00  0.00    -0.051 Br
HETATM   24  C17 UNL     1      22.141   5.717  51.313  1.00  0.00     0.021 A 
ENDBRANCH  11  19
ENDBRANCH   5   8
ENDBRANCH   1   4
TORSDOF 3
ENDMDL
MODEL 5
REMARK VINA RESULT:      -6.9      2.915      5.142
REMARK  3 active torsions:
REMARK  status: ('A' for Active; 'I' for Inactive)
REMARK    1  A    between atoms: C3_3  and  N1_4 
REMARK       I    between atoms: N1_4  and  C4_5 
REMARK    2  A    between atoms: C4_5  and  C5_7 
REMARK    3  A    between atoms: N4_17  and  C13_18 
ROOT
HETATM    1  C5  UNL     1      27.330   0.206  53.230  1.00  0.00    -0.006 C 
HETATM    2  C6  UNL     1      28.276  -0.550  53.258  1.00  0.00    -0.101 C 
HETATM    3  C7  UNL     1      29.408  -1.477  53.292  1.00  0.00     0.112 C 
ENDROOT
BRANCH   1   4
HETATM    4  C4  UNL     1      26.197   1.111  53.221  1.00  0.00     0.300 C 
HETATM    5  N1  UNL     1      25.183   0.815  52.261  1.00  0.00    -0.318 N 
HETATM    6  H5  UNL     1      25.251  -0.013  51.598  1.00  0.00     0.169 HD
HETATM    7  O1  UNL     1      26.117   2.093  54.006  1.00  0.00    -0.258 OA
BRANCH   5   8
HETATM    8  C3  UNL     1      23.980   1.541  52.049  1.00  0.00     0.032 C 
HETATM    9  C2  UNL     1      23.879   2.655  51.075  1.00  0.00     0.131 C 
HETATM   10  C1  UNL     1      23.066   2.140  49.894  1.00  0.00     0.039 C 
HETATM   11  N4  UNL     1      23.388   3.893  51.562  1.00  0.00    -0.354 N 
HETATM   12  C12 UNL     1      22.244   4.459  52.245  1.00  0.00     0.207 C 
HETATM   13  N3  UNL     1      21.477   3.799  51.464  1.00  0.00    -0.238 NA
HETATM   14  C11 UNL     1      20.070   3.870  51.565  1.00  0.00     0.227 C 
HETATM   15  N2  UNL     1      19.540   2.895  52.282  1.00  0.00    -0.282 NA
HETATM   16  C10 UNL     1      20.507   1.942  52.827  1.00  0.00     0.098 C 
HETATM   17  C9  UNL     1      21.510   1.104  53.256  1.00  0.00     0.100 C 
HETATM   18  C8  UNL     1      22.928   1.120  52.775  1.00  0.00     0.008 C 
BRANCH  11  19
HETATM   19  C13 UNL     1      24.156   5.087  51.381  1.00  0.00     0.133 A 
HETATM   20  C14 UNL     1      25.049   5.021  50.176  1.00  0.00     0.004 A 
HETATM   21  C15 UNL     1      24.763   6.017  49.341  1.00  0.00     0.017 A 
HETATM   22  C16 UNL     1      23.679   6.813  49.908  1.00  0.00     0.009 A 
HETATM   23 BR1  UNL     1      22.717   8.360  49.360  1.00  0.00    -0.051 Br
HETATM   24  C17 UNL     1      23.339   6.275  51.074  1.00  0.00     0.021 A 
ENDBRANCH  11  19
ENDBRANCH   5   8
ENDBRANCH   1   4
TORSDOF 3
ENDMDL
MODEL 6
REMARK VINA RESULT:      -6.9      5.341     10.539
REMARK  3 active torsions:
REMARK  status: ('A' for Active; 'I' for Inactive)
REMARK    1  A    between atoms: C3_3  and  N1_4 
REMARK       I    between atoms: N1_4  and  C4_5 
REMARK    2  A    between atoms: C4_5  and  C5_7 
REMARK    3  A    between atoms: N4_17  and  C13_18 
ROOT
HETATM    1  C5  UNL     1      27.285   4.943  48.943  1.00  0.00    -0.006 C 
HETATM    2  C6  UNL     1      26.792   3.942  49.416  1.00  0.00    -0.101 C 
HETATM    3  C7  UNL     1      26.211   2.726  49.984  1.00  0.00     0.112 C 
ENDROOT
BRANCH   1   4
HETATM    4  C4  UNL     1      27.866   6.133  48.355  1.00  0.00     0.300 C 
HETATM    5  N1  UNL     1      29.243   6.358  48.658  1.00  0.00    -0.318 N 
HETATM    6  H5  UNL     1      29.806   5.698  49.273  1.00  0.00     0.169 HD
HETATM    7  O1  UNL     1      27.200   6.917  47.627  1.00  0.00    -0.258 OA
BRANCH   5   8
HETATM    8  C3  UNL     1      30.043   7.444  48.210  1.00  0.00     0.032 C 
HETATM    9  C2  UNL     1      30.916   7.354  47.015  1.00  0.00     0.131 C 
HETATM   10  C1  UNL     1      30.254   8.179  45.918  1.00  0.00     0.039 C 
HETATM   11  N4  UNL     1      32.283   7.694  47.188  1.00  0.00    -0.354 N 
HETATM   12  C12 UNL     1      33.121   8.780  47.651  1.00  0.00     0.207 C 
HETATM   13  N3  UNL     1      32.402   9.594  46.979  1.00  0.00    -0.238 NA
HETATM   14  C11 UNL     1      32.665  10.983  46.963  1.00  0.00     0.227 C 
HETATM   15  N2  UNL     1      31.945  11.668  47.834  1.00  0.00    -0.282 NA
HETATM   16  C10 UNL     1      31.027  10.861  48.638  1.00  0.00     0.098 C 
HETATM   17  C9  UNL     1      30.190   9.998  49.307  1.00  0.00     0.100 C 
HETATM   18  C8  UNL     1      29.926   8.572  48.935  1.00  0.00     0.008 C 
BRANCH  11  19
HETATM   19  C13 UNL     1      33.304   6.766  46.808  1.00  0.00     0.133 A 
HETATM   20  C14 UNL     1      34.284   6.502  47.914  1.00  0.00     0.004 A 
HETATM   21  C15 UNL     1      34.309   5.203  48.201  1.00  0.00     0.017 A 
HETATM   22  C16 UNL     1      33.367   4.508  47.329  1.00  0.00     0.009 A 
HETATM   23 BR1  UNL     1      32.823   2.699  47.107  1.00  0.00    -0.051 Br
HETATM   24  C17 UNL     1      32.797   5.409  46.536  1.00  0.00     0.021 A 
ENDBRANCH  11  19
ENDBRANCH   5   8
ENDBRANCH   1   4
TORSDOF 3
ENDMDL
MODEL 7
REMARK VINA RESULT:      -6.6      1.918      2.221
REMARK  3 active torsions:
REMARK  status: ('A' for Active; 'I' for Inactive)
REMARK    1  A    between atoms: C3_3  and  N1_4 
REMARK       I    between atoms: N1_4  and  C4_5 
REMARK    2  A    between atoms: C4_5  and  C5_7 
REMARK    3  A    between atoms: N4_17  and  C13_18 
ROOT
HETATM    1  C5  UNL     1      26.794   6.329  48.918  1.00  0.00    -0.006 C 
HETATM    2  C6  UNL     1      27.584   7.156  48.522  1.00  0.00    -0.101 C 
HETATM    3  C7  UNL     1      28.529   8.160  48.032  1.00  0.00     0.112 C 
ENDROOT
BRANCH   1   4
HETATM    4  C4  UNL     1      25.857   5.321  49.376  1.00  0.00     0.300 C 
HETATM    5  N1  UNL     1      24.898   5.765  50.336  1.00  0.00    -0.318 N 
HETATM    6  H5  UNL     1      24.870   6.767  50.690  1.00  0.00     0.169 HD
HETATM    7  O1  UNL     1      25.891   4.133  48.957  1.00  0.00    -0.258 OA
BRANCH   5   8
HETATM    8  C3  UNL     1      23.878   4.982  50.940  1.00  0.00     0.032 C 
HETATM    9  C2  UNL     1      24.168   3.921  51.935  1.00  0.00     0.131 C 
HETATM   10  C1  UNL     1      23.726   4.452  53.293  1.00  0.00     0.039 C 
HETATM   11  N4  UNL     1      23.644   2.629  51.669  1.00  0.00    -0.354 N 
HETATM   12  C12 UNL     1      22.389   1.959  51.401  1.00  0.00     0.207 C 
HETATM   13  N3  UNL     1      21.857   2.614  52.359  1.00  0.00    -0.238 NA
HETATM   14  C11 UNL     1      20.497   2.454  52.707  1.00  0.00     0.227 C 
HETATM   15  N2  UNL     1      19.700   3.354  52.160  1.00  0.00    -0.282 NA
HETATM   16  C10 UNL     1      20.375   4.331  51.306  1.00  0.00     0.098 C 
HETATM   17  C9  UNL     1      21.131   5.201  50.555  1.00  0.00     0.100 C 
HETATM   18  C8  UNL     1      22.624   5.298  50.566  1.00  0.00     0.008 C 
BRANCH  11  19
HETATM   19  C13 UNL     1      24.517   1.496  51.642  1.00  0.00     0.133 A 
HETATM   20  C14 UNL     1      25.908   1.850  51.204  1.00  0.00     0.004 A 
HETATM   21  C15 UNL     1      26.783   1.512  52.148  1.00  0.00     0.017 A 
HETATM   22  C16 UNL     1      26.063   0.917  53.270  1.00  0.00     0.009 A 
HETATM   23 BR1  UNL     1      26.561   0.195  54.958  1.00  0.00    -0.051 Br
HETATM   24  C17 UNL     1      24.768   0.912  52.972  1.00  0.00     0.021 A 
ENDBRANCH  11  19
ENDBRANCH   5   8
ENDBRANCH   1   4
TORSDOF 3
ENDMDL
MODEL 8
REMARK VINA RESULT:      -6.5      2.689      3.099
REMARK  3 active torsions:
REMARK  status: ('A' for Active; 'I' for Inactive)
REMARK    1  A    between atoms: C3_3  and  N1_4 
REMARK       I    between atoms: N1_4  and  C4_5 
REMARK    2  A    between atoms: C4_5  and  C5_7 
REMARK    3  A    between atoms: N4_17  and  C13_18 
ROOT
HETATM    1  C5  UNL     1      26.767   6.293  48.962  1.00  0.00    -0.006 C 
HETATM    2  C6  UNL     1      27.782   6.428  48.316  1.00  0.00    -0.101 C 
HETATM    3  C7  UNL     1      29.009   6.606  47.540  1.00  0.00     0.112 C 
ENDROOT
BRANCH   1   4
HETATM    4  C4  UNL     1      25.537   6.139  49.715  1.00  0.00     0.300 C 
HETATM    5  N1  UNL     1      24.720   5.032  49.336  1.00  0.00    -0.318 N 
HETATM    6  H5  UNL     1      24.993   4.364  48.555  1.00  0.00     0.169 HD
HETATM    7  O1  UNL     1      25.213   6.930  50.640  1.00  0.00    -0.258 OA
BRANCH   5   8
HETATM    8  C3  UNL     1      23.474   4.661  49.911  1.00  0.00     0.032 C 
HETATM    9  C2  UNL     1      23.372   3.775  51.095  1.00  0.00     0.131 C 
HETATM   10  C1  UNL     1      22.968   4.652  52.273  1.00  0.00     0.039 C 
HETATM   11  N4  UNL     1      22.545   2.629  50.972  1.00  0.00    -0.354 N 
HETATM   12  C12 UNL     1      21.186   2.254  50.643  1.00  0.00     0.207 C 
HETATM   13  N3  UNL     1      20.765   3.194  51.398  1.00  0.00    -0.238 NA
HETATM   14  C11 UNL     1      19.386   3.449  51.573  1.00  0.00     0.227 C 
HETATM   15  N2  UNL     1      18.917   4.395  50.780  1.00  0.00    -0.282 NA
HETATM   16  C10 UNL     1      19.908   4.988  49.882  1.00  0.00     0.098 C 
HETATM   17  C9  UNL     1      20.937   5.480  49.113  1.00  0.00     0.100 C 
HETATM   18  C8  UNL     1      22.393   5.201  49.318  1.00  0.00     0.008 C 
BRANCH  11  19
HETATM   19  C13 UNL     1      23.077   1.330  51.253  1.00  0.00     0.133 A 
HETATM   20  C14 UNL     1      24.386   1.389  51.984  1.00  0.00     0.004 A 
HETATM   21  C15 UNL     1      24.292   0.736  53.141  1.00  0.00     0.017 A 
HETATM   22  C16 UNL     1      22.941   0.200  53.273  1.00  0.00     0.009 A 
HETATM   23 BR1  UNL     1      22.022  -0.822  54.587  1.00  0.00    -0.051 Br
HETATM   24  C17 UNL     1      22.253   0.544  52.189  1.00  0.00     0.021 A 
ENDBRANCH  11  19
ENDBRANCH   5   8
ENDBRANCH   1   4
TORSDOF 3
ENDMDL
MODEL 9
REMARK VINA RESULT:      -6.3      3.008      6.327
REMARK  3 active torsions:
REMARK  status: ('A' for Active; 'I' for Inactive)
REMARK    1  A    between atoms: C3_3  and  N1_4 
REMARK       I    between atoms: N1_4  and  C4_5 
REMARK    2  A    between atoms: C4_5  and  C5_7 
REMARK    3  A    between atoms: N4_17  and  C13_18 
ROOT
HETATM    1  C5  UNL     1      19.097  -0.119  52.464  1.00  0.00    -0.006 C 
HETATM    2  C6  UNL     1      18.402  -1.028  52.861  1.00  0.00    -0.101 C 
HETATM    3  C7  UNL     1      17.561  -2.132  53.324  1.00  0.00     0.112 C 
ENDROOT
BRANCH   1   4
HETATM    4  C4  UNL     1      19.908   0.983  51.985  1.00  0.00     0.300 C 
HETATM    5  N1  UNL     1      19.897   1.185  50.572  1.00  0.00    -0.318 N 
HETATM    6  H5  UNL     1      19.331   0.571  49.914  1.00  0.00     0.169 HD
HETATM    7  O1  UNL     1      20.580   1.711  52.764  1.00  0.00    -0.258 OA
BRANCH   5   8
HETATM    8  C3  UNL     1      20.601   2.188  49.853  1.00  0.00     0.032 C 
HETATM    9  C2  UNL     1      22.047   2.083  49.541  1.00  0.00     0.131 C 
HETATM   10  C1  UNL     1      22.160   1.788  48.051  1.00  0.00     0.039 C 
HETATM   11  N4  UNL     1      22.872   3.167  49.936  1.00  0.00    -0.354 N 
HETATM   12  C12 UNL     1      22.998   4.600  49.774  1.00  0.00     0.207 C 
HETATM   13  N3  UNL     1      22.789   4.457  48.522  1.00  0.00    -0.238 NA
HETATM   14  C11 UNL     1      22.764   5.560  47.640  1.00  0.00     0.227 C 
HETATM   15  N2  UNL     1      21.549   6.019  47.399  1.00  0.00    -0.282 NA
HETATM   16  C10 UNL     1      20.476   5.303  48.089  1.00  0.00     0.098 C 
HETATM   17  C9  UNL     1      19.563   4.532  48.770  1.00  0.00     0.100 C 
HETATM   18  C8  UNL     1      19.850   3.228  49.448  1.00  0.00     0.008 C 
BRANCH  11  19
HETATM   19  C13 UNL     1      24.020   2.930  50.757  1.00  0.00     0.133 A 
HETATM   20  C14 UNL     1      24.021   3.768  52.002  1.00  0.00     0.004 A 
HETATM   21  C15 UNL     1      24.067   2.986  53.078  1.00  0.00     0.017 A 
HETATM   22  C16 UNL     1      24.100   1.591  52.648  1.00  0.00     0.009 A 
HETATM   23 BR1  UNL     1      24.169  -0.088  53.537  1.00  0.00    -0.051 Br
HETATM   24  C17 UNL     1      24.073   1.569  51.320  1.00  0.00     0.021 A 
ENDBRANCH  11  19
ENDBRANCH   5   8
ENDBRANCH   1   4
TORSDOF 3
ENDMDL
