MODEL 1
REMARK VINA RESULT:      -8.3      0.000      0.000
REMARK  2 active torsions:
REMARK  status: ('A' for Active; 'I' for Inactive)
REMARK    1  A    between atoms: C2_2  and  N1_3 
REMARK    2  A    between atoms: C16_20  and  O2_21 
ROOT
HETATM    1  N1  UNL     1      26.011  -0.186  52.933  1.00  0.00    -0.362 N 
HETATM    2  C3  UNL     1      26.152   1.231  52.493  1.00  0.00     0.151 C 
HETATM    3  C4  UNL     1      25.695   2.182  53.505  1.00  0.00    -0.011 C 
HETATM    4  C5  UNL     1      24.450   2.736  53.369  1.00  0.00    -0.023 C 
HETATM    5  C6  UNL     1      23.281   2.688  52.441  1.00  0.00     0.047 C 
HETATM    6  C7  UNL     1      23.243   1.965  51.262  1.00  0.00     0.005 C 
HETATM    7  C8  UNL     1      21.906   2.070  50.574  1.00  0.00     0.176 C 
HETATM    8  O1  UNL     1      21.557   0.591  50.599  1.00  0.00    -0.348 OA
HETATM    9  C9  UNL     1      21.657   0.082  51.918  1.00  0.00     0.103 A 
HETATM   10  C10 UNL     1      22.927  -0.112  52.414  1.00  0.00     0.057 A 
HETATM   11  C11 UNL     1      23.637  -0.522  53.509  1.00  0.00     0.041 A 
HETATM   12  C12 UNL     1      24.985  -0.608  53.878  1.00  0.00     0.140 A 
HETATM   13  N2  UNL     1      25.256  -1.029  55.103  1.00  0.00    -0.224 NA
HETATM   14  C13 UNL     1      24.275  -1.368  55.991  1.00  0.00     0.236 A 
HETATM   15  N3  UNL     1      22.968  -1.297  55.685  1.00  0.00    -0.241 NA
HETATM   16  C14 UNL     1      22.666  -0.865  54.425  1.00  0.00     0.075 A 
HETATM   17  C15 UNL     1      21.297  -0.758  54.147  1.00  0.00     0.072 A 
HETATM   18  C16 UNL     1      20.821  -0.300  52.941  1.00  0.00     0.103 A 
ENDROOT
BRANCH   1  19
HETATM   19  C2  UNL     1      26.689  -1.369  52.476  1.00  0.00     0.120 C 
HETATM   20  C1  UNL     1      28.092  -1.544  52.950  1.00  0.00     0.026 C 
ENDBRANCH   1  19
BRANCH  18  21
HETATM   21  O2  UNL     1      19.507  -0.131  52.507  1.00  0.00    -0.353 OA
HETATM   22  C17 UNL     1      18.397  -0.851  52.934  1.00  0.00     0.210 C 
ENDBRANCH  18  21
TORSDOF 2
ENDMDL
MODEL 2
REMARK VINA RESULT:      -7.1      3.093      5.870
REMARK  2 active torsions:
REMARK  status: ('A' for Active; 'I' for Inactive)
REMARK    1  A    between atoms: C2_2  and  N1_3 
REMARK    2  A    between atoms: C16_20  and  O2_21 
ROOT
HETATM    1  N1  UNL     1      20.863   1.324  50.673  1.00  0.00    -0.362 N 
HETATM    2  C3  UNL     1      20.362   0.232  51.555  1.00  0.00     0.151 C 
HETATM    3  C4  UNL     1      19.957   0.718  52.873  1.00  0.00    -0.011 C 
HETATM    4  C5  UNL     1      20.821   0.558  53.924  1.00  0.00    -0.023 C 
HETATM    5  C6  UNL     1      22.178  -0.001  54.204  1.00  0.00     0.047 C 
HETATM    6  C7  UNL     1      22.968  -0.650  53.272  1.00  0.00     0.005 C 
HETATM    7  C8  UNL     1      24.307  -1.047  53.839  1.00  0.00     0.176 C 
HETATM    8  O1  UNL     1      25.170  -0.243  52.882  1.00  0.00    -0.348 OA
HETATM    9  C9  UNL     1      24.761   1.114  52.868  1.00  0.00     0.103 A 
HETATM   10  C10 UNL     1      23.590   1.402  52.204  1.00  0.00     0.057 A 
HETATM   11  C11 UNL     1      22.727   2.409  51.867  1.00  0.00     0.041 A 
HETATM   12  C12 UNL     1      21.500   2.522  51.203  1.00  0.00     0.140 A 
HETATM   13  N2  UNL     1      20.952   3.725  51.136  1.00  0.00    -0.224 NA
HETATM   14  C13 UNL     1      21.542   4.827  51.688  1.00  0.00     0.236 A 
HETATM   15  N3  UNL     1      22.716   4.767  52.338  1.00  0.00    -0.241 NA
HETATM   16  C14 UNL     1      23.298   3.534  52.420  1.00  0.00     0.075 A 
HETATM   17  C15 UNL     1      24.499   3.493  53.142  1.00  0.00     0.072 A 
HETATM   18  C16 UNL     1      25.194   2.325  53.354  1.00  0.00     0.103 A 
ENDROOT
BRANCH   1  19
HETATM   19  C2  UNL     1      20.954   1.385  49.239  1.00  0.00     0.120 C 
HETATM   20  C1  UNL     1      22.293   1.732  48.682  1.00  0.00     0.026 C 
ENDBRANCH   1  19
BRANCH  18  21
HETATM   21  O2  UNL     1      26.387   2.110  54.043  1.00  0.00    -0.353 OA
HETATM   22  C17 UNL     1      27.666   2.108  53.499  1.00  0.00     0.210 C 
ENDBRANCH  18  21
TORSDOF 2
ENDMDL
MODEL 3
REMARK VINA RESULT:      -6.9      1.716      2.302
REMARK  2 active torsions:
REMARK  status: ('A' for Active; 'I' for Inactive)
REMARK    1  A    between atoms: C2_2  and  N1_3 
REMARK    2  A    between atoms: C16_20  and  O2_21 
ROOT
HETATM    1  N1  UNL     1      24.769   0.414  52.997  1.00  0.00    -0.362 N 
HETATM    2  C3  UNL     1      25.292   1.775  52.694  1.00  0.00     0.151 C 
HETATM    3  C4  UNL     1      24.533   2.830  53.364  1.00  0.00    -0.011 C 
HETATM    4  C5  UNL     1      23.594   3.521  52.644  1.00  0.00    -0.023 C 
HETATM    5  C6  UNL     1      23.026   3.561  51.264  1.00  0.00     0.047 C 
HETATM    6  C7  UNL     1      23.467   2.782  50.209  1.00  0.00     0.005 C 
HETATM    7  C8  UNL     1      22.657   3.007  48.958  1.00  0.00     0.176 C 
HETATM    8  O1  UNL     1      22.147   1.584  48.797  1.00  0.00    -0.348 OA
HETATM    9  C9  UNL     1      21.529   1.143  49.993  1.00  0.00     0.103 A 
HETATM   10  C10 UNL     1      22.361   0.827  51.043  1.00  0.00     0.057 A 
HETATM   11  C11 UNL     1      22.392   0.398  52.341  1.00  0.00     0.041 A 
HETATM   12  C12 UNL     1      23.368   0.172  53.320  1.00  0.00     0.140 A 
HETATM   13  N2  UNL     1      22.954  -0.208  54.518  1.00  0.00    -0.224 NA
HETATM   14  C13 UNL     1      21.631  -0.376  54.812  1.00  0.00     0.236 A 
HETATM   15  N3  UNL     1      20.658  -0.167  53.910  1.00  0.00    -0.241 NA
HETATM   16  C14 UNL     1      21.064   0.227  52.666  1.00  0.00     0.075 A 
HETATM   17  C15 UNL     1      20.028   0.481  51.757  1.00  0.00     0.072 A 
HETATM   18  C16 UNL     1      20.260   0.923  50.476  1.00  0.00     0.103 A 
ENDROOT
BRANCH   1  19
HETATM   19  C2  UNL     1      25.420  -0.866  52.918  1.00  0.00     0.120 C 
HETATM   20  C1  UNL     1      26.821  -0.857  52.407  1.00  0.00     0.026 C 
ENDBRANCH   1  19
BRANCH  18  21
HETATM   21  O2  UNL     1      19.355   1.223  49.458  1.00  0.00    -0.353 OA
HETATM   22  C17 UNL     1      18.047   1.662  49.620  1.00  0.00     0.210 C 
ENDBRANCH  18  21
TORSDOF 2
ENDMDL
MODEL 4
REMARK VINA RESULT:      -6.9      2.209      3.500
REMARK  2 active torsions:
REMARK  status: ('A' for Active; 'I' for Inactive)
REMARK    1  A    between atoms: C2_2  and  N1_3 
REMARK    2  A    between atoms: C16_20  and  O2_21 
ROOT
HETATM    1  N1  UNL     1      25.309   3.591  50.619  1.00  0.00    -0.362 N 
HETATM    2  C3  UNL     1      24.242   4.631  50.633  1.00  0.00     0.151 C 
HETATM    3  C4  UNL     1      23.899   5.065  51.986  1.00  0.00    -0.011 C 
HETATM    4  C5  UNL     1      22.777   4.547  52.577  1.00  0.00    -0.023 C 
HETATM    5  C6  UNL     1      21.674   3.588  52.272  1.00  0.00     0.047 C 
HETATM    6  C7  UNL     1      21.506   2.942  51.060  1.00  0.00     0.005 C 
HETATM    7  C8  UNL     1      20.336   1.992  51.079  1.00  0.00     0.176 C 
HETATM    8  O1  UNL     1      21.112   0.720  50.781  1.00  0.00    -0.348 OA
HETATM    9  C9  UNL     1      22.185   0.570  51.696  1.00  0.00     0.103 A 
HETATM   10  C10 UNL     1      23.275   1.390  51.515  1.00  0.00     0.057 A 
HETATM   11  C11 UNL     1      24.506   1.722  52.011  1.00  0.00     0.041 A 
HETATM   12  C12 UNL     1      25.504   2.661  51.723  1.00  0.00     0.140 A 
HETATM   13  N2  UNL     1      26.565   2.684  52.514  1.00  0.00    -0.224 NA
HETATM   14  C13 UNL     1      26.701   1.837  53.577  1.00  0.00     0.236 A 
HETATM   15  N3  UNL     1      25.769   0.923  53.895  1.00  0.00    -0.241 NA
HETATM   16  C14 UNL     1      24.664   0.882  53.093  1.00  0.00     0.075 A 
HETATM   17  C15 UNL     1      23.689  -0.048  53.473  1.00  0.00     0.072 A 
HETATM   18  C16 UNL     1      22.499  -0.190  52.798  1.00  0.00     0.103 A 
ENDROOT
BRANCH   1  19
HETATM   19  C2  UNL     1      26.214   3.209  49.568  1.00  0.00     0.120 C 
HETATM   20  C1  UNL     1      27.084   4.293  49.027  1.00  0.00     0.026 C 
ENDBRANCH   1  19
BRANCH  18  21
HETATM   21  O2  UNL     1      21.432  -1.054  53.043  1.00  0.00    -0.353 OA
HETATM   22  C17 UNL     1      20.990  -1.488  54.287  1.00  0.00     0.210 C 
ENDBRANCH  18  21
TORSDOF 2
ENDMDL
MODEL 5
REMARK VINA RESULT:      -6.9      3.132      5.373
REMARK  2 active torsions:
REMARK  status: ('A' for Active; 'I' for Inactive)
REMARK    1  A    between atoms: C2_2  and  N1_3 
REMARK    2  A    between atoms: C16_20  and  O2_21 
ROOT
HETATM    1  N1  UNL     1      23.594   4.300  51.244  1.00  0.00    -0.362 N 
HETATM    2  C3  UNL     1      24.940   4.471  50.629  1.00  0.00     0.151 C 
HETATM    3  C4  UNL     1      25.239   3.441  49.636  1.00  0.00    -0.011 C 
HETATM    4  C5  UNL     1      26.036   2.389  50.002  1.00  0.00    -0.023 C 
HETATM    5  C6  UNL     1      26.776   1.888  51.198  1.00  0.00     0.047 C 
HETATM    6  C7  UNL     1      26.863   2.557  52.406  1.00  0.00     0.005 C 
HETATM    7  C8  UNL     1      27.630   1.770  53.438  1.00  0.00     0.176 C 
HETATM    8  O1  UNL     1      26.510   1.647  54.459  1.00  0.00    -0.348 OA
HETATM    9  C9  UNL     1      25.346   1.111  53.854  1.00  0.00     0.103 A 
HETATM   10  C10 UNL     1      24.631   1.952  53.031  1.00  0.00     0.057 A 
HETATM   11  C11 UNL     1      23.535   2.036  52.218  1.00  0.00     0.041 A 
HETATM   12  C12 UNL     1      22.959   2.995  51.376  1.00  0.00     0.140 A 
HETATM   13  N2  UNL     1      21.879   2.641  50.697  1.00  0.00    -0.224 NA
HETATM   14  C13 UNL     1      21.333   1.393  50.796  1.00  0.00     0.236 A 
HETATM   15  N3  UNL     1      21.852   0.439  51.586  1.00  0.00    -0.241 NA
HETATM   16  C14 UNL     1      22.967   0.782  52.295  1.00  0.00     0.075 A 
HETATM   17  C15 UNL     1      23.513  -0.245  53.076  1.00  0.00     0.072 A 
HETATM   18  C16 UNL     1      24.658  -0.079  53.820  1.00  0.00     0.103 A 
ENDROOT
BRANCH   1  19
HETATM   19  C2  UNL     1      22.751   5.259  51.906  1.00  0.00     0.120 C 
HETATM   20  C1  UNL     1      22.057   6.241  51.025  1.00  0.00     0.026 C 
ENDBRANCH   1  19
BRANCH  18  21
HETATM   21  O2  UNL     1      25.329  -0.987  54.639  1.00  0.00    -0.353 OA
HETATM   22  C17 UNL     1      25.100  -1.202  55.993  1.00  0.00     0.210 C 
ENDBRANCH  18  21
TORSDOF 2
ENDMDL
MODEL 6
REMARK VINA RESULT:      -6.5      2.687      5.160
REMARK  2 active torsions:
REMARK  status: ('A' for Active; 'I' for Inactive)
REMARK    1  A    between atoms: C2_2  and  N1_3 
REMARK    2  A    between atoms: C16_20  and  O2_21 
ROOT
HETATM    1  N1  UNL     1      22.193   2.786  49.298  1.00  0.00    -0.362 N 
HETATM    2  C3  UNL     1      20.895   3.266  49.850  1.00  0.00     0.151 C 
HETATM    3  C4  UNL     1      21.068   4.191  50.968  1.00  0.00    -0.011 C 
HETATM    4  C5  UNL     1      20.918   3.713  52.243  1.00  0.00    -0.023 C 
HETATM    5  C6  UNL     1      20.608   2.433  52.947  1.00  0.00     0.047 C 
HETATM    6  C7  UNL     1      20.292   1.244  52.313  1.00  0.00     0.005 C 
HETATM    7  C8  UNL     1      20.087   0.116  53.291  1.00  0.00     0.176 C 
HETATM    8  O1  UNL     1      21.194  -0.791  52.777  1.00  0.00    -0.348 OA
HETATM    9  C9  UNL     1      22.424  -0.088  52.725  1.00  0.00     0.103 A 
HETATM   10  C10 UNL     1      22.573   0.829  51.709  1.00  0.00     0.057 A 
HETATM   11  C11 UNL     1      23.425   1.751  51.167  1.00  0.00     0.041 A 
HETATM   12  C12 UNL     1      23.394   2.677  50.116  1.00  0.00     0.140 A 
HETATM   13  N2  UNL     1      24.456   3.450  49.954  1.00  0.00    -0.224 NA
HETATM   14  C13 UNL     1      25.549   3.368  50.768  1.00  0.00     0.236 A 
HETATM   15  N3  UNL     1      25.624   2.499  51.790  1.00  0.00    -0.241 NA
HETATM   16  C14 UNL     1      24.538   1.692  51.977  1.00  0.00     0.075 A 
HETATM   17  C15 UNL     1      24.624   0.828  53.077  1.00  0.00     0.072 A 
HETATM   18  C16 UNL     1      23.603  -0.023  53.430  1.00  0.00     0.103 A 
ENDROOT
BRANCH   1  19
HETATM   19  C2  UNL     1      22.503   2.242  48.003  1.00  0.00     0.120 C 
HETATM   20  C1  UNL     1      22.030   3.032  46.831  1.00  0.00     0.026 C 
ENDBRANCH   1  19
BRANCH  18  21
HETATM   21  O2  UNL     1      23.524  -0.934  54.483  1.00  0.00    -0.353 OA
HETATM   22  C17 UNL     1      24.474  -1.128  55.479  1.00  0.00     0.210 C 
ENDBRANCH  18  21
TORSDOF 2
ENDMDL
MODEL 7
REMARK VINA RESULT:      -6.5      7.865      9.876
REMARK  2 active torsions:
REMARK  status: ('A' for Active; 'I' for Inactive)
REMARK    1  A    between atoms: C2_2  and  N1_3 
REMARK    2  A    between atoms: C16_20  and  O2_21 
ROOT
HETATM    1  N1  UNL     1      28.694   8.853  46.731  1.00  0.00    -0.362 N 
HETATM    2  C3  UNL     1      28.310   9.991  47.613  1.00  0.00     0.151 C 
HETATM    3  C4  UNL     1      28.825   9.846  48.973  1.00  0.00    -0.011 C 
HETATM    4  C5  UNL     1      27.978   9.391  49.949  1.00  0.00    -0.023 C 
HETATM    5  C6  UNL     1      26.561   8.946  50.107  1.00  0.00     0.047 C 
HETATM    6  C7  UNL     1      25.616   8.962  49.096  1.00  0.00     0.005 C 
HETATM    7  C8  UNL     1      24.293   8.397  49.547  1.00  0.00     0.176 C 
HETATM    8  O1  UNL     1      24.222   7.250  48.553  1.00  0.00    -0.348 OA
HETATM    9  C9  UNL     1      25.404   6.469  48.614  1.00  0.00     0.103 A 
HETATM   10  C10 UNL     1      26.537   7.012  48.051  1.00  0.00     0.057 A 
HETATM   11  C11 UNL     1      27.867   6.799  47.815  1.00  0.00     0.041 A 
HETATM   12  C12 UNL     1      28.931   7.512  47.250  1.00  0.00     0.140 A 
HETATM   13  N2  UNL     1      30.124   6.940  47.264  1.00  0.00    -0.224 NA
HETATM   14  C13 UNL     1      30.333   5.704  47.805  1.00  0.00     0.236 A 
HETATM   15  N3  UNL     1      29.346   4.983  48.362  1.00  0.00    -0.241 NA
HETATM   16  C14 UNL     1      28.105   5.555  48.359  1.00  0.00     0.075 A 
HETATM   17  C15 UNL     1      27.103   4.803  48.985  1.00  0.00     0.072 A 
HETATM   18  C16 UNL     1      25.808   5.250  49.105  1.00  0.00     0.103 A 
ENDROOT
BRANCH   1  19
HETATM   19  C2  UNL     1      28.778   8.782  45.297  1.00  0.00     0.120 C 
HETATM   20  C1  UNL     1      27.482   8.660  44.571  1.00  0.00     0.026 C 
ENDBRANCH   1  19
BRANCH  18  21
HETATM   21  O2  UNL     1      24.703   4.636  49.694  1.00  0.00    -0.353 OA
HETATM   22  C17 UNL     1      24.278   3.329  49.488  1.00  0.00     0.210 C 
ENDBRANCH  18  21
TORSDOF 2
ENDMDL
MODEL 8
REMARK VINA RESULT:      -6.4      2.750      5.507
REMARK  2 active torsions:
REMARK  status: ('A' for Active; 'I' for Inactive)
REMARK    1  A    between atoms: C2_2  and  N1_3 
REMARK    2  A    between atoms: C16_20  and  O2_21 
ROOT
HETATM    1  N1  UNL     1      20.398   0.403  51.822  1.00  0.00    -0.362 N 
HETATM    2  C3  UNL     1      20.023   0.603  50.393  1.00  0.00     0.151 C 
HETATM    3  C4  UNL     1      21.155   0.425  49.486  1.00  0.00    -0.011 C 
HETATM    4  C5  UNL     1      21.792   1.539  49.007  1.00  0.00    -0.023 C 
HETATM    5  C6  UNL     1      21.712   3.026  49.112  1.00  0.00     0.047 C 
HETATM    6  C7  UNL     1      20.742   3.713  49.820  1.00  0.00     0.005 C 
HETATM    7  C8  UNL     1      20.961   5.204  49.787  1.00  0.00     0.176 C 
HETATM    8  O1  UNL     1      21.116   5.411  51.285  1.00  0.00    -0.348 OA
HETATM    9  C9  UNL     1      22.107   4.542  51.804  1.00  0.00     0.103 A 
HETATM   10  C10 UNL     1      21.766   3.214  51.928  1.00  0.00     0.057 A 
HETATM   11  C11 UNL     1      22.227   1.984  52.309  1.00  0.00     0.041 A 
HETATM   12  C12 UNL     1      21.742   0.670  52.318  1.00  0.00     0.140 A 
HETATM   13  N2  UNL     1      22.562  -0.279  52.738  1.00  0.00    -0.224 NA
HETATM   14  C13 UNL     1      23.837  -0.012  53.149  1.00  0.00     0.236 A 
HETATM   15  N3  UNL     1      24.348   1.231  53.153  1.00  0.00    -0.241 NA
HETATM   16  C14 UNL     1      23.519   2.226  52.722  1.00  0.00     0.075 A 
HETATM   17  C15 UNL     1      24.091   3.505  52.695  1.00  0.00     0.072 A 
HETATM   18  C16 UNL     1      23.406   4.612  52.251  1.00  0.00     0.103 A 
ENDROOT
BRANCH   1  19
HETATM   19  C2  UNL     1      19.578   0.069  52.955  1.00  0.00     0.120 C 
HETATM   20  C1  UNL     1      18.449  -0.869  52.693  1.00  0.00     0.026 C 
ENDBRANCH   1  19
BRANCH  18  21
HETATM   21  O2  UNL     1      23.822   5.940  52.156  1.00  0.00    -0.353 OA
HETATM   22  C17 UNL     1      24.398   6.547  51.046  1.00  0.00     0.210 C 
ENDBRANCH  18  21
TORSDOF 2
ENDMDL
MODEL 9
REMARK VINA RESULT:      -6.3      2.520      4.676
REMARK  2 active torsions:
REMARK  status: ('A' for Active; 'I' for Inactive)
REMARK    1  A    between atoms: C2_2  and  N1_3 
REMARK    2  A    between atoms: C16_20  and  O2_21 
ROOT
HETATM    1  N1  UNL     1      23.960   3.199  52.101  1.00  0.00    -0.362 N 
HETATM    2  C3  UNL     1      24.732   2.286  52.989  1.00  0.00     0.151 C 
HETATM    3  C4  UNL     1      25.155   1.065  52.306  1.00  0.00    -0.011 C 
HETATM    4  C5  UNL     1      24.434  -0.082  52.505  1.00  0.00    -0.023 C 
HETATM    5  C6  UNL     1      23.235  -0.553  53.262  1.00  0.00     0.047 C 
HETATM    6  C7  UNL     1      22.500   0.230  54.134  1.00  0.00     0.005 C 
HETATM    7  C8  UNL     1      21.314  -0.509  54.700  1.00  0.00     0.176 C 
HETATM    8  O1  UNL     1      20.234   0.416  54.165  1.00  0.00    -0.348 OA
HETATM    9  C9  UNL     1      20.381   0.591  52.766  1.00  0.00     0.103 A 
HETATM   10  C10 UNL     1      21.414   1.399  52.346  1.00  0.00     0.057 A 
HETATM   11  C11 UNL     1      22.041   1.911  51.244  1.00  0.00     0.041 A 
HETATM   12  C12 UNL     1      23.161   2.710  50.985  1.00  0.00     0.140 A 
HETATM   13  N2  UNL     1      23.468   2.938  49.718  1.00  0.00    -0.224 NA
HETATM   14  C13 UNL     1      22.735   2.423  48.687  1.00  0.00     0.236 A 
HETATM   15  N3  UNL     1      21.656   1.648  48.884  1.00  0.00    -0.241 NA
HETATM   16  C14 UNL     1      21.322   1.398  50.185  1.00  0.00     0.075 A 
HETATM   17  C15 UNL     1      20.220   0.552  50.363  1.00  0.00     0.072 A 
HETATM   18  C16 UNL     1      19.776   0.167  51.606  1.00  0.00     0.103 A 
ENDROOT
BRANCH   1  19
HETATM   19  C2  UNL     1      23.731   4.616  52.206  1.00  0.00     0.120 C 
HETATM   20  C1  UNL     1      22.315   5.037  52.409  1.00  0.00     0.026 C 
ENDBRANCH   1  19
BRANCH  18  21
HETATM   21  O2  UNL     1      18.710  -0.661  51.956  1.00  0.00    -0.353 OA
HETATM   22  C17 UNL     1      17.381  -0.280  52.101  1.00  0.00     0.210 C 
ENDBRANCH  18  21
TORSDOF 2
ENDMDL
