MODEL 1
REMARK VINA RESULT:      -7.3      0.000      0.000
REMARK  5 active torsions:
REMARK  status: ('A' for Active; 'I' for Inactive)
REMARK    1  A    between atoms: C2_2  and  O1_3 
REMARK    2  A    between atoms: O1_3  and  C3_4 
REMARK    3  A    between atoms: C7_10  and  N3_11 
REMARK    4  A    between atoms: N3_11  and  C8_12 
REMARK    5  A    between atoms: C12_16  and  O2_17 
ROOT
HETATM    1  C3  UNL     1      24.853   4.594  49.561  1.00  0.00     0.106 C 
HETATM    2  C4  UNL     1      24.699   3.238  49.447  1.00  0.00     0.072 C 
HETATM    3  C5  UNL     1      23.353   2.999  49.949  1.00  0.00     0.096 A 
HETATM    4  N1  UNL     1      22.577   2.093  49.402  1.00  0.00    -0.242 NA
HETATM    5  C6  UNL     1      21.301   2.025  50.004  1.00  0.00     0.231 A 
HETATM    6  N2  UNL     1      21.311   2.942  50.957  1.00  0.00    -0.237 NA
HETATM    7  C7  UNL     1      22.539   3.589  51.001  1.00  0.00     0.224 A 
HETATM    8  C15 UNL     1      22.733   5.039  50.918  1.00  0.00     0.140 C 
HETATM    9  C16 UNL     1      23.853   5.468  50.255  1.00  0.00     0.136 C 
HETATM   10  O3  UNL     1      24.020   6.853  50.263  1.00  0.00    -0.344 OA
HETATM   11  C17 UNL     1      22.952   7.783  50.265  1.00  0.00     0.202 C 
HETATM   12  C18 UNL     1      21.687   7.264  50.862  1.00  0.00     0.202 C 
HETATM   13  O4  UNL     1      21.914   5.997  51.433  1.00  0.00    -0.346 OA
ENDROOT
BRANCH   7  14
HETATM   14  N3  UNL     1      23.202   3.232  52.336  1.00  0.00    -0.351 N 
HETATM   15  H8  UNL     1      22.997   4.024  53.023  1.00  0.00     0.163 HD
BRANCH  14  16
HETATM   16  C8  UNL     1      23.967   2.169  52.862  1.00  0.00     0.033 A 
HETATM   17  C9  UNL     1      23.581   0.854  52.952  1.00  0.00     0.029 A 
HETATM   18  C10 UNL     1      24.336  -0.175  53.473  1.00  0.00     0.005 A 
HETATM   19  C11 UNL     1      25.573   0.203  53.925  1.00  0.00     0.037 A 
HETATM   20  C12 UNL     1      26.004   1.506  53.856  1.00  0.00     0.070 A 
HETATM   21  C14 UNL     1      25.218   2.491  53.331  1.00  0.00     0.065 A 
BRANCH  20  22
HETATM   22  O2  UNL     1      27.258   1.836  54.325  1.00  0.00    -0.356 OA
HETATM   23  C13 UNL     1      28.229   2.316  53.434  1.00  0.00     0.210 C 
ENDBRANCH  20  22
ENDBRANCH  14  16
ENDBRANCH   7  14
BRANCH   1  24
HETATM   24  O1  UNL     1      25.997   5.260  49.117  1.00  0.00    -0.348 OA
BRANCH  24  25
HETATM   25  C2  UNL     1      27.229   4.628  48.923  1.00  0.00     0.171 C 
HETATM   26  C1  UNL     1      28.193   5.668  48.358  1.00  0.00     0.034 C 
ENDBRANCH  24  25
ENDBRANCH   1  24
TORSDOF 5
ENDMDL
MODEL 2
REMARK VINA RESULT:      -7.0      1.469      2.276
REMARK  5 active torsions:
REMARK  status: ('A' for Active; 'I' for Inactive)
REMARK    1  A    between atoms: C2_2  and  O1_3 
REMARK    2  A    between atoms: O1_3  and  C3_4 
REMARK    3  A    between atoms: C7_10  and  N3_11 
REMARK    4  A    between atoms: N3_11  and  C8_12 
REMARK    5  A    between atoms: C12_16  and  O2_17 
ROOT
HETATM    1  C3  UNL     1      24.916   4.531  49.841  1.00  0.00     0.106 C 
HETATM    2  C4  UNL     1      24.705   3.204  49.573  1.00  0.00     0.072 C 
HETATM    3  C5  UNL     1      23.280   3.025  49.809  1.00  0.00     0.096 A 
HETATM    4  N1  UNL     1      22.562   2.229  49.052  1.00  0.00    -0.242 NA
HETATM    5  C6  UNL     1      21.197   2.206  49.414  1.00  0.00     0.231 A 
HETATM    6  N2  UNL     1      21.090   3.037  50.437  1.00  0.00    -0.237 NA
HETATM    7  C7  UNL     1      22.327   3.585  50.755  1.00  0.00     0.224 A 
HETATM    8  C15 UNL     1      22.618   5.018  50.846  1.00  0.00     0.140 C 
HETATM    9  C16 UNL     1      23.861   5.416  50.431  1.00  0.00     0.136 C 
HETATM   10  O3  UNL     1      24.105   6.779  50.600  1.00  0.00    -0.344 OA
HETATM   11  C17 UNL     1      23.112   7.783  50.505  1.00  0.00     0.202 C 
HETATM   12  C18 UNL     1      21.731   7.312  50.822  1.00  0.00     0.202 C 
HETATM   13  O4  UNL     1      21.777   5.988  51.300  1.00  0.00    -0.346 OA
ENDROOT
BRANCH   7  14
HETATM   14  N3  UNL     1      22.717   3.069  52.145  1.00  0.00    -0.351 N 
HETATM   15  H8  UNL     1      22.393   3.791  52.863  1.00  0.00     0.163 HD
BRANCH  14  16
HETATM   16  C8  UNL     1      23.355   1.933  52.687  1.00  0.00     0.033 A 
HETATM   17  C9  UNL     1      24.680   1.830  53.032  1.00  0.00     0.029 A 
HETATM   18  C10 UNL     1      25.293   0.713  53.557  1.00  0.00     0.005 A 
HETATM   19  C11 UNL     1      24.461  -0.361  53.729  1.00  0.00     0.037 A 
HETATM   20  C12 UNL     1      23.129  -0.308  53.398  1.00  0.00     0.070 A 
HETATM   21  C14 UNL     1      22.567   0.824  52.881  1.00  0.00     0.065 A 
BRANCH  20  22
HETATM   22  O2  UNL     1      22.333  -1.417  53.590  1.00  0.00    -0.356 OA
HETATM   23  C13 UNL     1      21.115  -1.287  54.274  1.00  0.00     0.210 C 
ENDBRANCH  20  22
ENDBRANCH  14  16
ENDBRANCH   7  14
BRANCH   1  24
HETATM   24  O1  UNL     1      26.158   5.144  49.667  1.00  0.00    -0.348 OA
BRANCH  24  25
HETATM   25  C2  UNL     1      27.195   4.583  48.916  1.00  0.00     0.171 C 
HETATM   26  C1  UNL     1      28.039   5.731  48.370  1.00  0.00     0.034 C 
ENDBRANCH  24  25
ENDBRANCH   1  24
TORSDOF 5
ENDMDL
MODEL 3
REMARK VINA RESULT:      -6.9      2.089      5.868
REMARK  5 active torsions:
REMARK  status: ('A' for Active; 'I' for Inactive)
REMARK    1  A    between atoms: C2_2  and  O1_3 
REMARK    2  A    between atoms: O1_3  and  C3_4 
REMARK    3  A    between atoms: C7_10  and  N3_11 
REMARK    4  A    between atoms: N3_11  and  C8_12 
REMARK    5  A    between atoms: C12_16  and  O2_17 
ROOT
HETATM    1  C3  UNL     1      25.084   1.472  53.513  1.00  0.00     0.106 C 
HETATM    2  C4  UNL     1      25.339   2.818  53.476  1.00  0.00     0.072 C 
HETATM    3  C5  UNL     1      24.148   3.379  52.855  1.00  0.00     0.096 A 
HETATM    4  N1  UNL     1      23.658   4.532  53.248  1.00  0.00    -0.242 NA
HETATM    5  C6  UNL     1      22.485   4.899  52.552  1.00  0.00     0.231 A 
HETATM    6  N2  UNL     1      22.257   3.912  51.701  1.00  0.00    -0.237 NA
HETATM    7  C7  UNL     1      23.236   2.933  51.813  1.00  0.00     0.224 A 
HETATM    8  C15 UNL     1      22.983   1.511  52.058  1.00  0.00     0.140 C 
HETATM    9  C16 UNL     1      23.896   0.854  52.841  1.00  0.00     0.136 C 
HETATM   10  O3  UNL     1      23.640  -0.509  52.987  1.00  0.00    -0.344 OA
HETATM   11  C17 UNL     1      22.344  -1.079  53.003  1.00  0.00     0.202 C 
HETATM   12  C18 UNL     1      21.316  -0.287  52.266  1.00  0.00     0.202 C 
HETATM   13  O4  UNL     1      21.935   0.781  51.586  1.00  0.00    -0.346 OA
ENDROOT
BRANCH   7  14
HETATM   14  N3  UNL     1      24.026   2.918  50.500  1.00  0.00    -0.351 N 
HETATM   15  H8  UNL     1      23.705   2.069  49.936  1.00  0.00     0.163 HD
BRANCH  14  16
HETATM   16  C8  UNL     1      25.015   3.708  49.876  1.00  0.00     0.033 A 
HETATM   17  C9  UNL     1      26.327   3.362  49.674  1.00  0.00     0.029 A 
HETATM   18  C10 UNL     1      27.285   4.145  49.067  1.00  0.00     0.005 A 
HETATM   19  C11 UNL     1      26.833   5.369  48.647  1.00  0.00     0.037 A 
HETATM   20  C12 UNL     1      25.529   5.762  48.828  1.00  0.00     0.070 A 
HETATM   21  C14 UNL     1      24.617   4.948  49.436  1.00  0.00     0.065 A 
BRANCH  20  22
HETATM   22  O2  UNL     1      25.124   7.004  48.389  1.00  0.00    -0.356 OA
HETATM   23  C13 UNL     1      25.761   8.155  48.878  1.00  0.00     0.210 C 
ENDBRANCH  20  22
ENDBRANCH  14  16
ENDBRANCH   7  14
BRANCH   1  24
HETATM   24  O1  UNL     1      25.957   0.558  54.105  1.00  0.00    -0.348 OA
BRANCH  24  25
HETATM   25  C2  UNL     1      27.233   0.278  53.605  1.00  0.00     0.171 C 
HETATM   26  C1  UNL     1      27.151  -1.052  52.861  1.00  0.00     0.034 C 
ENDBRANCH  24  25
ENDBRANCH   1  24
TORSDOF 5
ENDMDL
MODEL 4
REMARK VINA RESULT:      -6.8      2.853      5.126
REMARK  5 active torsions:
REMARK  status: ('A' for Active; 'I' for Inactive)
REMARK    1  A    between atoms: C2_2  and  O1_3 
REMARK    2  A    between atoms: O1_3  and  C3_4 
REMARK    3  A    between atoms: C7_10  and  N3_11 
REMARK    4  A    between atoms: N3_11  and  C8_12 
REMARK    5  A    between atoms: C12_16  and  O2_17 
ROOT
HETATM    1  C3  UNL     1      22.322   0.981  51.953  1.00  0.00     0.106 C 
HETATM    2  C4  UNL     1      22.964   1.619  52.981  1.00  0.00     0.072 C 
HETATM    3  C5  UNL     1      23.576   2.776  52.343  1.00  0.00     0.096 A 
HETATM    4  N1  UNL     1      23.639   3.934  52.957  1.00  0.00    -0.242 NA
HETATM    5  C6  UNL     1      24.239   4.942  52.171  1.00  0.00     0.231 A 
HETATM    6  N2  UNL     1      24.545   4.360  51.024  1.00  0.00    -0.237 NA
HETATM    7  C7  UNL     1      24.178   3.020  51.042  1.00  0.00     0.224 A 
HETATM    8  C15 UNL     1      23.318   2.367  50.052  1.00  0.00     0.140 C 
HETATM    9  C16 UNL     1      22.479   1.391  50.521  1.00  0.00     0.136 C 
HETATM   10  O3  UNL     1      21.732   0.760  49.526  1.00  0.00    -0.344 OA
HETATM   11  C17 UNL     1      21.279   1.398  48.346  1.00  0.00     0.202 C 
HETATM   12  C18 UNL     1      22.118   2.553  47.912  1.00  0.00     0.202 C 
HETATM   13  O4  UNL     1      23.271   2.633  48.717  1.00  0.00    -0.346 OA
ENDROOT
BRANCH   7  14
HETATM   14  N3  UNL     1      25.464   2.188  50.978  1.00  0.00    -0.351 N 
HETATM   15  H8  UNL     1      25.605   1.883  49.964  1.00  0.00     0.163 HD
BRANCH  14  16
HETATM   16  C8  UNL     1      26.463   1.754  51.875  1.00  0.00     0.033 A 
HETATM   17  C9  UNL     1      27.319   2.554  52.590  1.00  0.00     0.029 A 
HETATM   18  C10 UNL     1      28.295   2.119  53.460  1.00  0.00     0.005 A 
HETATM   19  C11 UNL     1      28.373   0.756  53.587  1.00  0.00     0.037 A 
HETATM   20  C12 UNL     1      27.539  -0.086  52.892  1.00  0.00     0.070 A 
HETATM   21  C14 UNL     1      26.587   0.396  52.041  1.00  0.00     0.065 A 
BRANCH  20  22
HETATM   22  O2  UNL     1      27.659  -1.450  53.053  1.00  0.00    -0.356 OA
HETATM   23  C13 UNL     1      26.757  -2.307  52.404  1.00  0.00     0.210 C 
ENDBRANCH  20  22
ENDBRANCH  14  16
ENDBRANCH   7  14
BRANCH   1  24
HETATM   24  O1  UNL     1      21.538  -0.158  52.149  1.00  0.00    -0.348 OA
BRANCH  24  25
HETATM   25  C2  UNL     1      20.405  -0.181  52.968  1.00  0.00     0.171 C 
HETATM   26  C1  UNL     1      19.183  -0.057  52.064  1.00  0.00     0.034 C 
ENDBRANCH  24  25
ENDBRANCH   1  24
TORSDOF 5
ENDMDL
MODEL 5
REMARK VINA RESULT:      -6.7      2.349      3.051
REMARK  5 active torsions:
REMARK  status: ('A' for Active; 'I' for Inactive)
REMARK    1  A    between atoms: C2_2  and  O1_3 
REMARK    2  A    between atoms: O1_3  and  C3_4 
REMARK    3  A    between atoms: C7_10  and  N3_11 
REMARK    4  A    between atoms: N3_11  and  C8_12 
REMARK    5  A    between atoms: C12_16  and  O2_17 
ROOT
HETATM    1  C3  UNL     1      22.028   2.211  48.998  1.00  0.00     0.106 C 
HETATM    2  C4  UNL     1      21.533   0.965  49.280  1.00  0.00     0.072 C 
HETATM    3  C5  UNL     1      21.350   0.983  50.724  1.00  0.00     0.096 A 
HETATM    4  N1  UNL     1      20.326   0.383  51.285  1.00  0.00    -0.242 NA
HETATM    5  C6  UNL     1      20.301   0.533  52.689  1.00  0.00     0.231 A 
HETATM    6  N2  UNL     1      21.361   1.266  52.984  1.00  0.00    -0.237 NA
HETATM    7  C7  UNL     1      22.072   1.584  51.834  1.00  0.00     0.224 A 
HETATM    8  C15 UNL     1      22.434   2.941  51.414  1.00  0.00     0.140 C 
HETATM    9  C16 UNL     1      22.428   3.183  50.065  1.00  0.00     0.136 C 
HETATM   10  O3  UNL     1      22.842   4.470  49.720  1.00  0.00    -0.344 OA
HETATM   11  C17 UNL     1      22.622   5.618  50.519  1.00  0.00     0.202 C 
HETATM   12  C18 UNL     1      22.487   5.334  51.978  1.00  0.00     0.202 C 
HETATM   13  O4  UNL     1      22.773   3.978  52.227  1.00  0.00    -0.346 OA
ENDROOT
BRANCH   7  14
HETATM   14  N3  UNL     1      23.431   0.881  51.922  1.00  0.00    -0.351 N 
HETATM   15  H8  UNL     1      23.643   0.462  50.962  1.00  0.00     0.163 HD
BRANCH  14  16
HETATM   16  C8  UNL     1      24.426   0.667  52.899  1.00  0.00     0.033 A 
HETATM   17  C9  UNL     1      24.522  -0.412  53.742  1.00  0.00     0.029 A 
HETATM   18  C10 UNL     1      25.496  -0.607  54.697  1.00  0.00     0.005 A 
HETATM   19  C11 UNL     1      26.428   0.395  54.768  1.00  0.00     0.037 A 
HETATM   20  C12 UNL     1      26.375   1.495  53.947  1.00  0.00     0.070 A 
HETATM   21  C14 UNL     1      25.388   1.642  53.015  1.00  0.00     0.065 A 
BRANCH  20  22
HETATM   22  O2  UNL     1      27.336   2.477  54.058  1.00  0.00    -0.356 OA
HETATM   23  C13 UNL     1      28.659   2.200  53.680  1.00  0.00     0.210 C 
ENDBRANCH  20  22
ENDBRANCH  14  16
ENDBRANCH   7  14
BRANCH   1  24
HETATM   24  O1  UNL     1      22.281   2.642  47.695  1.00  0.00    -0.348 OA
BRANCH  24  25
HETATM   25  C2  UNL     1      21.319   3.256  46.887  1.00  0.00     0.171 C 
HETATM   26  C1  UNL     1      21.961   4.496  46.272  1.00  0.00     0.034 C 
ENDBRANCH  24  25
ENDBRANCH   1  24
TORSDOF 5
ENDMDL
MODEL 6
REMARK VINA RESULT:      -6.6      5.775      9.473
REMARK  5 active torsions:
REMARK  status: ('A' for Active; 'I' for Inactive)
REMARK    1  A    between atoms: C2_2  and  O1_3 
REMARK    2  A    between atoms: O1_3  and  C3_4 
REMARK    3  A    between atoms: C7_10  and  N3_11 
REMARK    4  A    between atoms: N3_11  and  C8_12 
REMARK    5  A    between atoms: C12_16  and  O2_17 
ROOT
HETATM    1  C3  UNL     1      32.417   6.259  45.374  1.00  0.00     0.106 C 
HETATM    2  C4  UNL     1      31.784   7.360  45.886  1.00  0.00     0.072 C 
HETATM    3  C5  UNL     1      31.705   7.082  47.314  1.00  0.00     0.096 A 
HETATM    4  N1  UNL     1      31.857   8.038  48.200  1.00  0.00    -0.242 NA
HETATM    5  C6  UNL     1      31.778   7.574  49.531  1.00  0.00     0.231 A 
HETATM    6  N2  UNL     1      31.575   6.270  49.438  1.00  0.00    -0.237 NA
HETATM    7  C7  UNL     1      31.510   5.879  48.107  1.00  0.00     0.224 A 
HETATM    8  C15 UNL     1      32.333   4.833  47.493  1.00  0.00     0.140 C 
HETATM    9  C16 UNL     1      32.713   5.040  46.193  1.00  0.00     0.136 C 
HETATM   10  O3  UNL     1      33.439   3.985  45.641  1.00  0.00    -0.344 OA
HETATM   11  C17 UNL     1      34.313   3.149  46.377  1.00  0.00     0.202 C 
HETATM   12  C18 UNL     1      33.979   3.036  47.827  1.00  0.00     0.202 C 
HETATM   13  O4  UNL     1      32.754   3.682  48.085  1.00  0.00    -0.346 OA
ENDROOT
BRANCH   7  14
HETATM   14  N3  UNL     1      30.082   5.390  47.839  1.00  0.00    -0.351 N 
HETATM   15  H8  UNL     1      30.146   4.518  47.225  1.00  0.00     0.163 HD
BRANCH  14  16
HETATM   16  C8  UNL     1      28.771   5.778  48.191  1.00  0.00     0.033 A 
HETATM   17  C9  UNL     1      28.267   7.054  48.175  1.00  0.00     0.029 A 
HETATM   18  C10 UNL     1      26.986   7.421  48.526  1.00  0.00     0.005 A 
HETATM   19  C11 UNL     1      26.186   6.379  48.916  1.00  0.00     0.037 A 
HETATM   20  C12 UNL     1      26.644   5.085  48.950  1.00  0.00     0.070 A 
HETATM   21  C14 UNL     1      27.924   4.772  48.592  1.00  0.00     0.065 A 
BRANCH  20  22
HETATM   22  O2  UNL     1      25.800   4.072  49.351  1.00  0.00    -0.356 OA
HETATM   23  C13 UNL     1      24.741   4.357  50.227  1.00  0.00     0.210 C 
ENDBRANCH  20  22
ENDBRANCH  14  16
ENDBRANCH   7  14
BRANCH   1  24
HETATM   24  O1  UNL     1      32.758   6.149  44.025  1.00  0.00    -0.348 OA
BRANCH  24  25
HETATM   25  C2  UNL     1      33.800   6.871  43.434  1.00  0.00     0.171 C 
HETATM   26  C1  UNL     1      34.882   5.871  43.037  1.00  0.00     0.034 C 
ENDBRANCH  24  25
ENDBRANCH   1  24
TORSDOF 5
ENDMDL
MODEL 7
REMARK VINA RESULT:      -6.5      2.152      4.664
REMARK  5 active torsions:
REMARK  status: ('A' for Active; 'I' for Inactive)
REMARK    1  A    between atoms: C2_2  and  O1_3 
REMARK    2  A    between atoms: O1_3  and  C3_4 
REMARK    3  A    between atoms: C7_10  and  N3_11 
REMARK    4  A    between atoms: N3_11  and  C8_12 
REMARK    5  A    between atoms: C12_16  and  O2_17 
ROOT
HETATM    1  C3  UNL     1      23.618   5.295  51.363  1.00  0.00     0.106 C 
HETATM    2  C4  UNL     1      23.240   4.552  52.449  1.00  0.00     0.072 C 
HETATM    3  C5  UNL     1      24.212   3.469  52.484  1.00  0.00     0.096 A 
HETATM    4  N1  UNL     1      24.669   3.003  53.623  1.00  0.00    -0.242 NA
HETATM    5  C6  UNL     1      25.623   1.976  53.456  1.00  0.00     0.231 A 
HETATM    6  N2  UNL     1      25.751   1.822  52.149  1.00  0.00    -0.237 NA
HETATM    7  C7  UNL     1      24.913   2.697  51.469  1.00  0.00     0.224 A 
HETATM    8  C15 UNL     1      25.342   3.649  50.440  1.00  0.00     0.140 C 
HETATM    9  C16 UNL     1      24.684   4.850  50.408  1.00  0.00     0.136 C 
HETATM   10  O3  UNL     1      25.089   5.689  49.370  1.00  0.00    -0.344 OA
HETATM   11  C17 UNL     1      26.404   5.732  48.848  1.00  0.00     0.202 C 
HETATM   12  C18 UNL     1      27.171   4.462  49.010  1.00  0.00     0.202 C 
HETATM   13  O4  UNL     1      26.324   3.457  49.518  1.00  0.00    -0.346 OA
ENDROOT
BRANCH   7  14
HETATM   14  N3  UNL     1      23.862   1.856  50.738  1.00  0.00    -0.351 N 
HETATM   15  H8  UNL     1      24.273   1.567  49.794  1.00  0.00     0.163 HD
BRANCH  14  16
HETATM   16  C8  UNL     1      22.556   1.381  50.989  1.00  0.00     0.033 A 
HETATM   17  C9  UNL     1      21.428   1.680  50.266  1.00  0.00     0.029 A 
HETATM   18  C10 UNL     1      20.157   1.215  50.524  1.00  0.00     0.005 A 
HETATM   19  C11 UNL     1      20.068   0.383  51.609  1.00  0.00     0.037 A 
HETATM   20  C12 UNL     1      21.168   0.054  52.364  1.00  0.00     0.070 A 
HETATM   21  C14 UNL     1      22.408   0.542  52.067  1.00  0.00     0.065 A 
BRANCH  20  22
HETATM   22  O2  UNL     1      21.026  -0.786  53.447  1.00  0.00    -0.356 OA
HETATM   23  C13 UNL     1      21.483  -0.376  54.709  1.00  0.00     0.210 C 
ENDBRANCH  20  22
ENDBRANCH  14  16
ENDBRANCH   7  14
BRANCH   1  24
HETATM   24  O1  UNL     1      22.982   6.486  51.008  1.00  0.00    -0.348 OA
BRANCH  24  25
HETATM   25  C2  UNL     1      21.593   6.615  50.904  1.00  0.00     0.171 C 
HETATM   26  C1  UNL     1      21.224   6.422  49.437  1.00  0.00     0.034 C 
ENDBRANCH  24  25
ENDBRANCH   1  24
TORSDOF 5
ENDMDL
MODEL 8
REMARK VINA RESULT:      -6.4      2.432      4.624
REMARK  5 active torsions:
REMARK  status: ('A' for Active; 'I' for Inactive)
REMARK    1  A    between atoms: C2_2  and  O1_3 
REMARK    2  A    between atoms: O1_3  and  C3_4 
REMARK    3  A    between atoms: C7_10  and  N3_11 
REMARK    4  A    between atoms: N3_11  and  C8_12 
REMARK    5  A    between atoms: C12_16  and  O2_17 
ROOT
HETATM    1  C3  UNL     1      20.651   2.725  51.325  1.00  0.00     0.106 C 
HETATM    2  C4  UNL     1      21.380   3.267  52.350  1.00  0.00     0.072 C 
HETATM    3  C5  UNL     1      22.447   3.991  51.673  1.00  0.00     0.096 A 
HETATM    4  N1  UNL     1      22.883   5.140  52.132  1.00  0.00    -0.242 NA
HETATM    5  C6  UNL     1      23.897   5.706  51.328  1.00  0.00     0.231 A 
HETATM    6  N2  UNL     1      24.073   4.854  50.331  1.00  0.00    -0.237 NA
HETATM    7  C7  UNL     1      23.225   3.762  50.465  1.00  0.00     0.224 A 
HETATM    8  C15 UNL     1      22.286   3.292  49.444  1.00  0.00     0.140 C 
HETATM    9  C16 UNL     1      21.096   2.784  49.896  1.00  0.00     0.136 C 
HETATM   10  O3  UNL     1      20.270   2.294  48.884  1.00  0.00    -0.344 OA
HETATM   11  C17 UNL     1      20.215   2.825  47.573  1.00  0.00     0.202 C 
HETATM   12  C18 UNL     1      21.469   3.504  47.133  1.00  0.00     0.202 C 
HETATM   13  O4  UNL     1      22.478   3.310  48.096  1.00  0.00    -0.346 OA
ENDROOT
BRANCH   7  14
HETATM   14  N3  UNL     1      24.097   2.528  50.720  1.00  0.00    -0.351 N 
HETATM   15  H8  UNL     1      24.359   2.113  49.771  1.00  0.00     0.163 HD
BRANCH  14  16
HETATM   16  C8  UNL     1      24.623   1.843  51.836  1.00  0.00     0.033 A 
HETATM   17  C9  UNL     1      24.163   0.659  52.357  1.00  0.00     0.029 A 
HETATM   18  C10 UNL     1      24.682   0.002  53.451  1.00  0.00     0.005 A 
HETATM   19  C11 UNL     1      25.752   0.629  54.033  1.00  0.00     0.037 A 
HETATM   20  C12 UNL     1      26.249   1.815  53.550  1.00  0.00     0.070 A 
HETATM   21  C14 UNL     1      25.699   2.428  52.460  1.00  0.00     0.065 A 
BRANCH  20  22
HETATM   22  O2  UNL     1      27.327   2.408  54.172  1.00  0.00    -0.356 OA
HETATM   23  C13 UNL     1      28.603   2.305  53.596  1.00  0.00     0.210 C 
ENDBRANCH  20  22
ENDBRANCH  14  16
ENDBRANCH   7  14
BRANCH   1  24
HETATM   24  O1  UNL     1      19.478   2.000  51.539  1.00  0.00    -0.348 OA
BRANCH  24  25
HETATM   25  C2  UNL     1      19.463   0.683  52.011  1.00  0.00     0.171 C 
HETATM   26  C1  UNL     1      18.316  -0.041  51.311  1.00  0.00     0.034 C 
ENDBRANCH  24  25
ENDBRANCH   1  24
TORSDOF 5
ENDMDL
MODEL 9
REMARK VINA RESULT:      -6.3      5.782      9.215
REMARK  5 active torsions:
REMARK  status: ('A' for Active; 'I' for Inactive)
REMARK    1  A    between atoms: C2_2  and  O1_3 
REMARK    2  A    between atoms: O1_3  and  C3_4 
REMARK    3  A    between atoms: C7_10  and  N3_11 
REMARK    4  A    between atoms: N3_11  and  C8_12 
REMARK    5  A    between atoms: C12_16  and  O2_17 
ROOT
HETATM    1  C3  UNL     1      30.554  10.066  48.535  1.00  0.00     0.106 C 
HETATM    2  C4  UNL     1      30.368   9.116  49.503  1.00  0.00     0.072 C 
HETATM    3  C5  UNL     1      31.137   7.976  49.024  1.00  0.00     0.096 A 
HETATM    4  N1  UNL     1      31.802   7.209  49.856  1.00  0.00    -0.242 NA
HETATM    5  C6  UNL     1      32.510   6.175  49.206  1.00  0.00     0.231 A 
HETATM    6  N2  UNL     1      32.262   6.334  47.916  1.00  0.00    -0.237 NA
HETATM    7  C7  UNL     1      31.419   7.418  47.711  1.00  0.00     0.224 A 
HETATM    8  C15 UNL     1      31.699   8.551  46.825  1.00  0.00     0.140 C 
HETATM    9  C16 UNL     1      31.248   9.776  47.239  1.00  0.00     0.136 C 
HETATM   10  O3  UNL     1      31.487  10.805  46.328  1.00  0.00    -0.344 OA
HETATM   11  C17 UNL     1      32.607  10.859  45.464  1.00  0.00     0.202 C 
HETATM   12  C18 UNL     1      33.186   9.526  45.125  1.00  0.00     0.202 C 
HETATM   13  O4  UNL     1      32.362   8.505  45.636  1.00  0.00    -0.346 OA
ENDROOT
BRANCH   7  14
HETATM   14  N3  UNL     1      30.095   6.875  47.160  1.00  0.00    -0.351 N 
HETATM   15  H8  UNL     1      30.232   6.677  46.119  1.00  0.00     0.163 HD
BRANCH  14  16
HETATM   16  C8  UNL     1      28.809   6.576  47.660  1.00  0.00     0.033 A 
HETATM   17  C9  UNL     1      27.713   7.401  47.632  1.00  0.00     0.029 A 
HETATM   18  C10 UNL     1      26.463   7.099  48.128  1.00  0.00     0.005 A 
HETATM   19  C11 UNL     1      26.361   5.853  48.688  1.00  0.00     0.037 A 
HETATM   20  C12 UNL     1      27.430   4.992  48.741  1.00  0.00     0.070 A 
HETATM   21  C14 UNL     1      28.650   5.337  48.234  1.00  0.00     0.065 A 
BRANCH  20  22
HETATM   22  O2  UNL     1      27.277   3.748  49.315  1.00  0.00    -0.356 OA
HETATM   23  C13 UNL     1      26.284   3.550  50.286  1.00  0.00     0.210 C 
ENDBRANCH  20  22
ENDBRANCH  14  16
ENDBRANCH   7  14
BRANCH   1  24
HETATM   24  O1  UNL     1      30.035  11.357  48.640  1.00  0.00    -0.348 OA
BRANCH  24  25
HETATM   25  C2  UNL     1      28.673  11.652  48.528  1.00  0.00     0.171 C 
HETATM   26  C1  UNL     1      28.470  13.079  49.027  1.00  0.00     0.034 C 
ENDBRANCH  24  25
ENDBRANCH   1  24
TORSDOF 5
ENDMDL
