MODEL 1
REMARK VINA RESULT:     -10.3      0.000      0.000
REMARK  1 active torsions:
REMARK  status: ('A' for Active; 'I' for Inactive)
REMARK    1  A    between atoms: C21_29  and  N5_30 
ROOT
HETATM    1  O1  UNL     1      29.070   1.196  54.933  1.00  0.00    -0.271 OA
HETATM    2  C1  UNL     1      27.970   1.118  54.331  1.00  0.00     0.246 C 
HETATM    3  C2  UNL     1      27.504   2.081  53.320  1.00  0.00     0.278 C 
HETATM    4  O2  UNL     1      26.110   2.148  53.278  1.00  0.00    -0.339 OA
HETATM    5  C3  UNL     1      25.216   1.165  53.527  1.00  0.00     0.110 A 
HETATM    6  C4  UNL     1      25.734   0.096  54.220  1.00  0.00     0.087 A 
HETATM    7  C5  UNL     1      24.920  -0.993  54.555  1.00  0.00     0.149 A 
HETATM    8  N1  UNL     1      23.639  -0.918  54.162  1.00  0.00    -0.258 NA
HETATM    9  C6  UNL     1      23.148   0.135  53.483  1.00  0.00     0.070 A 
HETATM   10  C7  UNL     1      21.816   0.116  53.165  1.00  0.00     0.034 A 
HETATM   11  C8  UNL     1      21.289   1.183  52.507  1.00  0.00     0.022 A 
HETATM   12  C9  UNL     1      22.080   2.261  52.167  1.00  0.00     0.023 A 
HETATM   13  C10 UNL     1      23.462   2.354  52.456  1.00  0.00     0.004 A 
HETATM   14  C11 UNL     1      23.904   1.233  53.126  1.00  0.00     0.038 A 
HETATM   15  C12 UNL     1      24.310   3.473  52.038  1.00  0.00     0.182 C 
HETATM   16  C13 UNL     1      24.924   3.074  50.699  1.00  0.00     0.122 C 
HETATM   17  F1  UNL     1      25.898   2.103  50.448  1.00  0.00    -0.208 F 
HETATM   18  C14 UNL     1      24.460   3.724  49.589  1.00  0.00     0.053 C 
HETATM   19  C15 UNL     1      24.096   5.121  49.917  1.00  0.00    -0.011 C 
HETATM   20  C16 UNL     1      24.184   5.716  51.063  1.00  0.00     0.099 C 
HETATM   21  N2  UNL     1      23.454   4.672  51.793  1.00  0.00    -0.364 N 
HETATM   22  C17 UNL     1      22.055   4.960  52.187  1.00  0.00     0.215 C 
HETATM   23  S1  UNL     1      21.202   3.608  51.418  1.00  0.00    -0.052 SA
HETATM   24  N3  UNL     1      20.776   3.559  50.031  1.00  0.00    -0.242 NA
HETATM   25  C18 UNL     1      20.067   4.528  49.253  1.00  0.00     0.296 C 
HETATM   26  N4  UNL     1      20.957   5.042  48.139  1.00  0.00    -0.300 N 
HETATM   27  C19 UNL     1      22.159   5.126  48.641  1.00  0.00     0.210 A 
HETATM   28  C20 UNL     1      23.541   5.418  48.572  1.00  0.00    -0.007 A 
HETATM   29  C21 UNL     1      22.973   5.661  47.395  1.00  0.00     0.156 A 
HETATM   30  N5  UNL     1      21.648   5.499  47.080  1.00  0.00    -0.191 NA
HETATM   31  N6  UNL     1      27.108   0.014  54.651  1.00  0.00    -0.322 N 
HETATM   32  H15 UNL     1      27.460  -0.816  55.174  1.00  0.00     0.169 HD
ENDROOT
TORSDOF 1
ENDMDL
MODEL 2
REMARK VINA RESULT:      -9.9      3.034      4.929
REMARK  1 active torsions:
REMARK  status: ('A' for Active; 'I' for Inactive)
REMARK    1  A    between atoms: C21_29  and  N5_30 
ROOT
HETATM    1  O1  UNL     1      17.457  -1.650  53.111  1.00  0.00    -0.271 OA
HETATM    2  C1  UNL     1      18.522  -0.984  53.160  1.00  0.00     0.246 C 
HETATM    3  C2  UNL     1      18.731   0.302  52.475  1.00  0.00     0.278 C 
HETATM    4  O2  UNL     1      20.077   0.506  52.165  1.00  0.00    -0.339 OA
HETATM    5  C3  UNL     1      21.167   0.082  52.844  1.00  0.00     0.110 A 
HETATM    6  C4  UNL     1      20.914  -0.936  53.732  1.00  0.00     0.087 A 
HETATM    7  C5  UNL     1      21.952  -1.481  54.499  1.00  0.00     0.149 A 
HETATM    8  N1  UNL     1      23.170  -0.952  54.309  1.00  0.00    -0.258 NA
HETATM    9  C6  UNL     1      23.400   0.046  53.436  1.00  0.00     0.070 A 
HETATM   10  C7  UNL     1      24.691   0.483  53.301  1.00  0.00     0.034 A 
HETATM   11  C8  UNL     1      24.954   1.468  52.401  1.00  0.00     0.022 A 
HETATM   12  C9  UNL     1      23.941   2.017  51.643  1.00  0.00     0.023 A 
HETATM   13  C10 UNL     1      22.584   1.624  51.726  1.00  0.00     0.004 A 
HETATM   14  C11 UNL     1      22.416   0.620  52.657  1.00  0.00     0.038 A 
HETATM   15  C12 UNL     1      21.504   2.253  50.963  1.00  0.00     0.182 C 
HETATM   16  C13 UNL     1      20.928   3.351  51.853  1.00  0.00     0.122 C 
HETATM   17  F1  UNL     1      20.168   3.212  53.018  1.00  0.00    -0.208 F 
HETATM   18  C14 UNL     1      21.196   4.643  51.492  1.00  0.00     0.053 C 
HETATM   19  C15 UNL     1      21.275   4.766  50.019  1.00  0.00    -0.011 C 
HETATM   20  C16 UNL     1      21.116   3.835  49.134  1.00  0.00     0.099 C 
HETATM   21  N2  UNL     1      22.079   2.917  49.755  1.00  0.00    -0.364 N 
HETATM   22  C17 UNL     1      23.403   2.770  49.108  1.00  0.00     0.215 C 
HETATM   23  S1  UNL     1      24.484   3.206  50.444  1.00  0.00    -0.052 SA
HETATM   24  N3  UNL     1      24.849   4.558  50.827  1.00  0.00    -0.242 NA
HETATM   25  C18 UNL     1      25.305   5.649  50.022  1.00  0.00     0.296 C 
HETATM   26  N4  UNL     1      24.279   6.765  50.041  1.00  0.00    -0.300 N 
HETATM   27  C19 UNL     1      23.109   6.185  50.036  1.00  0.00     0.210 A 
HETATM   28  C20 UNL     1      21.695   6.190  50.041  1.00  0.00    -0.007 A 
HETATM   29  C21 UNL     1      22.147   7.440  50.061  1.00  0.00     0.156 A 
HETATM   30  N5  UNL     1      23.461   7.832  50.060  1.00  0.00    -0.191 NA
HETATM   31  N6  UNL     1      19.609  -1.514  53.935  1.00  0.00    -0.322 N 
HETATM   32  H15 UNL     1      19.461  -2.286  54.621  1.00  0.00     0.169 HD
ENDROOT
TORSDOF 1
ENDMDL
MODEL 3
REMARK VINA RESULT:      -9.5      3.032      4.964
REMARK  1 active torsions:
REMARK  status: ('A' for Active; 'I' for Inactive)
REMARK    1  A    between atoms: C21_29  and  N5_30 
ROOT
HETATM    1  O1  UNL     1      26.585   5.613  49.238  1.00  0.00    -0.271 OA
HETATM    2  C1  UNL     1      26.022   4.582  49.685  1.00  0.00     0.246 C 
HETATM    3  C2  UNL     1      24.586   4.290  49.540  1.00  0.00     0.278 C 
HETATM    4  O2  UNL     1      24.116   3.493  50.586  1.00  0.00    -0.339 OA
HETATM    5  C3  UNL     1      24.784   2.545  51.282  1.00  0.00     0.110 A 
HETATM    6  C4  UNL     1      26.152   2.625  51.170  1.00  0.00     0.087 A 
HETATM    7  C5  UNL     1      26.972   1.712  51.845  1.00  0.00     0.149 A 
HETATM    8  N1  UNL     1      26.345   0.784  52.583  1.00  0.00    -0.258 NA
HETATM    9  C6  UNL     1      25.004   0.719  52.680  1.00  0.00     0.070 A 
HETATM   10  C7  UNL     1      24.476  -0.251  53.491  1.00  0.00     0.034 A 
HETATM   11  C8  UNL     1      23.125  -0.317  53.632  1.00  0.00     0.022 A 
HETATM   12  C9  UNL     1      22.305   0.573  52.970  1.00  0.00     0.023 A 
HETATM   13  C10 UNL     1      22.772   1.598  52.113  1.00  0.00     0.004 A 
HETATM   14  C11 UNL     1      24.148   1.590  52.037  1.00  0.00     0.038 A 
HETATM   15  C12 UNL     1      21.893   2.500  51.365  1.00  0.00     0.182 C 
HETATM   16  C13 UNL     1      21.685   1.863  49.994  1.00  0.00     0.122 C 
HETATM   17  F1  UNL     1      22.608   1.726  48.953  1.00  0.00    -0.208 F 
HETATM   18  C14 UNL     1      20.450   1.334  49.740  1.00  0.00     0.053 C 
HETATM   19  C15 UNL     1      19.397   2.116  50.426  1.00  0.00    -0.011 C 
HETATM   20  C16 UNL     1      19.545   3.166  51.169  1.00  0.00     0.099 C 
HETATM   21  N2  UNL     1      20.560   2.555  52.035  1.00  0.00    -0.364 N 
HETATM   22  C17 UNL     1      20.140   2.130  53.391  1.00  0.00     0.215 C 
HETATM   23  S1  UNL     1      20.582   0.412  53.360  1.00  0.00    -0.052 SA
HETATM   24  N3  UNL     1      19.773  -0.656  52.801  1.00  0.00    -0.242 NA
HETATM   25  C18 UNL     1      18.387  -0.954  52.990  1.00  0.00     0.296 C 
HETATM   26  N4  UNL     1      17.641  -0.775  51.682  1.00  0.00    -0.300 N 
HETATM   27  C19 UNL     1      18.176   0.262  51.096  1.00  0.00     0.210 A 
HETATM   28  C20 UNL     1      18.296   1.197  50.042  1.00  0.00    -0.007 A 
HETATM   29  C21 UNL     1      17.323   0.334  49.767  1.00  0.00     0.156 A 
HETATM   30  N5  UNL     1      16.914  -0.712  50.553  1.00  0.00    -0.191 NA
HETATM   31  N6  UNL     1      26.832   3.625  50.384  1.00  0.00    -0.322 N 
HETATM   32  H15 UNL     1      27.873   3.649  50.327  1.00  0.00     0.169 HD
ENDROOT
TORSDOF 1
ENDMDL
MODEL 4
REMARK VINA RESULT:      -9.4      2.466      4.030
REMARK  1 active torsions:
REMARK  status: ('A' for Active; 'I' for Inactive)
REMARK    1  A    between atoms: C21_29  and  N5_30 
ROOT
HETATM    1  O1  UNL     1      21.167  -1.595  54.957  1.00  0.00    -0.271 OA
HETATM    2  C1  UNL     1      21.925  -0.730  54.452  1.00  0.00     0.246 C 
HETATM    3  C2  UNL     1      21.457   0.489  53.771  1.00  0.00     0.278 C 
HETATM    4  O2  UNL     1      22.371   0.922  52.808  1.00  0.00    -0.339 OA
HETATM    5  C3  UNL     1      23.718   0.802  52.817  1.00  0.00     0.110 A 
HETATM    6  C4  UNL     1      24.192  -0.142  53.698  1.00  0.00     0.087 A 
HETATM    7  C5  UNL     1      25.567  -0.381  53.808  1.00  0.00     0.149 A 
HETATM    8  N1  UNL     1      26.362   0.356  53.017  1.00  0.00    -0.258 NA
HETATM    9  C6  UNL     1      25.882   1.277  52.161  1.00  0.00     0.070 A 
HETATM   10  C7  UNL     1      26.787   1.945  51.378  1.00  0.00     0.034 A 
HETATM   11  C8  UNL     1      26.323   2.857  50.483  1.00  0.00     0.022 A 
HETATM   12  C9  UNL     1      24.972   3.106  50.367  1.00  0.00     0.023 A 
HETATM   13  C10 UNL     1      23.976   2.462  51.140  1.00  0.00     0.004 A 
HETATM   14  C11 UNL     1      24.538   1.554  52.013  1.00  0.00     0.038 A 
HETATM   15  C12 UNL     1      22.548   2.775  51.056  1.00  0.00     0.182 C 
HETATM   16  C13 UNL     1      22.271   3.827  52.126  1.00  0.00     0.122 C 
HETATM   17  F1  UNL     1      22.264   3.669  53.515  1.00  0.00    -0.208 F 
HETATM   18  C14 UNL     1      22.017   5.098  51.690  1.00  0.00     0.053 C 
HETATM   19  C15 UNL     1      21.305   5.071  50.393  1.00  0.00    -0.011 C 
HETATM   20  C16 UNL     1      20.936   4.035  49.711  1.00  0.00     0.099 C 
HETATM   21  N2  UNL     1      22.260   3.402  49.732  1.00  0.00    -0.364 N 
HETATM   22  C17 UNL     1      23.065   3.451  48.489  1.00  0.00     0.215 C 
HETATM   23  S1  UNL     1      24.543   4.240  49.072  1.00  0.00    -0.052 SA
HETATM   24  N3  UNL     1      24.732   5.671  49.222  1.00  0.00    -0.242 NA
HETATM   25  C18 UNL     1      24.453   6.735  48.308  1.00  0.00     0.296 C 
HETATM   26  N4  UNL     1      23.357   7.619  48.869  1.00  0.00    -0.300 N 
HETATM   27  C19 UNL     1      22.515   6.821  49.466  1.00  0.00     0.210 A 
HETATM   28  C20 UNL     1      21.342   6.544  50.206  1.00  0.00    -0.007 A 
HETATM   29  C21 UNL     1      21.443   7.854  50.000  1.00  0.00     0.156 A 
HETATM   30  N5  UNL     1      22.444   8.497  49.320  1.00  0.00    -0.191 NA
HETATM   31  N6  UNL     1      23.342  -0.942  54.544  1.00  0.00    -0.322 N 
HETATM   32  H15 UNL     1      23.744  -1.648  55.199  1.00  0.00     0.169 HD
ENDROOT
TORSDOF 1
ENDMDL
MODEL 5
REMARK VINA RESULT:      -9.4      3.460      5.970
REMARK  1 active torsions:
REMARK  status: ('A' for Active; 'I' for Inactive)
REMARK    1  A    between atoms: C21_29  and  N5_30 
ROOT
HETATM    1  O1  UNL     1      29.039   5.308  48.010  1.00  0.00    -0.271 OA
HETATM    2  C1  UNL     1      27.956   5.448  48.630  1.00  0.00     0.246 C 
HETATM    3  C2  UNL     1      27.011   4.355  48.913  1.00  0.00     0.278 C 
HETATM    4  O2  UNL     1      25.701   4.824  49.023  1.00  0.00    -0.339 OA
HETATM    5  C3  UNL     1      25.275   6.025  49.478  1.00  0.00     0.110 A 
HETATM    6  C4  UNL     1      26.252   6.992  49.508  1.00  0.00     0.087 A 
HETATM    7  C5  UNL     1      25.953   8.287  49.948  1.00  0.00     0.149 A 
HETATM    8  N1  UNL     1      24.685   8.506  50.326  1.00  0.00    -0.258 NA
HETATM    9  C6  UNL     1      23.741   7.548  50.292  1.00  0.00     0.070 A 
HETATM   10  C7  UNL     1      22.471   7.897  50.669  1.00  0.00     0.034 A 
HETATM   11  C8  UNL     1      21.493   6.955  50.611  1.00  0.00     0.022 A 
HETATM   12  C9  UNL     1      21.774   5.674  50.184  1.00  0.00     0.023 A 
HETATM   13  C10 UNL     1      23.057   5.234  49.782  1.00  0.00     0.004 A 
HETATM   14  C11 UNL     1      23.980   6.256  49.868  1.00  0.00     0.038 A 
HETATM   15  C12 UNL     1      23.363   3.857  49.388  1.00  0.00     0.182 C 
HETATM   16  C13 UNL     1      23.843   3.143  50.648  1.00  0.00     0.122 C 
HETATM   17  F1  UNL     1      25.044   3.324  51.341  1.00  0.00    -0.208 F 
HETATM   18  C14 UNL     1      22.996   2.219  51.195  1.00  0.00     0.053 C 
HETATM   19  C15 UNL     1      22.216   1.538  50.138  1.00  0.00    -0.011 C 
HETATM   20  C16 UNL     1      22.276   1.727  48.859  1.00  0.00     0.099 C 
HETATM   21  N2  UNL     1      22.105   3.182  48.948  1.00  0.00    -0.364 N 
HETATM   22  C17 UNL     1      20.784   3.743  48.579  1.00  0.00     0.215 C 
HETATM   23  S1  UNL     1      20.357   4.613  50.064  1.00  0.00    -0.052 SA
HETATM   24  N3  UNL     1      19.750   4.022  51.242  1.00  0.00    -0.242 NA
HETATM   25  C18 UNL     1      18.619   3.153  51.355  1.00  0.00     0.296 C 
HETATM   26  N4  UNL     1      19.063   1.799  51.874  1.00  0.00    -0.300 N 
HETATM   27  C19 UNL     1      20.220   1.558  51.321  1.00  0.00     0.210 A 
HETATM   28  C20 UNL     1      21.372   0.770  51.089  1.00  0.00    -0.007 A 
HETATM   29  C21 UNL     1      20.564   0.143  51.939  1.00  0.00     0.156 A 
HETATM   30  N5  UNL     1      19.354   0.595  52.397  1.00  0.00    -0.191 NA
HETATM   31  N6  UNL     1      27.615   6.764  49.096  1.00  0.00    -0.322 N 
HETATM   32  H15 UNL     1      28.325   7.527  49.135  1.00  0.00     0.169 HD
ENDROOT
TORSDOF 1
ENDMDL
MODEL 6
REMARK VINA RESULT:      -9.3      2.208      3.979
REMARK  1 active torsions:
REMARK  status: ('A' for Active; 'I' for Inactive)
REMARK    1  A    between atoms: C21_29  and  N5_30 
ROOT
HETATM    1  O1  UNL     1      24.972  -1.666  55.326  1.00  0.00    -0.271 OA
HETATM    2  C1  UNL     1      24.907  -0.669  54.564  1.00  0.00     0.246 C 
HETATM    3  C2  UNL     1      23.666  -0.176  53.943  1.00  0.00     0.278 C 
HETATM    4  O2  UNL     1      23.920   0.475  52.735  1.00  0.00    -0.339 OA
HETATM    5  C3  UNL     1      25.012   1.192  52.383  1.00  0.00     0.110 A 
HETATM    6  C4  UNL     1      26.115   0.959  53.171  1.00  0.00     0.087 A 
HETATM    7  C5  UNL     1      27.320   1.626  52.917  1.00  0.00     0.149 A 
HETATM    8  N1  UNL     1      27.318   2.479  51.882  1.00  0.00    -0.258 NA
HETATM    9  C6  UNL     1      26.230   2.696  51.121  1.00  0.00     0.070 A 
HETATM   10  C7  UNL     1      26.356   3.564  50.069  1.00  0.00     0.034 A 
HETATM   11  C8  UNL     1      25.279   3.775  49.266  1.00  0.00     0.022 A 
HETATM   12  C9  UNL     1      24.085   3.129  49.507  1.00  0.00     0.023 A 
HETATM   13  C10 UNL     1      23.873   2.222  50.573  1.00  0.00     0.004 A 
HETATM   14  C11 UNL     1      25.017   2.069  51.326  1.00  0.00     0.038 A 
HETATM   15  C12 UNL     1      22.585   1.587  50.861  1.00  0.00     0.182 C 
HETATM   16  C13 UNL     1      21.880   2.479  51.878  1.00  0.00     0.122 C 
HETATM   17  F1  UNL     1      22.202   2.681  53.223  1.00  0.00    -0.208 F 
HETATM   18  C14 UNL     1      20.806   3.197  51.430  1.00  0.00     0.053 C 
HETATM   19  C15 UNL     1      20.076   2.445  50.384  1.00  0.00    -0.011 C 
HETATM   20  C16 UNL     1      20.348   1.270  49.916  1.00  0.00     0.099 C 
HETATM   21  N2  UNL     1      21.752   1.583  49.621  1.00  0.00    -0.364 N 
HETATM   22  C17 UNL     1      22.123   1.810  48.205  1.00  0.00     0.215 C 
HETATM   23  S1  UNL     1      22.827   3.435  48.294  1.00  0.00    -0.052 SA
HETATM   24  N3  UNL     1      22.081   4.680  48.272  1.00  0.00    -0.242 NA
HETATM   25  C18 UNL     1      21.042   5.112  47.388  1.00  0.00     0.296 C 
HETATM   26  N4  UNL     1      19.744   5.265  48.157  1.00  0.00    -0.300 N 
HETATM   27  C19 UNL     1      19.718   4.290  49.025  1.00  0.00     0.210 A 
HETATM   28  C20 UNL     1      19.133   3.551  50.079  1.00  0.00    -0.007 A 
HETATM   29  C21 UNL     1      18.339   4.565  49.749  1.00  0.00     0.156 A 
HETATM   30  N5  UNL     1      18.571   5.497  48.771  1.00  0.00    -0.191 NA
HETATM   31  N6  UNL     1      26.124   0.038  54.280  1.00  0.00    -0.322 N 
HETATM   32  H15 UNL     1      26.984  -0.108  54.853  1.00  0.00     0.169 HD
ENDROOT
TORSDOF 1
ENDMDL
MODEL 7
REMARK VINA RESULT:      -8.7      4.008      6.259
REMARK  1 active torsions:
REMARK  status: ('A' for Active; 'I' for Inactive)
REMARK    1  A    between atoms: C21_29  and  N5_30 
ROOT
HETATM    1  O1  UNL     1      27.900  10.556  47.883  1.00  0.00    -0.271 OA
HETATM    2  C1  UNL     1      27.414   9.402  47.989  1.00  0.00     0.246 C 
HETATM    3  C2  UNL     1      25.991   9.117  48.238  1.00  0.00     0.278 C 
HETATM    4  O2  UNL     1      25.820   7.906  48.910  1.00  0.00    -0.339 OA
HETATM    5  C3  UNL     1      26.579   6.789  48.832  1.00  0.00     0.110 A 
HETATM    6  C4  UNL     1      27.830   6.997  48.301  1.00  0.00     0.087 A 
HETATM    7  C5  UNL     1      28.729   5.931  48.168  1.00  0.00     0.149 A 
HETATM    8  N1  UNL     1      28.292   4.733  48.583  1.00  0.00    -0.258 NA
HETATM    9  C6  UNL     1      27.064   4.546  49.099  1.00  0.00     0.070 A 
HETATM   10  C7  UNL     1      26.741   3.283  49.522  1.00  0.00     0.034 A 
HETATM   11  C8  UNL     1      25.517   3.077  50.077  1.00  0.00     0.022 A 
HETATM   12  C9  UNL     1      24.620   4.116  50.210  1.00  0.00     0.023 A 
HETATM   13  C10 UNL     1      24.876   5.445  49.796  1.00  0.00     0.004 A 
HETATM   14  C11 UNL     1      26.139   5.559  49.252  1.00  0.00     0.038 A 
HETATM   15  C12 UNL     1      23.898   6.530  49.883  1.00  0.00     0.182 C 
HETATM   16  C13 UNL     1      23.174   6.571  48.540  1.00  0.00     0.122 C 
HETATM   17  F1  UNL     1      23.674   6.978  47.300  1.00  0.00    -0.208 F 
HETATM   18  C14 UNL     1      21.877   6.138  48.524  1.00  0.00     0.053 C 
HETATM   19  C15 UNL     1      21.205   6.458  49.804  1.00  0.00    -0.011 C 
HETATM   20  C16 UNL     1      21.704   7.065  50.832  1.00  0.00     0.099 C 
HETATM   21  N2  UNL     1      22.881   6.192  50.924  1.00  0.00    -0.364 N 
HETATM   22  C17 UNL     1      22.900   5.175  52.001  1.00  0.00     0.215 C 
HETATM   23  S1  UNL     1      23.122   3.689  51.059  1.00  0.00    -0.052 SA
HETATM   24  N3  UNL     1      22.065   2.940  50.403  1.00  0.00    -0.242 NA
HETATM   25  C18 UNL     1      20.800   2.502  50.908  1.00  0.00     0.296 C 
HETATM   26  N4  UNL     1      19.681   3.207  50.166  1.00  0.00    -0.300 N 
HETATM   27  C19 UNL     1      20.094   4.428  49.957  1.00  0.00     0.210 A 
HETATM   28  C20 UNL     1      19.949   5.744  49.460  1.00  0.00    -0.007 A 
HETATM   29  C21 UNL     1      18.855   5.040  49.187  1.00  0.00     0.156 A 
HETATM   30  N5  UNL     1      18.627   3.728  49.514  1.00  0.00    -0.191 NA
HETATM   31  N6  UNL     1      28.307   8.284  47.860  1.00  0.00    -0.322 N 
HETATM   32  H15 UNL     1      29.265   8.397  47.462  1.00  0.00     0.169 HD
ENDROOT
TORSDOF 1
ENDMDL
MODEL 8
REMARK VINA RESULT:      -8.7      5.922      8.411
REMARK  1 active torsions:
REMARK  status: ('A' for Active; 'I' for Inactive)
REMARK    1  A    between atoms: C21_29  and  N5_30 
ROOT
HETATM    1  O1  UNL     1      20.163   7.042  49.345  1.00  0.00    -0.271 OA
HETATM    2  C1  UNL     1      21.403   6.874  49.452  1.00  0.00     0.246 C 
HETATM    3  C2  UNL     1      22.407   7.929  49.237  1.00  0.00     0.278 C 
HETATM    4  O2  UNL     1      23.625   7.399  48.807  1.00  0.00    -0.339 OA
HETATM    5  C3  UNL     1      24.171   6.199  49.112  1.00  0.00     0.110 A 
HETATM    6  C4  UNL     1      23.275   5.286  49.616  1.00  0.00     0.087 A 
HETATM    7  C5  UNL     1      23.699   3.998  49.967  1.00  0.00     0.149 A 
HETATM    8  N1  UNL     1      25.000   3.732  49.782  1.00  0.00    -0.258 NA
HETATM    9  C6  UNL     1      25.864   4.637  49.289  1.00  0.00     0.070 A 
HETATM   10  C7  UNL     1      27.163   4.240  49.110  1.00  0.00     0.034 A 
HETATM   11  C8  UNL     1      28.048   5.128  48.582  1.00  0.00     0.022 A 
HETATM   12  C9  UNL     1      27.646   6.401  48.236  1.00  0.00     0.023 A 
HETATM   13  C10 UNL     1      26.326   6.887  48.392  1.00  0.00     0.004 A 
HETATM   14  C11 UNL     1      25.503   5.919  48.927  1.00  0.00     0.038 A 
HETATM   15  C12 UNL     1      25.920   8.259  48.080  1.00  0.00     0.182 C 
HETATM   16  C13 UNL     1      26.044   9.054  49.377  1.00  0.00     0.122 C 
HETATM   17  F1  UNL     1      25.252   8.966  50.525  1.00  0.00    -0.208 F 
HETATM   18  C14 UNL     1      27.069   9.956  49.452  1.00  0.00     0.053 C 
HETATM   19  C15 UNL     1      27.340  10.548  48.123  1.00  0.00    -0.011 C 
HETATM   20  C16 UNL     1      26.733  10.304  47.006  1.00  0.00     0.099 C 
HETATM   21  N2  UNL     1      26.886   8.848  47.105  1.00  0.00    -0.364 N 
HETATM   22  C17 UNL     1      27.905   8.204  46.244  1.00  0.00     0.215 C 
HETATM   23  S1  UNL     1      28.903   7.381  47.458  1.00  0.00    -0.052 SA
HETATM   24  N3  UNL     1      29.973   7.993  48.225  1.00  0.00    -0.242 NA
HETATM   25  C18 UNL     1      31.066   8.807  47.791  1.00  0.00     0.296 C 
HETATM   26  N4  UNL     1      30.924  10.204  48.363  1.00  0.00    -0.300 N 
HETATM   27  C19 UNL     1      29.648  10.479  48.342  1.00  0.00     0.210 A 
HETATM   28  C20 UNL     1      28.530  11.313  48.574  1.00  0.00    -0.007 A 
HETATM   29  C21 UNL     1      29.641  11.935  48.957  1.00  0.00     0.156 A 
HETATM   30  N5  UNL     1      30.918  11.443  48.884  1.00  0.00    -0.191 NA
HETATM   31  N6  UNL     1      21.874   5.565  49.810  1.00  0.00    -0.322 N 
HETATM   32  H15 UNL     1      21.229   4.843  50.196  1.00  0.00     0.169 HD
ENDROOT
TORSDOF 1
ENDMDL
MODEL 9
REMARK VINA RESULT:      -8.1      5.462      7.774
REMARK  1 active torsions:
REMARK  status: ('A' for Active; 'I' for Inactive)
REMARK    1  A    between atoms: C21_29  and  N5_30 
ROOT
HETATM    1  O1  UNL     1      29.985  12.549  48.871  1.00  0.00    -0.271 OA
HETATM    2  C1  UNL     1      29.507  11.419  48.602  1.00  0.00     0.246 C 
HETATM    3  C2  UNL     1      28.070  11.099  48.613  1.00  0.00     0.278 C 
HETATM    4  O2  UNL     1      27.847   9.751  48.900  1.00  0.00    -0.339 OA
HETATM    5  C3  UNL     1      28.626   8.689  48.593  1.00  0.00     0.110 A 
HETATM    6  C4  UNL     1      29.922   9.016  48.274  1.00  0.00     0.087 A 
HETATM    7  C5  UNL     1      30.845   8.016  47.944  1.00  0.00     0.149 A 
HETATM    8  N1  UNL     1      30.384   6.756  47.961  1.00  0.00    -0.258 NA
HETATM    9  C6  UNL     1      29.111   6.452  48.275  1.00  0.00     0.070 A 
HETATM   10  C7  UNL     1      28.763   5.127  48.294  1.00  0.00     0.034 A 
HETATM   11  C8  UNL     1      27.491   4.793  48.640  1.00  0.00     0.022 A 
HETATM   12  C9  UNL     1      26.571   5.769  48.964  1.00  0.00     0.023 A 
HETATM   13  C10 UNL     1      26.851   7.156  48.964  1.00  0.00     0.004 A 
HETATM   14  C11 UNL     1      28.161   7.397  48.607  1.00  0.00     0.038 A 
HETATM   15  C12 UNL     1      25.853   8.190  49.248  1.00  0.00     0.182 C 
HETATM   16  C13 UNL     1      25.273   8.613  47.901  1.00  0.00     0.122 C 
HETATM   17  F1  UNL     1      25.893   9.341  46.882  1.00  0.00    -0.208 F 
HETATM   18  C14 UNL     1      23.991   8.222  47.631  1.00  0.00     0.053 C 
HETATM   19  C15 UNL     1      23.185   8.184  48.872  1.00  0.00    -0.011 C 
HETATM   20  C16 UNL     1      23.566   8.473  50.075  1.00  0.00     0.099 C 
HETATM   21  N2  UNL     1      24.739   7.591  50.042  1.00  0.00    -0.364 N 
HETATM   22  C17 UNL     1      24.660   6.314  50.789  1.00  0.00     0.215 C 
HETATM   23  S1  UNL     1      24.999   5.145  49.500  1.00  0.00    -0.052 SA
HETATM   24  N3  UNL     1      24.027   4.625  48.556  1.00  0.00    -0.242 NA
HETATM   25  C18 UNL     1      22.723   4.084  48.785  1.00  0.00     0.296 C 
HETATM   26  N4  UNL     1      21.677   4.985  48.157  1.00  0.00    -0.300 N 
HETATM   27  C19 UNL     1      22.092   6.208  48.339  1.00  0.00     0.210 A 
HETATM   28  C20 UNL     1      21.982   7.613  48.216  1.00  0.00    -0.007 A 
HETATM   29  C21 UNL     1      20.932   7.030  47.645  1.00  0.00     0.156 A 
HETATM   30  N5  UNL     1      20.689   5.682  47.569  1.00  0.00    -0.191 NA
HETATM   31  N6  UNL     1      30.424  10.368  48.260  1.00  0.00    -0.322 N 
HETATM   32  H15 UNL     1      31.416  10.572  48.011  1.00  0.00     0.169 HD
ENDROOT
TORSDOF 1
ENDMDL
