MODEL 1
REMARK VINA RESULT:      -7.8      0.000      0.000
REMARK  1 active torsions:
REMARK  status: ('A' for Active; 'I' for Inactive)
REMARK       I    between atoms: C3_3  and  N1_5 
REMARK    1  A    between atoms: N1_5  and  C4_6 
ROOT
HETATM    1  C1  UNL     1      30.145  -1.272  53.717  1.00  0.00     0.022 C 
HETATM    2  C2  UNL     1      29.176  -0.585  53.844  1.00  0.00    -0.016 C 
HETATM    3  C3  UNL     1      28.022   0.226  53.994  1.00  0.00     0.301 C 
HETATM    4  O1  UNL     1      28.001   0.936  55.011  1.00  0.00    -0.258 OA
HETATM    5  N1  UNL     1      26.934   0.290  53.112  1.00  0.00    -0.300 N 
HETATM    6  H2  UNL     1      27.173  -0.394  52.328  1.00  0.00     0.171 HD
ENDROOT
BRANCH   5   7
HETATM    7  C4  UNL     1      25.715   0.810  52.778  1.00  0.00     0.132 C 
HETATM    8  C5  UNL     1      24.461   0.521  53.170  1.00  0.00    -0.037 C 
HETATM    9  C6  UNL     1      24.335  -0.568  54.149  1.00  0.00     0.047 C 
HETATM   10  C7  UNL     1      23.164   1.085  52.852  1.00  0.00     0.013 C 
HETATM   11  C8  UNL     1      21.961   0.714  53.296  1.00  0.00     0.054 C 
HETATM   12  C9  UNL     1      20.770   1.431  52.841  1.00  0.00    -0.004 C 
HETATM   13  C10 UNL     1      20.002   2.353  52.169  1.00  0.00     0.081 C 
HETATM   14  N2  UNL     1      20.579   3.330  51.307  1.00  0.00    -0.381 N 
HETATM   15  C11 UNL     1      21.426   3.707  50.195  1.00  0.00     0.271 C 
HETATM   16  H10 UNL     1      20.130   4.185  51.772  1.00  0.00     0.160 HD
HETATM   17  N3  UNL     1      22.819   3.461  50.379  1.00  0.00    -0.264 NA
HETATM   18  C12 UNL     1      23.676   4.141  49.650  1.00  0.00     0.228 C 
HETATM   19  N4  UNL     1      24.521   3.353  50.411  1.00  0.00    -0.253 NA
HETATM   20  C13 UNL     1      25.789   3.432  50.422  1.00  0.00     0.137 C 
HETATM   21  C14 UNL     1      26.496   2.476  51.327  1.00  0.00     0.138 C 
HETATM   22  N5  UNL     1      25.533   1.834  51.845  1.00  0.00    -0.242 NA
ENDBRANCH   5   7
TORSDOF 1
ENDMDL
MODEL 2
REMARK VINA RESULT:      -7.8      1.469      3.352
REMARK  1 active torsions:
REMARK  status: ('A' for Active; 'I' for Inactive)
REMARK       I    between atoms: C3_3  and  N1_5 
REMARK    1  A    between atoms: N1_5  and  C4_6 
ROOT
HETATM    1  C1  UNL     1      30.077  -1.152  53.728  1.00  0.00     0.022 C 
HETATM    2  C2  UNL     1      29.080  -0.500  53.812  1.00  0.00    -0.016 C 
HETATM    3  C3  UNL     1      27.893   0.270  53.910  1.00  0.00     0.301 C 
HETATM    4  O1  UNL     1      27.793   0.963  54.934  1.00  0.00    -0.258 OA
HETATM    5  N1  UNL     1      26.853   0.311  52.972  1.00  0.00    -0.300 N 
HETATM    6  H2  UNL     1      27.156  -0.352  52.193  1.00  0.00     0.171 HD
ENDROOT
BRANCH   5   7
HETATM    7  C4  UNL     1      25.636   0.796  52.580  1.00  0.00     0.132 C 
HETATM    8  C5  UNL     1      25.271   1.716  51.669  1.00  0.00    -0.037 C 
HETATM    9  C6  UNL     1      26.371   2.353  50.932  1.00  0.00     0.047 C 
HETATM   10  C7  UNL     1      23.986   2.215  51.217  1.00  0.00     0.013 C 
HETATM   11  C8  UNL     1      23.731   3.150  50.300  1.00  0.00     0.054 C 
HETATM   12  C9  UNL     1      22.344   3.502  49.995  1.00  0.00    -0.004 C 
HETATM   13  C10 UNL     1      20.970   3.486  50.053  1.00  0.00     0.081 C 
HETATM   14  N2  UNL     1      20.263   2.613  50.930  1.00  0.00    -0.381 N 
HETATM   15  C11 UNL     1      20.002   2.064  52.243  1.00  0.00     0.271 C 
HETATM   16  H10 UNL     1      19.638   2.166  50.181  1.00  0.00     0.160 HD
HETATM   17  N3  UNL     1      21.069   1.304  52.810  1.00  0.00    -0.264 NA
HETATM   18  C12 UNL     1      20.785   0.435  53.754  1.00  0.00     0.228 C 
HETATM   19  N4  UNL     1      22.156   0.283  53.638  1.00  0.00    -0.253 NA
HETATM   20  C13 UNL     1      22.852  -0.591  54.242  1.00  0.00     0.137 C 
HETATM   21  C14 UNL     1      24.320  -0.568  53.958  1.00  0.00     0.138 C 
HETATM   22  N5  UNL     1      24.419   0.393  53.135  1.00  0.00    -0.242 NA
ENDBRANCH   5   7
TORSDOF 1
ENDMDL
MODEL 3
REMARK VINA RESULT:      -7.7      2.573      5.518
REMARK  1 active torsions:
REMARK  status: ('A' for Active; 'I' for Inactive)
REMARK       I    between atoms: C3_3  and  N1_5 
REMARK    1  A    between atoms: N1_5  and  C4_6 
ROOT
HETATM    1  C1  UNL     1      26.390   6.414  48.576  1.00  0.00     0.022 C 
HETATM    2  C2  UNL     1      26.386   5.335  49.089  1.00  0.00    -0.016 C 
HETATM    3  C3  UNL     1      26.374   4.055  49.698  1.00  0.00     0.301 C 
HETATM    4  O1  UNL     1      27.122   3.213  49.178  1.00  0.00    -0.258 OA
HETATM    5  N1  UNL     1      25.609   3.672  50.808  1.00  0.00    -0.300 N 
HETATM    6  H2  UNL     1      25.056   4.545  51.077  1.00  0.00     0.171 HD
ENDROOT
BRANCH   5   7
HETATM    7  C4  UNL     1      25.235   2.716  51.710  1.00  0.00     0.132 C 
HETATM    8  C5  UNL     1      24.043   2.180  52.030  1.00  0.00    -0.037 C 
HETATM    9  C6  UNL     1      22.889   2.704  51.285  1.00  0.00     0.047 C 
HETATM   10  C7  UNL     1      23.634   1.143  52.957  1.00  0.00     0.013 C 
HETATM   11  C8  UNL     1      22.406   0.685  53.208  1.00  0.00     0.054 C 
HETATM   12  C9  UNL     1      22.219  -0.380  54.194  1.00  0.00    -0.004 C 
HETATM   13  C10 UNL     1      22.535  -1.325  55.142  1.00  0.00     0.081 C 
HETATM   14  N2  UNL     1      23.878  -1.558  55.556  1.00  0.00    -0.381 N 
HETATM   15  C11 UNL     1      25.154  -1.096  56.061  1.00  0.00     0.271 C 
HETATM   16  H10 UNL     1      23.884  -2.613  55.368  1.00  0.00     0.160 HD
HETATM   17  N3  UNL     1      25.875  -0.225  55.190  1.00  0.00    -0.264 NA
HETATM   18  C12 UNL     1      27.174  -0.113  55.354  1.00  0.00     0.228 C 
HETATM   19  N4  UNL     1      26.953   0.740  54.287  1.00  0.00    -0.253 NA
HETATM   20  C13 UNL     1      27.857   1.334  53.621  1.00  0.00     0.137 C 
HETATM   21  C14 UNL     1      27.379   2.208  52.506  1.00  0.00     0.138 C 
HETATM   22  N5  UNL     1      26.120   2.070  52.576  1.00  0.00    -0.242 NA
ENDBRANCH   5   7
TORSDOF 1
ENDMDL
MODEL 4
REMARK VINA RESULT:      -7.6      2.207      2.724
REMARK  1 active torsions:
REMARK  status: ('A' for Active; 'I' for Inactive)
REMARK       I    between atoms: C3_3  and  N1_5 
REMARK    1  A    between atoms: N1_5  and  C4_6 
ROOT
HETATM    1  C1  UNL     1      28.955   0.852  54.578  1.00  0.00     0.022 C 
HETATM    2  C2  UNL     1      27.952   0.315  54.210  1.00  0.00    -0.016 C 
HETATM    3  C3  UNL     1      26.762  -0.316  53.770  1.00  0.00     0.301 C 
HETATM    4  O1  UNL     1      26.871  -1.522  53.496  1.00  0.00    -0.258 OA
HETATM    5  N1  UNL     1      25.508   0.290  53.622  1.00  0.00    -0.300 N 
HETATM    6  H2  UNL     1      25.657   1.307  53.910  1.00  0.00     0.171 HD
ENDROOT
BRANCH   5   7
HETATM    7  C4  UNL     1      24.186   0.202  53.286  1.00  0.00     0.132 C 
HETATM    8  C5  UNL     1      23.149  -0.465  53.826  1.00  0.00    -0.037 C 
HETATM    9  C6  UNL     1      23.462  -1.274  55.013  1.00  0.00     0.047 C 
HETATM   10  C7  UNL     1      21.738  -0.542  53.503  1.00  0.00     0.013 C 
HETATM   11  C8  UNL     1      20.782  -1.251  54.107  1.00  0.00     0.054 C 
HETATM   12  C9  UNL     1      19.407  -1.180  53.611  1.00  0.00    -0.004 C 
HETATM   13  C10 UNL     1      18.340  -0.805  52.828  1.00  0.00     0.081 C 
HETATM   14  N2  UNL     1      18.484   0.107  51.742  1.00  0.00    -0.381 N 
HETATM   15  C11 UNL     1      19.119   0.534  50.514  1.00  0.00     0.271 C 
HETATM   16  H10 UNL     1      17.725   0.795  52.057  1.00  0.00     0.160 HD
HETATM   17  N3  UNL     1      20.492   0.904  50.634  1.00  0.00    -0.264 NA
HETATM   18  C12 UNL     1      21.010   1.690  49.717  1.00  0.00     0.228 C 
HETATM   19  N4  UNL     1      22.094   1.485  50.552  1.00  0.00    -0.253 NA
HETATM   20  C13 UNL     1      23.223   2.058  50.447  1.00  0.00     0.137 C 
HETATM   21  C14 UNL     1      24.246   1.681  51.469  1.00  0.00     0.138 C 
HETATM   22  N5  UNL     1      23.616   0.841  52.182  1.00  0.00    -0.242 NA
ENDBRANCH   5   7
TORSDOF 1
ENDMDL
MODEL 5
REMARK VINA RESULT:      -7.5      2.722      4.782
REMARK  1 active torsions:
REMARK  status: ('A' for Active; 'I' for Inactive)
REMARK       I    between atoms: C3_3  and  N1_5 
REMARK    1  A    between atoms: N1_5  and  C4_6 
ROOT
HETATM    1  C1  UNL     1      27.642   4.868  48.582  1.00  0.00     0.022 C 
HETATM    2  C2  UNL     1      26.689   4.643  49.267  1.00  0.00    -0.016 C 
HETATM    3  C3  UNL     1      25.561   4.371  50.082  1.00  0.00     0.301 C 
HETATM    4  O1  UNL     1      24.956   5.370  50.501  1.00  0.00    -0.258 OA
HETATM    5  N1  UNL     1      25.086   3.104  50.444  1.00  0.00    -0.300 N 
HETATM    6  H2  UNL     1      25.753   2.414  49.975  1.00  0.00     0.171 HD
ENDROOT
BRANCH   5   7
HETATM    7  C4  UNL     1      24.176   2.329  51.109  1.00  0.00     0.132 C 
HETATM    8  C5  UNL     1      24.307   1.344  52.016  1.00  0.00    -0.037 C 
HETATM    9  C6  UNL     1      25.686   1.000  52.388  1.00  0.00     0.047 C 
HETATM   10  C7  UNL     1      23.354   0.539  52.755  1.00  0.00     0.013 C 
HETATM   11  C8  UNL     1      23.591  -0.433  53.638  1.00  0.00     0.054 C 
HETATM   12  C9  UNL     1      22.467  -1.121  54.274  1.00  0.00    -0.004 C 
HETATM   13  C10 UNL     1      21.168  -1.448  54.583  1.00  0.00     0.081 C 
HETATM   14  N2  UNL     1      20.059  -0.777  53.989  1.00  0.00    -0.381 N 
HETATM   15  C11 UNL     1      19.325  -0.307  52.834  1.00  0.00     0.271 C 
HETATM   16  H10 UNL     1      19.576  -0.503  54.906  1.00  0.00     0.160 HD
HETATM   17  N3  UNL     1      19.982   0.697  52.061  1.00  0.00    -0.264 NA
HETATM   18  C12 UNL     1      19.250   1.470  51.290  1.00  0.00     0.228 C 
HETATM   19  N4  UNL     1      20.522   1.960  51.050  1.00  0.00    -0.253 NA
HETATM   20  C13 UNL     1      20.796   2.982  50.347  1.00  0.00     0.137 C 
HETATM   21  C14 UNL     1      22.246   3.325  50.229  1.00  0.00     0.138 C 
HETATM   22  N5  UNL     1      22.794   2.417  50.926  1.00  0.00    -0.242 NA
ENDBRANCH   5   7
TORSDOF 1
ENDMDL
MODEL 6
REMARK VINA RESULT:      -7.3      2.720      6.106
REMARK  1 active torsions:
REMARK  status: ('A' for Active; 'I' for Inactive)
REMARK       I    between atoms: C3_3  and  N1_5 
REMARK    1  A    between atoms: N1_5  and  C4_6 
ROOT
HETATM    1  C1  UNL     1      22.301   5.367  47.015  1.00  0.00     0.022 C 
HETATM    2  C2  UNL     1      22.508   4.358  47.620  1.00  0.00    -0.016 C 
HETATM    3  C3  UNL     1      22.750   3.162  48.343  1.00  0.00     0.301 C 
HETATM    4  O1  UNL     1      22.584   2.112  47.703  1.00  0.00    -0.258 OA
HETATM    5  N1  UNL     1      23.151   3.071  49.683  1.00  0.00    -0.300 N 
HETATM    6  H2  UNL     1      23.228   4.081  50.018  1.00  0.00     0.171 HD
ENDROOT
BRANCH   5   7
HETATM    7  C4  UNL     1      23.491   2.306  50.763  1.00  0.00     0.132 C 
HETATM    8  C5  UNL     1      22.783   1.483  51.558  1.00  0.00    -0.037 C 
HETATM    9  C6  UNL     1      21.355   1.359  51.234  1.00  0.00     0.047 C 
HETATM   10  C7  UNL     1      23.135   0.639  52.684  1.00  0.00     0.013 C 
HETATM   11  C8  UNL     1      22.342  -0.144  53.419  1.00  0.00     0.054 C 
HETATM   12  C9  UNL     1      22.914  -0.919  54.521  1.00  0.00    -0.004 C 
HETATM   13  C10 UNL     1      23.857  -1.419  55.388  1.00  0.00     0.081 C 
HETATM   14  N2  UNL     1      25.231  -1.049  55.304  1.00  0.00    -0.381 N 
HETATM   15  C11 UNL     1      26.281  -0.054  55.248  1.00  0.00     0.271 C 
HETATM   16  H10 UNL     1      25.623  -2.045  55.250  1.00  0.00     0.160 HD
HETATM   17  N3  UNL     1      26.284   0.764  54.079  1.00  0.00    -0.264 NA
HETATM   18  C12 UNL     1      27.402   1.365  53.740  1.00  0.00     0.228 C 
HETATM   19  N4  UNL     1      26.545   1.785  52.738  1.00  0.00    -0.253 NA
HETATM   20  C13 UNL     1      26.880   2.471  51.722  1.00  0.00     0.137 C 
HETATM   21  C14 UNL     1      25.780   2.807  50.768  1.00  0.00     0.138 C 
HETATM   22  N5  UNL     1      24.775   2.256  51.311  1.00  0.00    -0.242 NA
ENDBRANCH   5   7
TORSDOF 1
ENDMDL
MODEL 7
REMARK VINA RESULT:      -7.1      2.772      6.847
REMARK  1 active torsions:
REMARK  status: ('A' for Active; 'I' for Inactive)
REMARK       I    between atoms: C3_3  and  N1_5 
REMARK    1  A    between atoms: N1_5  and  C4_6 
ROOT
HETATM    1  C1  UNL     1      21.993   5.400  46.798  1.00  0.00     0.022 C 
HETATM    2  C2  UNL     1      22.335   4.448  47.434  1.00  0.00    -0.016 C 
HETATM    3  C3  UNL     1      22.739   3.321  48.194  1.00  0.00     0.301 C 
HETATM    4  O1  UNL     1      22.394   2.221  47.736  1.00  0.00    -0.258 OA
HETATM    5  N1  UNL     1      23.476   3.346  49.385  1.00  0.00    -0.300 N 
HETATM    6  H2  UNL     1      23.654   4.381  49.578  1.00  0.00     0.171 HD
ENDROOT
BRANCH   5   7
HETATM    7  C4  UNL     1      24.075   2.679  50.417  1.00  0.00     0.132 C 
HETATM    8  C5  UNL     1      25.347   2.621  50.851  1.00  0.00    -0.037 C 
HETATM    9  C6  UNL     1      26.316   3.419  50.086  1.00  0.00     0.047 C 
HETATM   10  C7  UNL     1      25.991   1.948  51.962  1.00  0.00     0.013 C 
HETATM   11  C8  UNL     1      27.281   1.950  52.304  1.00  0.00     0.054 C 
HETATM   12  C9  UNL     1      27.718   1.193  53.477  1.00  0.00    -0.004 C 
HETATM   13  C10 UNL     1      27.644   0.384  54.587  1.00  0.00     0.081 C 
HETATM   14  N2  UNL     1      26.409  -0.167  55.038  1.00  0.00    -0.381 N 
HETATM   15  C11 UNL     1      25.189  -0.913  54.812  1.00  0.00     0.271 C 
HETATM   16  H10 UNL     1      26.473   0.194  56.045  1.00  0.00     0.160 HD
HETATM   17  N3  UNL     1      24.263  -0.310  53.910  1.00  0.00    -0.264 NA
HETATM   18  C12 UNL     1      23.000  -0.668  53.979  1.00  0.00     0.228 C 
HETATM   19  N4  UNL     1      22.972   0.260  52.953  1.00  0.00    -0.253 NA
HETATM   20  C13 UNL     1      21.923   0.685  52.375  1.00  0.00     0.137 C 
HETATM   21  C14 UNL     1      22.137   1.692  51.291  1.00  0.00     0.138 C 
HETATM   22  N5  UNL     1      23.399   1.820  51.288  1.00  0.00    -0.242 NA
ENDBRANCH   5   7
TORSDOF 1
ENDMDL
MODEL 8
REMARK VINA RESULT:      -7.1      3.269      7.332
REMARK  1 active torsions:
REMARK  status: ('A' for Active; 'I' for Inactive)
REMARK       I    between atoms: C3_3  and  N1_5 
REMARK    1  A    between atoms: N1_5  and  C4_6 
ROOT
HETATM    1  C1  UNL     1      16.705  -0.710  51.090  1.00  0.00     0.022 C 
HETATM    2  C2  UNL     1      17.683  -0.076  51.349  1.00  0.00    -0.016 C 
HETATM    3  C3  UNL     1      18.848   0.674  51.653  1.00  0.00     0.301 C 
HETATM    4  O1  UNL     1      18.684   1.901  51.730  1.00  0.00    -0.258 OA
HETATM    5  N1  UNL     1      20.133   0.158  51.868  1.00  0.00    -0.300 N 
HETATM    6  H2  UNL     1      20.030  -0.898  51.752  1.00  0.00     0.171 HD
ENDROOT
BRANCH   5   7
HETATM    7  C4  UNL     1      21.454   0.361  52.155  1.00  0.00     0.132 C 
HETATM    8  C5  UNL     1      22.421   1.072  51.548  1.00  0.00    -0.037 C 
HETATM    9  C6  UNL     1      22.017   1.781  50.325  1.00  0.00     0.047 C 
HETATM   10  C7  UNL     1      23.815   1.326  51.858  1.00  0.00     0.013 C 
HETATM   11  C8  UNL     1      24.703   2.049  51.174  1.00  0.00     0.054 C 
HETATM   12  C9  UNL     1      26.072   2.175  51.675  1.00  0.00    -0.004 C 
HETATM   13  C10 UNL     1      27.161   2.005  52.498  1.00  0.00     0.081 C 
HETATM   14  N2  UNL     1      27.091   1.232  53.692  1.00  0.00    -0.381 N 
HETATM   15  C11 UNL     1      26.773   0.011  54.402  1.00  0.00     0.271 C 
HETATM   16  H10 UNL     1      27.464   1.989  54.352  1.00  0.00     0.160 HD
HETATM   17  N3  UNL     1      25.388  -0.329  54.440  1.00  0.00    -0.264 NA
HETATM   18  C12 UNL     1      24.967  -1.136  55.389  1.00  0.00     0.228 C 
HETATM   19  N4  UNL     1      23.795  -0.882  54.699  1.00  0.00    -0.253 NA
HETATM   20  C13 UNL     1      22.637  -1.271  55.049  1.00  0.00     0.137 C 
HETATM   21  C14 UNL     1      21.514  -0.874  54.146  1.00  0.00     0.138 C 
HETATM   22  N5  UNL     1      22.115  -0.218  53.241  1.00  0.00    -0.242 NA
ENDBRANCH   5   7
TORSDOF 1
ENDMDL
MODEL 9
REMARK VINA RESULT:      -6.9      2.827      5.625
REMARK  1 active torsions:
REMARK  status: ('A' for Active; 'I' for Inactive)
REMARK       I    between atoms: C3_3  and  N1_5 
REMARK    1  A    between atoms: N1_5  and  C4_6 
ROOT
HETATM    1  C1  UNL     1      22.360  -1.038  53.472  1.00  0.00     0.022 C 
HETATM    2  C2  UNL     1      23.134  -0.164  53.214  1.00  0.00    -0.016 C 
HETATM    3  C3  UNL     1      24.046   0.877  52.907  1.00  0.00     0.301 C 
HETATM    4  O1  UNL     1      25.087   0.887  53.584  1.00  0.00    -0.258 OA
HETATM    5  N1  UNL     1      23.877   1.867  51.931  1.00  0.00    -0.300 N 
HETATM    6  H2  UNL     1      22.928   1.658  51.488  1.00  0.00     0.171 HD
ENDROOT
BRANCH   5   7
HETATM    7  C4  UNL     1      24.346   2.971  51.275  1.00  0.00     0.132 C 
HETATM    8  C5  UNL     1      25.467   3.206  50.571  1.00  0.00    -0.037 C 
HETATM    9  C6  UNL     1      26.402   2.077  50.466  1.00  0.00     0.047 C 
HETATM   10  C7  UNL     1      25.962   4.358  49.842  1.00  0.00     0.013 C 
HETATM   11  C8  UNL     1      27.110   4.492  49.174  1.00  0.00     0.054 C 
HETATM   12  C9  UNL     1      27.411   5.757  48.502  1.00  0.00    -0.004 C 
HETATM   13  C10 UNL     1      27.251   7.051  48.064  1.00  0.00     0.081 C 
HETATM   14  N2  UNL     1      26.086   7.812  48.370  1.00  0.00    -0.381 N 
HETATM   15  C11 UNL     1      25.131   8.356  49.313  1.00  0.00     0.271 C 
HETATM   16  H10 UNL     1      25.840   8.074  47.361  1.00  0.00     0.160 HD
HETATM   17  N3  UNL     1      24.334   7.391  49.999  1.00  0.00    -0.264 NA
HETATM   18  C12 UNL     1      23.191   7.780  50.518  1.00  0.00     0.228 C 
HETATM   19  N4  UNL     1      23.209   6.440  50.858  1.00  0.00    -0.253 NA
HETATM   20  C13 UNL     1      22.258   5.809  51.417  1.00  0.00     0.137 C 
HETATM   21  C14 UNL     1      22.504   4.360  51.688  1.00  0.00     0.138 C 
HETATM   22  N5  UNL     1      23.679   4.198  51.237  1.00  0.00    -0.242 NA
ENDBRANCH   5   7
TORSDOF 1
ENDMDL
