MODEL 1
REMARK VINA RESULT:     -10.1      0.000      0.000
REMARK  5 active torsions:
REMARK  status: ('A' for Active; 'I' for Inactive)
REMARK    1  A    between atoms: C3_3  and  C4_4 
REMARK    2  A    between atoms: C3_3  and  C16_16 
REMARK    3  A    between atoms: C17_18  and  C18_19 
REMARK    4  A    between atoms: C20_21  and  O1_23 
REMARK    5  A    between atoms: C25_29  and  N4_30 
ROOT
HETATM    1  C16 UNL     1      23.035   0.702  52.108  1.00  0.00     0.100 A 
HETATM    2  N1  UNL     1      24.384   0.829  52.019  1.00  0.00    -0.231 NA
HETATM    3  C17 UNL     1      25.017   0.247  53.029  1.00  0.00     0.116 A 
HETATM    4  N2  UNL     1      24.123  -0.296  53.837  1.00  0.00    -0.303 N 
HETATM    5  C23 UNL     1      24.122  -1.018  54.968  1.00  0.00     0.118 A 
HETATM    6  C24 UNL     1      23.007  -1.508  55.606  1.00  0.00     0.136 A 
HETATM    7  N3  UNL     1      21.817  -1.211  55.001  1.00  0.00    -0.240 NA
HETATM    8  C25 UNL     1      21.826  -0.489  53.869  1.00  0.00     0.150 A 
HETATM    9  C26 UNL     1      22.945  -0.016  53.268  1.00  0.00     0.116 A 
ENDROOT
BRANCH   1  10
HETATM   10  C3  UNL     1      22.185   1.246  51.074  1.00  0.00    -0.008 C 
HETATM   11  C2  UNL     1      21.471   0.559  50.183  1.00  0.00    -0.017 C 
HETATM   12  C1  UNL     1      20.713   1.247  49.108  1.00  0.00     0.037 C 
BRANCH  10  13
HETATM   13  C4  UNL     1      22.152   2.719  50.912  1.00  0.00     0.022 C 
HETATM   14  C5  UNL     1      22.781   3.788  50.456  1.00  0.00    -0.039 C 
HETATM   15  C6  UNL     1      24.075   3.740  49.784  1.00  0.00    -0.029 C 
HETATM   16  C13 UNL     1      22.221   5.108  50.651  1.00  0.00     0.042 C 
HETATM   17  C7  UNL     1      25.260   3.787  49.197  1.00  0.00     0.011 C 
HETATM   18  C15 UNL     1      23.455   4.937  49.034  1.00  0.00     0.009 C 
HETATM   19  C8  UNL     1      26.349   4.772  49.021  1.00  0.00    -0.003 C 
HETATM   20  C9  UNL     1      26.458   5.992  49.473  1.00  0.00    -0.026 C 
HETATM   21  C10 UNL     1      25.422   6.673  50.303  1.00  0.00    -0.001 C 
HETATM   22  C11 UNL     1      24.214   6.628  50.867  1.00  0.00     0.026 C 
HETATM   23  C12 UNL     1      22.881   6.235  51.316  1.00  0.00     0.019 C 
HETATM   24  C14 UNL     1      22.252   5.533  49.153  1.00  0.00    -0.016 C 
ENDBRANCH  10  13
ENDBRANCH   1  10
BRANCH   3  25
HETATM   25  C18 UNL     1      26.487   0.227  53.203  1.00  0.00     0.061 C 
HETATM   26  C19 UNL     1      27.286   1.198  52.396  1.00  0.00     0.049 C 
HETATM   27  C20 UNL     1      28.063   1.507  53.667  1.00  0.00     0.056 C 
HETATM   28  C21 UNL     1      29.381   0.739  53.639  1.00  0.00     0.045 C 
HETATM   29  C22 UNL     1      27.035   0.731  54.498  1.00  0.00     0.049 C 
BRANCH  27  30
HETATM   30  O1  UNL     1      28.177   2.840  54.003  1.00  0.00    -0.390 OA
HETATM   31  H22 UNL     1      27.365   3.286  53.598  1.00  0.00     0.210 HD
ENDBRANCH  27  30
ENDBRANCH   3  25
BRANCH   8  32
HETATM   32  N4  UNL     1      20.543  -0.344  53.322  1.00  0.00    -0.382 N 
HETATM   33  H27 UNL     1      19.671  -0.916  53.385  1.00  0.00     0.157 HD
HETATM   34  H28 UNL     1      19.646  -0.130  52.866  1.00  0.00     0.157 HD
ENDBRANCH   8  32
TORSDOF 5
ENDMDL
MODEL 2
REMARK VINA RESULT:      -9.6      2.935      6.342
REMARK  5 active torsions:
REMARK  status: ('A' for Active; 'I' for Inactive)
REMARK    1  A    between atoms: C3_3  and  C4_4 
REMARK    2  A    between atoms: C3_3  and  C16_16 
REMARK    3  A    between atoms: C17_18  and  C18_19 
REMARK    4  A    between atoms: C20_21  and  O1_23 
REMARK    5  A    between atoms: C25_29  and  N4_30 
ROOT
HETATM    1  C16 UNL     1      21.608   0.146  52.231  1.00  0.00     0.100 A 
HETATM    2  N1  UNL     1      21.933   0.805  51.089  1.00  0.00    -0.231 NA
HETATM    3  C17 UNL     1      20.881   1.024  50.310  1.00  0.00     0.116 A 
HETATM    4  N2  UNL     1      19.806   0.523  50.896  1.00  0.00    -0.303 N 
HETATM    5  C23 UNL     1      18.491   0.447  50.647  1.00  0.00     0.118 A 
HETATM    6  C24 UNL     1      17.549  -0.120  51.474  1.00  0.00     0.136 A 
HETATM    7  N3  UNL     1      18.040  -0.636  52.642  1.00  0.00    -0.240 NA
HETATM    8  C25 UNL     1      19.358  -0.555  52.884  1.00  0.00     0.150 A 
HETATM    9  C26 UNL     1      20.261   0.006  52.043  1.00  0.00     0.116 A 
ENDROOT
BRANCH   1  10
HETATM   10  C3  UNL     1      22.626  -0.146  53.214  1.00  0.00    -0.008 C 
HETATM   11  C2  UNL     1      22.520  -0.980  54.249  1.00  0.00    -0.017 C 
HETATM   12  C1  UNL     1      23.615  -1.115  55.243  1.00  0.00     0.037 C 
BRANCH  10  13
HETATM   13  C4  UNL     1      23.898   0.609  53.136  1.00  0.00     0.022 C 
HETATM   14  C5  UNL     1      25.207   0.543  52.967  1.00  0.00    -0.039 C 
HETATM   15  C6  UNL     1      25.930  -0.704  52.737  1.00  0.00    -0.029 C 
HETATM   16  C13 UNL     1      26.020   1.736  53.050  1.00  0.00     0.042 C 
HETATM   17  C7  UNL     1      26.663  -1.791  52.560  1.00  0.00     0.011 C 
HETATM   18  C15 UNL     1      26.811   0.246  51.901  1.00  0.00     0.009 C 
HETATM   19  C8  UNL     1      28.061  -2.212  52.796  1.00  0.00    -0.003 C 
HETATM   20  C9  UNL     1      29.055  -1.556  53.329  1.00  0.00    -0.026 C 
HETATM   21  C10 UNL     1      28.961  -0.152  53.826  1.00  0.00    -0.001 C 
HETATM   22  C11 UNL     1      28.224   0.950  53.975  1.00  0.00     0.026 C 
HETATM   23  C12 UNL     1      27.155   1.944  53.955  1.00  0.00     0.019 C 
HETATM   24  C14 UNL     1      26.716   1.570  51.667  1.00  0.00    -0.016 C 
ENDBRANCH  10  13
ENDBRANCH   1  10
BRANCH   3  25
HETATM   25  C18 UNL     1      20.929   1.713  49.002  1.00  0.00     0.061 C 
HETATM   26  C19 UNL     1      20.801   3.203  49.007  1.00  0.00     0.049 C 
HETATM   27  C20 UNL     1      21.965   3.236  48.030  1.00  0.00     0.056 C 
HETATM   28  C21 UNL     1      21.421   3.415  46.617  1.00  0.00     0.045 C 
HETATM   29  C22 UNL     1      22.240   1.750  48.290  1.00  0.00     0.049 C 
BRANCH  27  30
HETATM   30  O1  UNL     1      23.012   4.073  48.359  1.00  0.00    -0.390 OA
HETATM   31  H22 UNL     1      22.634   4.715  49.042  1.00  0.00     0.210 HD
ENDBRANCH  27  30
ENDBRANCH   3  25
BRANCH   8  32
HETATM   32  N4  UNL     1      19.695  -1.045  54.154  1.00  0.00    -0.382 N 
HETATM   33  H27 UNL     1      20.477  -0.838  54.815  1.00  0.00     0.157 HD
HETATM   34  H28 UNL     1      19.836  -1.477  55.077  1.00  0.00     0.157 HD
ENDBRANCH   8  32
TORSDOF 5
ENDMDL
MODEL 3
REMARK VINA RESULT:      -9.4      1.172      1.306
REMARK  5 active torsions:
REMARK  status: ('A' for Active; 'I' for Inactive)
REMARK    1  A    between atoms: C3_3  and  C4_4 
REMARK    2  A    between atoms: C3_3  and  C16_16 
REMARK    3  A    between atoms: C17_18  and  C18_19 
REMARK    4  A    between atoms: C20_21  and  O1_23 
REMARK    5  A    between atoms: C25_29  and  N4_30 
ROOT
HETATM    1  C16 UNL     1      22.954   1.396  51.229  1.00  0.00     0.100 A 
HETATM    2  N1  UNL     1      24.297   1.589  51.248  1.00  0.00    -0.231 NA
HETATM    3  C17 UNL     1      24.886   0.972  52.266  1.00  0.00     0.116 A 
HETATM    4  N2  UNL     1      23.964   0.338  52.970  1.00  0.00    -0.303 N 
HETATM    5  C23 UNL     1      23.919  -0.454  54.052  1.00  0.00     0.118 A 
HETATM    6  C24 UNL     1      22.787  -1.034  54.575  1.00  0.00     0.136 A 
HETATM    7  N3  UNL     1      21.630  -0.753  53.902  1.00  0.00    -0.240 NA
HETATM    8  C25 UNL     1      21.683   0.040  52.820  1.00  0.00     0.150 A 
HETATM    9  C26 UNL     1      22.817   0.601  52.334  1.00  0.00     0.116 A 
ENDROOT
BRANCH   1  10
HETATM   10  C3  UNL     1      22.154   1.966  50.170  1.00  0.00    -0.008 C 
HETATM   11  C2  UNL     1      21.573   1.310  49.166  1.00  0.00    -0.017 C 
HETATM   12  C1  UNL     1      20.856   2.034  48.086  1.00  0.00     0.037 C 
BRANCH  10  13
HETATM   13  C4  UNL     1      22.020   3.442  50.125  1.00  0.00     0.022 C 
HETATM   14  C5  UNL     1      22.617   4.591  49.867  1.00  0.00    -0.039 C 
HETATM   15  C6  UNL     1      24.000   4.700  49.413  1.00  0.00    -0.029 C 
HETATM   16  C13 UNL     1      21.922   5.843  50.073  1.00  0.00     0.042 C 
HETATM   17  C7  UNL     1      25.254   4.887  49.034  1.00  0.00     0.011 C 
HETATM   18  C15 UNL     1      23.404   5.914  48.672  1.00  0.00     0.009 C 
HETATM   19  C8  UNL     1      26.268   5.960  49.119  1.00  0.00    -0.003 C 
HETATM   20  C9  UNL     1      26.199   7.136  49.680  1.00  0.00    -0.026 C 
HETATM   21  C10 UNL     1      24.991   7.660  50.382  1.00  0.00    -0.001 C 
HETATM   22  C11 UNL     1      23.718   7.475  50.735  1.00  0.00     0.026 C 
HETATM   23  C12 UNL     1      22.370   6.948  50.927  1.00  0.00     0.019 C 
HETATM   24  C14 UNL     1      22.151   6.408  48.640  1.00  0.00    -0.016 C 
ENDBRANCH  10  13
ENDBRANCH   1  10
BRANCH   3  25
HETATM   25  C18 UNL     1      26.338   1.007  52.547  1.00  0.00     0.061 C 
HETATM   26  C19 UNL     1      26.765   1.512  53.888  1.00  0.00     0.049 C 
HETATM   27  C20 UNL     1      27.715   0.327  53.953  1.00  0.00     0.056 C 
HETATM   28  C21 UNL     1      29.117   0.795  53.577  1.00  0.00     0.045 C 
HETATM   29  C22 UNL     1      27.037  -0.300  52.729  1.00  0.00     0.049 C 
BRANCH  27  30
HETATM   30  O1  UNL     1      27.649  -0.444  55.096  1.00  0.00    -0.390 OA
HETATM   31  H22 UNL     1      27.879   0.185  55.854  1.00  0.00     0.210 HD
ENDBRANCH  27  30
ENDBRANCH   3  25
BRANCH   8  32
HETATM   32  N4  UNL     1      20.437   0.161  52.189  1.00  0.00    -0.382 N 
HETATM   33  H27 UNL     1      19.473   0.354  52.543  1.00  0.00     0.157 HD
HETATM   34  H28 UNL     1      19.585   0.228  51.616  1.00  0.00     0.157 HD
ENDBRANCH   8  32
TORSDOF 5
ENDMDL
MODEL 4
REMARK VINA RESULT:      -9.2      2.361      4.646
REMARK  5 active torsions:
REMARK  status: ('A' for Active; 'I' for Inactive)
REMARK    1  A    between atoms: C3_3  and  C4_4 
REMARK    2  A    between atoms: C3_3  and  C16_16 
REMARK    3  A    between atoms: C17_18  and  C18_19 
REMARK    4  A    between atoms: C20_21  and  O1_23 
REMARK    5  A    between atoms: C25_29  and  N4_30 
ROOT
HETATM    1  C16 UNL     1      25.410   2.015  51.914  1.00  0.00     0.100 A 
HETATM    2  N1  UNL     1      24.237   1.333  51.960  1.00  0.00    -0.231 NA
HETATM    3  C17 UNL     1      24.218   0.418  52.921  1.00  0.00     0.116 A 
HETATM    4  N2  UNL     1      25.375   0.448  53.561  1.00  0.00    -0.303 N 
HETATM    5  C23 UNL     1      25.945  -0.180  54.600  1.00  0.00     0.118 A 
HETATM    6  C24 UNL     1      27.198   0.078  55.104  1.00  0.00     0.136 A 
HETATM    7  N3  UNL     1      27.887   1.070  54.460  1.00  0.00    -0.240 NA
HETATM    8  C25 UNL     1      27.309   1.693  53.421  1.00  0.00     0.150 A 
HETATM    9  C26 UNL     1      26.072   1.410  52.947  1.00  0.00     0.116 A 
ENDROOT
BRANCH   1  10
HETATM   10  C3  UNL     1      25.596   3.075  50.950  1.00  0.00    -0.008 C 
HETATM   11  C2  UNL     1      26.531   3.139  50.003  1.00  0.00    -0.017 C 
HETATM   12  C1  UNL     1      26.669   4.337  49.137  1.00  0.00     0.037 C 
BRANCH  10  13
HETATM   13  C4  UNL     1      24.721   4.267  51.058  1.00  0.00     0.022 C 
HETATM   14  C5  UNL     1      23.762   4.981  50.495  1.00  0.00    -0.039 C 
HETATM   15  C6  UNL     1      23.140   4.636  49.222  1.00  0.00    -0.029 C 
HETATM   16  C13 UNL     1      23.298   6.204  51.112  1.00  0.00     0.042 C 
HETATM   17  C7  UNL     1      22.550   4.414  48.058  1.00  0.00     0.011 C 
HETATM   18  C15 UNL     1      21.924   5.279  49.920  1.00  0.00     0.009 C 
HETATM   19  C8  UNL     1      21.851   5.206  47.022  1.00  0.00    -0.003 C 
HETATM   20  C9  UNL     1      21.627   6.491  46.959  1.00  0.00    -0.026 C 
HETATM   21  C10 UNL     1      22.056   7.468  48.002  1.00  0.00    -0.001 C 
HETATM   22  C11 UNL     1      22.627   7.680  49.189  1.00  0.00     0.026 C 
HETATM   23  C12 UNL     1      23.278   7.530  50.487  1.00  0.00     0.019 C 
HETATM   24  C14 UNL     1      21.789   5.822  51.146  1.00  0.00    -0.016 C 
ENDBRANCH  10  13
ENDBRANCH   1  10
BRANCH   3  25
HETATM   25  C18 UNL     1      23.078  -0.481  53.207  1.00  0.00     0.061 C 
HETATM   26  C19 UNL     1      22.723  -0.704  54.642  1.00  0.00     0.049 C 
HETATM   27  C20 UNL     1      21.271  -0.497  54.242  1.00  0.00     0.056 C 
HETATM   28  C21 UNL     1      20.600  -1.859  54.095  1.00  0.00     0.045 C 
HETATM   29  C22 UNL     1      21.710   0.010  52.864  1.00  0.00     0.049 C 
BRANCH  27  30
HETATM   30  O1  UNL     1      20.559   0.422  54.986  1.00  0.00    -0.390 OA
HETATM   31  H22 UNL     1      19.590   0.154  54.882  1.00  0.00     0.210 HD
ENDBRANCH  27  30
ENDBRANCH   3  25
BRANCH   8  32
HETATM   32  N4  UNL     1      28.099   2.741  52.926  1.00  0.00    -0.382 N 
HETATM   33  H27 UNL     1      28.523   3.587  53.370  1.00  0.00     0.157 HD
HETATM   34  H28 UNL     1      28.670   3.451  52.448  1.00  0.00     0.157 HD
ENDBRANCH   8  32
TORSDOF 5
ENDMDL
MODEL 5
REMARK VINA RESULT:      -8.7      1.264      2.302
REMARK  5 active torsions:
REMARK  status: ('A' for Active; 'I' for Inactive)
REMARK    1  A    between atoms: C3_3  and  C4_4 
REMARK    2  A    between atoms: C3_3  and  C16_16 
REMARK    3  A    between atoms: C17_18  and  C18_19 
REMARK    4  A    between atoms: C20_21  and  O1_23 
REMARK    5  A    between atoms: C25_29  and  N4_30 
ROOT
HETATM    1  C16 UNL     1      22.483   0.650  52.140  1.00  0.00     0.100 A 
HETATM    2  N1  UNL     1      23.802   0.967  52.096  1.00  0.00    -0.231 NA
HETATM    3  C17 UNL     1      24.489   0.430  53.097  1.00  0.00     0.116 A 
HETATM    4  N2  UNL     1      23.661  -0.271  53.853  1.00  0.00    -0.303 N 
HETATM    5  C23 UNL     1      23.736  -1.040  54.949  1.00  0.00     0.118 A 
HETATM    6  C24 UNL     1      22.687  -1.711  55.532  1.00  0.00     0.136 A 
HETATM    7  N3  UNL     1      21.480  -1.553  54.906  1.00  0.00    -0.240 NA
HETATM    8  C25 UNL     1      21.413  -0.781  53.810  1.00  0.00     0.150 A 
HETATM    9  C26 UNL     1      22.468  -0.130  53.264  1.00  0.00     0.116 A 
ENDROOT
BRANCH   1  10
HETATM   10  C3  UNL     1      21.589   1.121  51.108  1.00  0.00    -0.008 C 
HETATM   11  C2  UNL     1      20.315   0.769  50.933  1.00  0.00    -0.017 C 
HETATM   12  C1  UNL     1      19.535   1.258  49.768  1.00  0.00     0.037 C 
BRANCH  10  13
HETATM   13  C4  UNL     1      22.145   2.025  50.073  1.00  0.00     0.022 C 
HETATM   14  C5  UNL     1      22.409   3.274  49.733  1.00  0.00    -0.039 C 
HETATM   15  C6  UNL     1      22.121   4.423  50.585  1.00  0.00    -0.029 C 
HETATM   16  C13 UNL     1      22.972   3.579  48.435  1.00  0.00     0.042 C 
HETATM   17  C7  UNL     1      21.861   5.518  51.281  1.00  0.00     0.011 C 
HETATM   18  C15 UNL     1      23.391   4.950  49.888  1.00  0.00     0.009 C 
HETATM   19  C8  UNL     1      21.615   6.950  51.006  1.00  0.00    -0.003 C 
HETATM   20  C9  UNL     1      21.556   7.587  49.868  1.00  0.00    -0.026 C 
HETATM   21  C10 UNL     1      21.749   6.942  48.537  1.00  0.00    -0.001 C 
HETATM   22  C11 UNL     1      22.041   5.840  47.844  1.00  0.00     0.026 C 
HETATM   23  C12 UNL     1      22.395   4.483  47.436  1.00  0.00     0.019 C 
HETATM   24  C14 UNL     1      24.193   4.389  48.961  1.00  0.00    -0.016 C 
ENDBRANCH  10  13
ENDBRANCH   1  10
BRANCH   3  25
HETATM   25  C18 UNL     1      25.942   0.605  53.312  1.00  0.00     0.061 C 
HETATM   26  C19 UNL     1      26.820   0.605  52.102  1.00  0.00     0.049 C 
HETATM   27  C20 UNL     1      27.519   1.818  52.696  1.00  0.00     0.056 C 
HETATM   28  C21 UNL     1      28.814   1.365  53.362  1.00  0.00     0.045 C 
HETATM   29  C22 UNL     1      26.417   1.950  53.753  1.00  0.00     0.049 C 
BRANCH  27  30
HETATM   30  O1  UNL     1      27.646   2.913  51.866  1.00  0.00    -0.390 OA
HETATM   31  H22 UNL     1      27.390   3.708  52.436  1.00  0.00     0.210 HD
ENDBRANCH  27  30
ENDBRANCH   3  25
BRANCH   8  32
HETATM   32  N4  UNL     1      20.135  -0.790  53.233  1.00  0.00    -0.382 N 
HETATM   33  H27 UNL     1      19.615  -1.491  52.659  1.00  0.00     0.157 HD
HETATM   34  H28 UNL     1      19.183  -0.678  52.860  1.00  0.00     0.157 HD
ENDBRANCH   8  32
TORSDOF 5
ENDMDL
MODEL 6
REMARK VINA RESULT:      -8.7      5.819      9.392
REMARK  5 active torsions:
REMARK  status: ('A' for Active; 'I' for Inactive)
REMARK    1  A    between atoms: C3_3  and  C4_4 
REMARK    2  A    between atoms: C3_3  and  C16_16 
REMARK    3  A    between atoms: C17_18  and  C18_19 
REMARK    4  A    between atoms: C20_21  and  O1_23 
REMARK    5  A    between atoms: C25_29  and  N4_30 
ROOT
HETATM    1  C16 UNL     1      28.069   8.899  47.010  1.00  0.00     0.100 A 
HETATM    2  N1  UNL     1      29.024   7.946  47.163  1.00  0.00    -0.231 NA
HETATM    3  C17 UNL     1      30.101   8.401  47.792  1.00  0.00     0.116 A 
HETATM    4  N2  UNL     1      29.914   9.676  48.090  1.00  0.00    -0.303 N 
HETATM    5  C23 UNL     1      30.584  10.652  48.720  1.00  0.00     0.118 A 
HETATM    6  C24 UNL     1      30.127  11.931  48.932  1.00  0.00     0.136 A 
HETATM    7  N3  UNL     1      28.875  12.187  48.444  1.00  0.00    -0.240 NA
HETATM    8  C25 UNL     1      28.210  11.205  47.815  1.00  0.00     0.150 A 
HETATM    9  C26 UNL     1      28.693   9.954  47.617  1.00  0.00     0.116 A 
ENDROOT
BRANCH   1  10
HETATM   10  C3  UNL     1      26.813   8.572  46.377  1.00  0.00    -0.008 C 
HETATM   11  C2  UNL     1      26.480   8.788  45.105  1.00  0.00    -0.017 C 
HETATM   12  C1  UNL     1      25.114   8.489  44.606  1.00  0.00     0.037 C 
BRANCH  10  13
HETATM   13  C4  UNL     1      25.735   8.014  47.228  1.00  0.00     0.022 C 
HETATM   14  C5  UNL     1      25.390   7.070  48.086  1.00  0.00    -0.039 C 
HETATM   15  C6  UNL     1      26.297   6.021  48.541  1.00  0.00    -0.029 C 
HETATM   16  C13 UNL     1      24.039   7.000  48.597  1.00  0.00     0.042 C 
HETATM   17  C7  UNL     1      27.043   5.019  48.977  1.00  0.00     0.011 C 
HETATM   18  C15 UNL     1      25.455   6.189  49.823  1.00  0.00     0.009 C 
HETATM   19  C8  UNL     1      26.832   3.656  49.511  1.00  0.00    -0.003 C 
HETATM   20  C9  UNL     1      25.724   2.990  49.693  1.00  0.00    -0.026 C 
HETATM   21  C10 UNL     1      24.366   3.522  49.383  1.00  0.00    -0.001 C 
HETATM   22  C11 UNL     1      23.618   4.548  48.970  1.00  0.00     0.026 C 
HETATM   23  C12 UNL     1      23.140   5.845  48.501  1.00  0.00     0.019 C 
HETATM   24  C14 UNL     1      24.422   7.007  50.106  1.00  0.00    -0.016 C 
ENDBRANCH  10  13
ENDBRANCH   1  10
BRANCH   3  25
HETATM   25  C18 UNL     1      31.304   7.595  48.095  1.00  0.00     0.061 C 
HETATM   26  C19 UNL     1      31.838   7.657  49.490  1.00  0.00     0.049 C 
HETATM   27  C20 UNL     1      31.965   6.143  49.433  1.00  0.00     0.056 C 
HETATM   28  C21 UNL     1      33.415   5.779  49.132  1.00  0.00     0.045 C 
HETATM   29  C22 UNL     1      31.147   6.111  48.137  1.00  0.00     0.049 C 
BRANCH  27  30
HETATM   30  O1  UNL     1      31.398   5.445  50.481  1.00  0.00    -0.390 OA
HETATM   31  H22 UNL     1      31.823   5.826  51.315  1.00  0.00     0.210 HD
ENDBRANCH  27  30
ENDBRANCH   3  25
BRANCH   8  32
HETATM   32  N4  UNL     1      26.912  11.591  47.453  1.00  0.00    -0.382 N 
HETATM   33  H27 UNL     1      26.535  12.223  46.711  1.00  0.00     0.157 HD
HETATM   34  H28 UNL     1      25.918  11.798  47.283  1.00  0.00     0.157 HD
ENDBRANCH   8  32
TORSDOF 5
ENDMDL
MODEL 7
REMARK VINA RESULT:      -8.7      1.692      2.806
REMARK  5 active torsions:
REMARK  status: ('A' for Active; 'I' for Inactive)
REMARK    1  A    between atoms: C3_3  and  C4_4 
REMARK    2  A    between atoms: C3_3  and  C16_16 
REMARK    3  A    between atoms: C17_18  and  C18_19 
REMARK    4  A    between atoms: C20_21  and  O1_23 
REMARK    5  A    between atoms: C25_29  and  N4_30 
ROOT
HETATM    1  C16 UNL     1      23.156   1.693  50.831  1.00  0.00     0.100 A 
HETATM    2  N1  UNL     1      24.405   1.557  51.344  1.00  0.00    -0.231 NA
HETATM    3  C17 UNL     1      24.418   0.863  52.475  1.00  0.00     0.116 A 
HETATM    4  N2  UNL     1      23.180   0.501  52.767  1.00  0.00    -0.303 N 
HETATM    5  C23 UNL     1      22.557  -0.208  53.720  1.00  0.00     0.118 A 
HETATM    6  C24 UNL     1      21.209  -0.474  53.770  1.00  0.00     0.136 A 
HETATM    7  N3  UNL     1      20.478   0.048  52.737  1.00  0.00    -0.240 NA
HETATM    8  C25 UNL     1      21.109   0.756  51.788  1.00  0.00     0.150 A 
HETATM    9  C26 UNL     1      22.441   1.004  51.772  1.00  0.00     0.116 A 
ENDROOT
BRANCH   1  10
HETATM   10  C3  UNL     1      22.957   2.393  49.583  1.00  0.00    -0.008 C 
HETATM   11  C2  UNL     1      22.232   1.980  48.543  1.00  0.00    -0.017 C 
HETATM   12  C1  UNL     1      22.190   2.756  47.278  1.00  0.00     0.037 C 
BRANCH  10  13
HETATM   13  C4  UNL     1      23.692   3.663  49.378  1.00  0.00     0.022 C 
HETATM   14  C5  UNL     1      23.663   4.979  49.489  1.00  0.00    -0.039 C 
HETATM   15  C6  UNL     1      22.524   5.721  50.018  1.00  0.00    -0.029 C 
HETATM   16  C13 UNL     1      24.779   5.780  49.033  1.00  0.00     0.042 C 
HETATM   17  C7  UNL     1      21.522   6.469  50.451  1.00  0.00     0.011 C 
HETATM   18  C15 UNL     1      23.661   6.640  50.508  1.00  0.00     0.009 C 
HETATM   19  C8  UNL     1      21.040   7.855  50.268  1.00  0.00    -0.003 C 
HETATM   20  C9  UNL     1      21.512   8.815  49.520  1.00  0.00    -0.026 C 
HETATM   21  C10 UNL     1      22.723   8.686  48.657  1.00  0.00    -0.001 C 
HETATM   22  C11 UNL     1      23.746   7.934  48.247  1.00  0.00     0.026 C 
HETATM   23  C12 UNL     1      24.716   6.862  48.046  1.00  0.00     0.019 C 
HETATM   24  C14 UNL     1      24.998   6.550  50.368  1.00  0.00    -0.016 C 
ENDBRANCH  10  13
ENDBRANCH   1  10
BRANCH   3  25
HETATM   25  C18 UNL     1      25.632   0.559  53.264  1.00  0.00     0.061 C 
HETATM   26  C19 UNL     1      26.870   0.198  52.507  1.00  0.00     0.049 C 
HETATM   27  C20 UNL     1      27.625   1.143  53.429  1.00  0.00     0.056 C 
HETATM   28  C21 UNL     1      28.318   0.326  54.514  1.00  0.00     0.045 C 
HETATM   29  C22 UNL     1      26.300   1.694  53.968  1.00  0.00     0.049 C 
BRANCH  27  30
HETATM   30  O1  UNL     1      28.424   2.085  52.813  1.00  0.00    -0.390 OA
HETATM   31  H22 UNL     1      28.572   2.803  53.508  1.00  0.00     0.210 HD
ENDBRANCH  27  30
ENDBRANCH   3  25
BRANCH   8  32
HETATM   32  N4  UNL     1      20.245   1.146  50.755  1.00  0.00    -0.382 N 
HETATM   33  H27 UNL     1      19.707   0.614  50.034  1.00  0.00     0.157 HD
HETATM   34  H28 UNL     1      19.632   1.554  50.036  1.00  0.00     0.157 HD
ENDBRANCH   8  32
TORSDOF 5
ENDMDL
MODEL 8
REMARK VINA RESULT:      -8.5      3.929      7.310
REMARK  5 active torsions:
REMARK  status: ('A' for Active; 'I' for Inactive)
REMARK    1  A    between atoms: C3_3  and  C4_4 
REMARK    2  A    between atoms: C3_3  and  C16_16 
REMARK    3  A    between atoms: C17_18  and  C18_19 
REMARK    4  A    between atoms: C20_21  and  O1_23 
REMARK    5  A    between atoms: C25_29  and  N4_30 
ROOT
HETATM    1  C16 UNL     1      26.602   4.799  49.358  1.00  0.00     0.100 A 
HETATM    2  N1  UNL     1      27.851   4.656  48.845  1.00  0.00    -0.231 NA
HETATM    3  C17 UNL     1      28.343   5.797  48.378  1.00  0.00     0.116 A 
HETATM    4  N2  UNL     1      27.448   6.753  48.559  1.00  0.00    -0.303 N 
HETATM    5  C23 UNL     1      27.354   8.073  48.338  1.00  0.00     0.118 A 
HETATM    6  C24 UNL     1      26.281   8.867  48.668  1.00  0.00     0.136 A 
HETATM    7  N3  UNL     1      25.242   8.213  49.274  1.00  0.00    -0.240 NA
HETATM    8  C25 UNL     1      25.344   6.893  49.491  1.00  0.00     0.150 A 
HETATM    9  C26 UNL     1      26.416   6.138  49.148  1.00  0.00     0.116 A 
ENDROOT
BRANCH   1  10
HETATM   10  C3  UNL     1      25.923   3.665  49.942  1.00  0.00    -0.008 C 
HETATM   11  C2  UNL     1      26.343   2.927  50.969  1.00  0.00    -0.017 C 
HETATM   12  C1  UNL     1      25.591   1.725  51.410  1.00  0.00     0.037 C 
BRANCH  10  13
HETATM   13  C4  UNL     1      24.671   3.203  49.298  1.00  0.00     0.022 C 
HETATM   14  C5  UNL     1      23.367   3.031  49.429  1.00  0.00    -0.039 C 
HETATM   15  C6  UNL     1      22.623   3.378  50.634  1.00  0.00    -0.029 C 
HETATM   16  C13 UNL     1      22.596   2.426  48.364  1.00  0.00     0.042 C 
HETATM   17  C7  UNL     1      21.881   3.632  51.700  1.00  0.00     0.011 C 
HETATM   18  C15 UNL     1      21.534   3.673  49.583  1.00  0.00     0.009 C 
HETATM   19  C8  UNL     1      20.607   3.152  52.280  1.00  0.00    -0.003 C 
HETATM   20  C9  UNL     1      19.793   2.222  51.860  1.00  0.00    -0.026 C 
HETATM   21  C10 UNL     1      20.006   1.419  50.621  1.00  0.00    -0.001 C 
HETATM   22  C11 UNL     1      20.745   1.189  49.534  1.00  0.00     0.026 C 
HETATM   23  C12 UNL     1      21.755   1.231  48.481  1.00  0.00     0.019 C 
HETATM   24  C14 UNL     1      21.546   3.569  48.239  1.00  0.00    -0.016 C 
ENDBRANCH  10  13
ENDBRANCH   1  10
BRANCH   3  25
HETATM   25  C18 UNL     1      29.677   5.948  47.756  1.00  0.00     0.061 C 
HETATM   26  C19 UNL     1      30.747   6.593  48.577  1.00  0.00     0.049 C 
HETATM   27  C20 UNL     1      31.675   5.480  48.116  1.00  0.00     0.056 C 
HETATM   28  C21 UNL     1      32.544   6.001  46.976  1.00  0.00     0.045 C 
HETATM   29  C22 UNL     1      30.481   4.708  47.540  1.00  0.00     0.049 C 
BRANCH  27  30
HETATM   30  O1  UNL     1      32.361   4.809  49.108  1.00  0.00    -0.390 OA
HETATM   31  H22 UNL     1      33.191   5.361  49.276  1.00  0.00     0.210 HD
ENDBRANCH  27  30
ENDBRANCH   3  25
BRANCH   8  32
HETATM   32  N4  UNL     1      24.244   6.385  50.197  1.00  0.00    -0.382 N 
HETATM   33  H27 UNL     1      24.027   6.298  51.215  1.00  0.00     0.157 HD
HETATM   34  H28 UNL     1      23.385   5.987  50.600  1.00  0.00     0.157 HD
ENDBRANCH   8  32
TORSDOF 5
ENDMDL
MODEL 9
REMARK VINA RESULT:      -8.4      2.699      5.258
REMARK  5 active torsions:
REMARK  status: ('A' for Active; 'I' for Inactive)
REMARK    1  A    between atoms: C3_3  and  C4_4 
REMARK    2  A    between atoms: C3_3  and  C16_16 
REMARK    3  A    between atoms: C17_18  and  C18_19 
REMARK    4  A    between atoms: C20_21  and  O1_23 
REMARK    5  A    between atoms: C25_29  and  N4_30 
ROOT
HETATM    1  C16 UNL     1      24.713   2.396  50.909  1.00  0.00     0.100 A 
HETATM    2  N1  UNL     1      23.423   2.030  50.701  1.00  0.00    -0.231 NA
HETATM    3  C17 UNL     1      23.002   1.126  51.577  1.00  0.00     0.116 A 
HETATM    4  N2  UNL     1      23.990   0.849  52.411  1.00  0.00    -0.303 N 
HETATM    5  C23 UNL     1      24.186   0.073  53.487  1.00  0.00     0.118 A 
HETATM    6  C24 UNL     1      25.347  -0.004  54.220  1.00  0.00     0.136 A 
HETATM    7  N3  UNL     1      26.364   0.798  53.778  1.00  0.00    -0.240 NA
HETATM    8  C25 UNL     1      26.160   1.571  52.700  1.00  0.00     0.150 A 
HETATM    9  C26 UNL     1      25.003   1.619  51.997  1.00  0.00     0.116 A 
ENDROOT
BRANCH   1  10
HETATM   10  C3  UNL     1      25.328   3.398  50.069  1.00  0.00    -0.008 C 
HETATM   11  C2  UNL     1      26.601   3.438  49.674  1.00  0.00    -0.017 C 
HETATM   12  C1  UNL     1      27.126   4.582  48.887  1.00  0.00     0.037 C 
BRANCH  10  13
HETATM   13  C4  UNL     1      24.501   4.557  49.659  1.00  0.00     0.022 C 
HETATM   14  C5  UNL     1      23.545   4.997  48.860  1.00  0.00    -0.039 C 
HETATM   15  C6  UNL     1      22.859   4.159  47.883  1.00  0.00    -0.029 C 
HETATM   16  C13 UNL     1      23.149   6.388  48.885  1.00  0.00     0.042 C 
HETATM   17  C7  UNL     1      22.215   3.477  46.949  1.00  0.00     0.011 C 
HETATM   18  C15 UNL     1      21.696   5.102  48.252  1.00  0.00     0.009 C 
HETATM   19  C8  UNL     1      21.502   3.767  45.686  1.00  0.00    -0.003 C 
HETATM   20  C9  UNL     1      21.320   4.902  45.068  1.00  0.00    -0.026 C 
HETATM   21  C10 UNL     1      21.825   6.216  45.563  1.00  0.00    -0.001 C 
HETATM   22  C11 UNL     1      22.451   6.900  46.522  1.00  0.00     0.026 C 
HETATM   23  C12 UNL     1      23.149   7.304  47.739  1.00  0.00     0.019 C 
HETATM   24  C14 UNL     1      21.631   6.134  49.116  1.00  0.00    -0.016 C 
ENDBRANCH  10  13
ENDBRANCH   1  10
BRANCH   3  25
HETATM   25  C18 UNL     1      21.645   0.537  51.595  1.00  0.00     0.061 C 
HETATM   26  C19 UNL     1      20.737   0.941  52.712  1.00  0.00     0.049 C 
HETATM   27  C20 UNL     1      19.646   1.119  51.667  1.00  0.00     0.056 C 
HETATM   28  C21 UNL     1      18.747  -0.113  51.676  1.00  0.00     0.045 C 
HETATM   29  C22 UNL     1      20.684   0.988  50.545  1.00  0.00     0.049 C 
BRANCH  27  30
HETATM   30  O1  UNL     1      18.977   2.325  51.685  1.00  0.00    -0.390 OA
HETATM   31  H22 UNL     1      18.577   2.420  50.761  1.00  0.00     0.210 HD
ENDBRANCH  27  30
ENDBRANCH   3  25
BRANCH   8  32
HETATM   32  N4  UNL     1      27.259   2.398  52.426  1.00  0.00    -0.382 N 
HETATM   33  H27 UNL     1      27.553   2.939  51.581  1.00  0.00     0.157 HD
HETATM   34  H28 UNL     1      28.104   2.980  52.345  1.00  0.00     0.157 HD
ENDBRANCH   8  32
TORSDOF 5
ENDMDL
