MODEL 1
REMARK VINA RESULT:      -7.1      0.000      0.000
REMARK  5 active torsions:
REMARK  status: ('A' for Active; 'I' for Inactive)
REMARK    1  A    between atoms: C2_2  and  O1_3 
REMARK    2  A    between atoms: O1_3  and  C3_4 
REMARK    3  A    between atoms: N1_6  and  C5_7 
REMARK    4  A    between atoms: C10_14  and  O2_15 
REMARK    5  A    between atoms: C14_20  and  O4_21 
ROOT
HETATM    1  C5  UNL     1      26.207   1.336  52.740  1.00  0.00     0.126 C 
HETATM    2  C6  UNL     1      27.361   2.071  52.960  1.00  0.00     0.202 C 
HETATM    3  C7  UNL     1      28.648   1.414  53.425  1.00  0.00     0.121 C 
HETATM    4  N2  UNL     1      29.698   0.672  53.837  1.00  0.00    -0.195 NA
HETATM    5  N3  UNL     1      29.327  -0.734  53.958  1.00  0.00    -0.307 N 
HETATM    6  C8  UNL     1      28.230  -1.164  53.188  1.00  0.00     0.135 C 
HETATM    7  C9  UNL     1      27.069  -1.407  52.713  1.00  0.00     0.078 C 
HETATM    8  C10 UNL     1      25.713  -1.027  53.212  1.00  0.00     0.268 C 
HETATM    9  O3  UNL     1      25.296   0.204  52.647  1.00  0.00    -0.335 OA
HETATM   10  H9  UNL     1      30.102  -0.325  54.469  1.00  0.00     0.182 HD
ENDROOT
BRANCH   1  11
HETATM   11  N1  UNL     1      25.400   2.440  52.346  1.00  0.00    -0.336 N 
HETATM   12  C4  UNL     1      25.840   2.983  51.072  1.00  0.00     0.128 A 
HETATM   13  C3  UNL     1      25.209   4.030  50.520  1.00  0.00     0.094 A 
HETATM   14  C14 UNL     1      24.060   4.708  51.120  1.00  0.00     0.203 A 
HETATM   15  C13 UNL     1      23.710   4.070  52.406  1.00  0.00     0.029 A 
HETATM   16  C12 UNL     1      24.299   3.041  52.985  1.00  0.00     0.092 A 
BRANCH  13  17
HETATM   17  O1  UNL     1      25.672   4.514  49.288  1.00  0.00    -0.351 OA
BRANCH  17  18
HETATM   18  C2  UNL     1      27.050   4.497  48.972  1.00  0.00     0.171 C 
HETATM   19  C1  UNL     1      27.596   5.799  48.493  1.00  0.00     0.034 C 
ENDBRANCH  17  18
ENDBRANCH  13  17
BRANCH  14  20
HETATM   20  O4  UNL     1      24.232   6.083  51.275  1.00  0.00    -0.380 OA
HETATM   21  C15 UNL     1      23.094   6.757  50.771  1.00  0.00     0.202 C 
ENDBRANCH  14  20
ENDBRANCH   1  11
BRANCH   8  22
HETATM   22  O2  UNL     1      25.850  -0.806  54.574  1.00  0.00    -0.366 OA
HETATM   23  C11 UNL     1      24.703  -1.019  55.304  1.00  0.00     0.204 C 
ENDBRANCH   8  22
TORSDOF 5
ENDMDL
MODEL 2
REMARK VINA RESULT:      -6.9      2.166      6.313
REMARK  5 active torsions:
REMARK  status: ('A' for Active; 'I' for Inactive)
REMARK    1  A    between atoms: C2_2  and  O1_3 
REMARK    2  A    between atoms: O1_3  and  C3_4 
REMARK    3  A    between atoms: N1_6  and  C5_7 
REMARK    4  A    between atoms: C10_14  and  O2_15 
REMARK    5  A    between atoms: C14_20  and  O4_21 
ROOT
HETATM    1  C5  UNL     1      24.930   3.138  51.610  1.00  0.00     0.126 C 
HETATM    2  C6  UNL     1      26.074   2.927  50.856  1.00  0.00     0.202 C 
HETATM    3  C7  UNL     1      26.506   3.901  49.774  1.00  0.00     0.121 C 
HETATM    4  N2  UNL     1      26.741   4.862  48.856  1.00  0.00    -0.195 NA
HETATM    5  N3  UNL     1      25.698   5.882  48.893  1.00  0.00    -0.307 N 
HETATM    6  C8  UNL     1      24.986   6.012  50.100  1.00  0.00     0.135 C 
HETATM    7  C9  UNL     1      24.196   5.870  51.093  1.00  0.00     0.078 C 
HETATM    8  C10 UNL     1      23.160   4.830  51.373  1.00  0.00     0.268 C 
HETATM    9  O3  UNL     1      23.713   3.757  52.115  1.00  0.00    -0.335 OA
HETATM   10  H9  UNL     1      26.268   5.709  48.071  1.00  0.00     0.182 HD
ENDROOT
BRANCH   1  11
HETATM   11  N1  UNL     1      25.054   1.962  52.400  1.00  0.00    -0.336 N 
HETATM   12  C4  UNL     1      26.274   1.985  53.188  1.00  0.00     0.128 A 
HETATM   13  C3  UNL     1      26.581   0.967  54.006  1.00  0.00     0.094 A 
HETATM   14  C14 UNL     1      25.751  -0.226  54.182  1.00  0.00     0.203 A 
HETATM   15  C13 UNL     1      24.546  -0.135  53.332  1.00  0.00     0.029 A 
HETATM   16  C12 UNL     1      24.205   0.845  52.515  1.00  0.00     0.092 A 
BRANCH  13  17
HETATM   17  O1  UNL     1      27.769   1.040  54.746  1.00  0.00    -0.351 OA
BRANCH  17  18
HETATM   18  C2  UNL     1      29.013   1.243  54.106  1.00  0.00     0.171 C 
HETATM   19  C1  UNL     1      29.729  -0.008  53.723  1.00  0.00     0.034 C 
ENDBRANCH  17  18
ENDBRANCH  13  17
BRANCH  14  20
HETATM   20  O4  UNL     1      26.430  -1.424  53.959  1.00  0.00    -0.380 OA
HETATM   21  C15 UNL     1      26.667  -1.577  52.573  1.00  0.00     0.202 C 
ENDBRANCH  14  20
ENDBRANCH   1  11
BRANCH   8  22
HETATM   22  O2  UNL     1      22.795   4.306  50.142  1.00  0.00    -0.366 OA
HETATM   23  C11 UNL     1      21.559   3.701  50.124  1.00  0.00     0.204 C 
ENDBRANCH   8  22
TORSDOF 5
ENDMDL
MODEL 3
REMARK VINA RESULT:      -6.8      2.356      3.788
REMARK  5 active torsions:
REMARK  status: ('A' for Active; 'I' for Inactive)
REMARK    1  A    between atoms: C2_2  and  O1_3 
REMARK    2  A    between atoms: O1_3  and  C3_4 
REMARK    3  A    between atoms: N1_6  and  C5_7 
REMARK    4  A    between atoms: C10_14  and  O2_15 
REMARK    5  A    between atoms: C14_20  and  O4_21 
ROOT
HETATM    1  C5  UNL     1      26.111   1.164  52.394  1.00  0.00     0.126 C 
HETATM    2  C6  UNL     1      26.746   2.366  52.661  1.00  0.00     0.202 C 
HETATM    3  C7  UNL     1      28.000   2.432  53.515  1.00  0.00     0.121 C 
HETATM    4  N2  UNL     1      29.098   2.309  54.290  1.00  0.00    -0.195 NA
HETATM    5  N3  UNL     1      29.320   0.915  54.661  1.00  0.00    -0.307 N 
HETATM    6  C8  UNL     1      28.764  -0.058  53.811  1.00  0.00     0.135 C 
HETATM    7  C9  UNL     1      27.993  -0.861  53.185  1.00  0.00     0.078 C 
HETATM    8  C10 UNL     1      26.520  -1.086  53.300  1.00  0.00     0.268 C 
HETATM    9  O3  UNL     1      25.813  -0.261  52.390  1.00  0.00    -0.335 OA
HETATM   10  H9  UNL     1      29.679   1.692  55.207  1.00  0.00     0.182 HD
ENDROOT
BRANCH   1  11
HETATM   11  N1  UNL     1      25.069   1.719  51.600  1.00  0.00    -0.336 N 
HETATM   12  C4  UNL     1      23.779   1.156  51.958  1.00  0.00     0.128 A 
HETATM   13  C3  UNL     1      22.662   1.547  51.327  1.00  0.00     0.094 A 
HETATM   14  C14 UNL     1      22.628   2.544  50.256  1.00  0.00     0.203 A 
HETATM   15  C13 UNL     1      23.992   3.040  49.983  1.00  0.00     0.029 A 
HETATM   16  C12 UNL     1      25.116   2.684  50.576  1.00  0.00     0.092 A 
BRANCH  13  17
HETATM   17  O1  UNL     1      21.442   0.974  51.712  1.00  0.00    -0.351 OA
BRANCH  17  18
HETATM   18  C2  UNL     1      21.394  -0.040  52.697  1.00  0.00     0.171 C 
HETATM   19  C1  UNL     1      20.747   0.366  53.978  1.00  0.00     0.034 C 
ENDBRANCH  17  18
ENDBRANCH  13  17
BRANCH  14  20
HETATM   20  O4  UNL     1      22.015   2.095  49.086  1.00  0.00    -0.380 OA
HETATM   21  C15 UNL     1      22.505   2.841  47.987  1.00  0.00     0.202 C 
ENDBRANCH  14  20
ENDBRANCH   1  11
BRANCH   8  22
HETATM   22  O2  UNL     1      26.163  -0.663  54.571  1.00  0.00    -0.366 OA
HETATM   23  C11 UNL     1      24.871  -0.973  54.931  1.00  0.00     0.204 C 
ENDBRANCH   8  22
TORSDOF 5
ENDMDL
MODEL 4
REMARK VINA RESULT:      -6.8      2.679      3.460
REMARK  5 active torsions:
REMARK  status: ('A' for Active; 'I' for Inactive)
REMARK    1  A    between atoms: C2_2  and  O1_3 
REMARK    2  A    between atoms: O1_3  and  C3_4 
REMARK    3  A    between atoms: N1_6  and  C5_7 
REMARK    4  A    between atoms: C10_14  and  O2_15 
REMARK    5  A    between atoms: C14_20  and  O4_21 
ROOT
HETATM    1  C5  UNL     1      24.099   0.516  52.734  1.00  0.00     0.126 C 
HETATM    2  C6  UNL     1      22.897   0.099  53.283  1.00  0.00     0.202 C 
HETATM    3  C7  UNL     1      22.847  -0.762  54.531  1.00  0.00     0.121 C 
HETATM    4  N2  UNL     1      22.985  -1.524  55.638  1.00  0.00    -0.195 NA
HETATM    5  N3  UNL     1      24.395  -1.721  55.961  1.00  0.00    -0.307 N 
HETATM    6  C8  UNL     1      25.294  -0.754  55.473  1.00  0.00     0.135 C 
HETATM    7  C9  UNL     1      26.067  -0.030  54.759  1.00  0.00     0.078 C 
HETATM    8  C10 UNL     1      26.408  -0.108  53.306  1.00  0.00     0.268 C 
HETATM    9  O3  UNL     1      25.530   0.698  52.539  1.00  0.00    -0.335 OA
HETATM   10  H9  UNL     1      23.667  -2.360  56.265  1.00  0.00     0.182 HD
ENDROOT
BRANCH   1  11
HETATM   11  N1  UNL     1      23.526   1.242  51.654  1.00  0.00    -0.336 N 
HETATM   12  C4  UNL     1      24.466   2.209  51.113  1.00  0.00     0.128 A 
HETATM   13  C3  UNL     1      24.122   2.997  50.084  1.00  0.00     0.094 A 
HETATM   14  C14 UNL     1      22.816   2.967  49.424  1.00  0.00     0.203 A 
HETATM   15  C13 UNL     1      21.952   1.951  50.059  1.00  0.00     0.029 A 
HETATM   16  C12 UNL     1      22.247   1.155  51.070  1.00  0.00     0.092 A 
BRANCH  13  17
HETATM   17  O1  UNL     1      25.068   3.912  49.599  1.00  0.00    -0.351 OA
BRANCH  17  18
HETATM   18  C2  UNL     1      26.451   3.625  49.653  1.00  0.00     0.171 C 
HETATM   19  C1  UNL     1      27.314   4.570  48.887  1.00  0.00     0.034 C 
ENDBRANCH  17  18
ENDBRANCH  13  17
BRANCH  14  20
HETATM   20  O4  UNL     1      22.179   4.206  49.375  1.00  0.00    -0.380 OA
HETATM   21  C15 UNL     1      22.055   4.615  48.026  1.00  0.00     0.202 C 
ENDBRANCH  14  20
ENDBRANCH   1  11
BRANCH   8  22
HETATM   22  O2  UNL     1      26.171  -1.419  52.923  1.00  0.00    -0.366 OA
HETATM   23  C11 UNL     1      27.305  -2.134  52.608  1.00  0.00     0.204 C 
ENDBRANCH   8  22
TORSDOF 5
ENDMDL
MODEL 5
REMARK VINA RESULT:      -6.8      2.401      6.662
REMARK  5 active torsions:
REMARK  status: ('A' for Active; 'I' for Inactive)
REMARK    1  A    between atoms: C2_2  and  O1_3 
REMARK    2  A    between atoms: O1_3  and  C3_4 
REMARK    3  A    between atoms: N1_6  and  C5_7 
REMARK    4  A    between atoms: C10_14  and  O2_15 
REMARK    5  A    between atoms: C14_20  and  O4_21 
ROOT
HETATM    1  C5  UNL     1      25.349   3.027  51.063  1.00  0.00     0.126 C 
HETATM    2  C6  UNL     1      26.512   3.000  50.311  1.00  0.00     0.202 C 
HETATM    3  C7  UNL     1      26.872   4.128  49.360  1.00  0.00     0.121 C 
HETATM    4  N2  UNL     1      27.035   5.208  48.567  1.00  0.00    -0.195 NA
HETATM    5  N3  UNL     1      25.912   6.130  48.706  1.00  0.00    -0.307 N 
HETATM    6  C8  UNL     1      25.182   6.056  49.907  1.00  0.00     0.135 C 
HETATM    7  C9  UNL     1      24.398   5.733  50.862  1.00  0.00     0.078 C 
HETATM    8  C10 UNL     1      23.448   4.587  50.997  1.00  0.00     0.268 C 
HETATM    9  O3  UNL     1      24.081   3.481  51.617  1.00  0.00    -0.335 OA
HETATM   10  H9  UNL     1      26.501   6.103  47.880  1.00  0.00     0.182 HD
ENDROOT
BRANCH   1  11
HETATM   11  N1  UNL     1      25.562   1.778  51.710  1.00  0.00    -0.336 N 
HETATM   12  C4  UNL     1      24.389   1.371  52.464  1.00  0.00     0.128 A 
HETATM   13  C3  UNL     1      24.380   0.217  53.148  1.00  0.00     0.094 A 
HETATM   14  C14 UNL     1      25.508  -0.714  53.205  1.00  0.00     0.203 A 
HETATM   15  C13 UNL     1      26.635  -0.193  52.406  1.00  0.00     0.029 A 
HETATM   16  C12 UNL     1      26.688   0.933  51.718  1.00  0.00     0.092 A 
BRANCH  13  17
HETATM   17  O1  UNL     1      23.221  -0.130  53.857  1.00  0.00    -0.351 OA
BRANCH  17  18
HETATM   18  C2  UNL     1      22.206  -0.908  53.255  1.00  0.00     0.171 C 
HETATM   19  C1  UNL     1      21.182  -1.437  54.201  1.00  0.00     0.034 C 
ENDBRANCH  17  18
ENDBRANCH  13  17
BRANCH  14  20
HETATM   20  O4  UNL     1      25.916  -1.028  54.501  1.00  0.00    -0.380 OA
HETATM   21  C15 UNL     1      26.553   0.097  55.076  1.00  0.00     0.202 C 
ENDBRANCH  14  20
ENDBRANCH   1  11
BRANCH   8  22
HETATM   22  O2  UNL     1      23.138   4.187  49.707  1.00  0.00    -0.366 OA
HETATM   23  C11 UNL     1      21.987   3.439  49.604  1.00  0.00     0.204 C 
ENDBRANCH   8  22
TORSDOF 5
ENDMDL
MODEL 6
REMARK VINA RESULT:      -6.7      2.918      4.678
REMARK  5 active torsions:
REMARK  status: ('A' for Active; 'I' for Inactive)
REMARK    1  A    between atoms: C2_2  and  O1_3 
REMARK    2  A    between atoms: O1_3  and  C3_4 
REMARK    3  A    between atoms: N1_6  and  C5_7 
REMARK    4  A    between atoms: C10_14  and  O2_15 
REMARK    5  A    between atoms: C14_20  and  O4_21 
ROOT
HETATM    1  C5  UNL     1      25.848   0.414  53.253  1.00  0.00     0.126 C 
HETATM    2  C6  UNL     1      26.289  -0.896  53.169  1.00  0.00     0.202 C 
HETATM    3  C7  UNL     1      27.767  -1.242  53.182  1.00  0.00     0.121 C 
HETATM    4  N2  UNL     1      29.111  -1.369  53.206  1.00  0.00    -0.195 NA
HETATM    5  N3  UNL     1      29.756  -0.063  53.302  1.00  0.00    -0.307 N 
HETATM    6  C8  UNL     1      28.987   0.979  53.855  1.00  0.00     0.135 C 
HETATM    7  C9  UNL     1      28.154   1.922  54.074  1.00  0.00     0.078 C 
HETATM    8  C10 UNL     1      27.111   2.524  53.190  1.00  0.00     0.268 C 
HETATM    9  O3  UNL     1      25.867   1.866  53.361  1.00  0.00    -0.335 OA
HETATM   10  H9  UNL     1      30.222  -0.879  52.919  1.00  0.00     0.182 HD
ENDROOT
BRANCH   1  11
HETATM   11  N1  UNL     1      24.460   0.108  53.193  1.00  0.00    -0.336 N 
HETATM   12  C4  UNL     1      23.797   0.877  52.154  1.00  0.00     0.128 A 
HETATM   13  C3  UNL     1      22.482   0.735  51.930  1.00  0.00     0.094 A 
HETATM   14  C14 UNL     1      21.612  -0.172  52.680  1.00  0.00     0.203 A 
HETATM   15  C13 UNL     1      22.396  -0.894  53.703  1.00  0.00     0.029 A 
HETATM   16  C12 UNL     1      23.687  -0.787  53.958  1.00  0.00     0.092 A 
BRANCH  13  17
HETATM   17  O1  UNL     1      21.891   1.500  50.914  1.00  0.00    -0.351 OA
BRANCH  17  18
HETATM   18  C2  UNL     1      21.319   0.881  49.779  1.00  0.00     0.171 C 
HETATM   19  C1  UNL     1      21.723   1.478  48.473  1.00  0.00     0.034 C 
ENDBRANCH  17  18
ENDBRANCH  13  17
BRANCH  14  20
HETATM   20  O4  UNL     1      20.501   0.450  53.248  1.00  0.00    -0.380 OA
HETATM   21  C15 UNL     1      19.430  -0.473  53.310  1.00  0.00     0.202 C 
ENDBRANCH  14  20
ENDBRANCH   1  11
BRANCH   8  22
HETATM   22  O2  UNL     1      27.512   2.270  51.888  1.00  0.00    -0.366 OA
HETATM   23  C11 UNL     1      26.719   2.849  50.924  1.00  0.00     0.204 C 
ENDBRANCH   8  22
TORSDOF 5
ENDMDL
MODEL 7
REMARK VINA RESULT:      -6.6      1.802      2.302
REMARK  5 active torsions:
REMARK  status: ('A' for Active; 'I' for Inactive)
REMARK    1  A    between atoms: C2_2  and  O1_3 
REMARK    2  A    between atoms: O1_3  and  C3_4 
REMARK    3  A    between atoms: N1_6  and  C5_7 
REMARK    4  A    between atoms: C10_14  and  O2_15 
REMARK    5  A    between atoms: C14_20  and  O4_21 
ROOT
HETATM    1  C5  UNL     1      25.831   1.397  52.915  1.00  0.00     0.126 C 
HETATM    2  C6  UNL     1      26.726   2.353  53.369  1.00  0.00     0.202 C 
HETATM    3  C7  UNL     1      28.058   1.969  53.987  1.00  0.00     0.121 C 
HETATM    4  N2  UNL     1      29.191   1.453  54.510  1.00  0.00    -0.195 NA
HETATM    5  N3  UNL     1      29.166  -0.006  54.470  1.00  0.00    -0.307 N 
HETATM    6  C8  UNL     1      28.326  -0.595  53.506  1.00  0.00     0.135 C 
HETATM    7  C9  UNL     1      27.340  -1.050  52.835  1.00  0.00     0.078 C 
HETATM    8  C10 UNL     1      25.876  -1.053  53.135  1.00  0.00     0.268 C 
HETATM    9  O3  UNL     1      25.250   0.100  52.598  1.00  0.00    -0.335 OA
HETATM   10  H9  UNL     1      29.737   0.516  55.127  1.00  0.00     0.182 HD
ENDROOT
BRANCH   1  11
HETATM   11  N1  UNL     1      24.840   2.317  52.476  1.00  0.00    -0.336 N 
HETATM   12  C4  UNL     1      24.532   2.125  51.069  1.00  0.00     0.128 A 
HETATM   13  C3  UNL     1      23.618   2.893  50.456  1.00  0.00     0.094 A 
HETATM   14  C14 UNL     1      22.866   3.961  51.115  1.00  0.00     0.203 A 
HETATM   15  C13 UNL     1      23.265   4.060  52.534  1.00  0.00     0.029 A 
HETATM   16  C12 UNL     1      24.155   3.328  53.177  1.00  0.00     0.092 A 
BRANCH  13  17
HETATM   17  O1  UNL     1      23.358   2.665  49.097  1.00  0.00    -0.351 OA
BRANCH  17  18
HETATM   18  C2  UNL     1      22.049   2.379  48.647  1.00  0.00     0.171 C 
HETATM   19  C1  UNL     1      21.494   1.080  49.127  1.00  0.00     0.034 C 
ENDBRANCH  17  18
ENDBRANCH  13  17
BRANCH  14  20
HETATM   20  O4  UNL     1      22.967   5.198  50.480  1.00  0.00    -0.380 OA
HETATM   21  C15 UNL     1      22.102   6.121  51.115  1.00  0.00     0.202 C 
ENDBRANCH  14  20
ENDBRANCH   1  11
BRANCH   8  22
HETATM   22  O2  UNL     1      25.764  -0.952  54.514  1.00  0.00    -0.366 OA
HETATM   23  C11 UNL     1      24.482  -1.100  54.993  1.00  0.00     0.204 C 
ENDBRANCH   8  22
TORSDOF 5
ENDMDL
MODEL 8
REMARK VINA RESULT:      -6.4      2.452      7.163
REMARK  5 active torsions:
REMARK  status: ('A' for Active; 'I' for Inactive)
REMARK    1  A    between atoms: C2_2  and  O1_3 
REMARK    2  A    between atoms: O1_3  and  C3_4 
REMARK    3  A    between atoms: N1_6  and  C5_7 
REMARK    4  A    between atoms: C10_14  and  O2_15 
REMARK    5  A    between atoms: C14_20  and  O4_21 
ROOT
HETATM    1  C5  UNL     1      24.346   2.347  51.033  1.00  0.00     0.126 C 
HETATM    2  C6  UNL     1      23.168   1.617  51.030  1.00  0.00     0.202 C 
HETATM    3  C7  UNL     1      21.924   2.113  50.315  1.00  0.00     0.121 C 
HETATM    4  N2  UNL     1      20.918   2.701  49.634  1.00  0.00    -0.195 NA
HETATM    5  N3  UNL     1      21.343   3.984  49.083  1.00  0.00    -0.307 N 
HETATM    6  C8  UNL     1      22.725   4.154  48.878  1.00  0.00     0.135 C 
HETATM    7  C9  UNL     1      23.981   4.350  49.003  1.00  0.00     0.078 C 
HETATM    8  C10 UNL     1      24.808   4.621  50.217  1.00  0.00     0.268 C 
HETATM    9  O3  UNL     1      25.302   3.412  50.769  1.00  0.00    -0.335 OA
HETATM   10  H9  UNL     1      20.370   3.761  49.268  1.00  0.00     0.182 HD
ENDROOT
BRANCH   1  11
HETATM   11  N1  UNL     1      25.092   1.422  51.816  1.00  0.00    -0.336 N 
HETATM   12  C4  UNL     1      24.238   0.729  52.765  1.00  0.00     0.128 A 
HETATM   13  C3  UNL     1      24.746  -0.190  53.600  1.00  0.00     0.094 A 
HETATM   14  C14 UNL     1      26.157  -0.575  53.639  1.00  0.00     0.203 A 
HETATM   15  C13 UNL     1      26.920   0.195  52.635  1.00  0.00     0.029 A 
HETATM   16  C12 UNL     1      26.463   1.105  51.795  1.00  0.00     0.092 A 
BRANCH  13  17
HETATM   17  O1  UNL     1      23.878  -0.831  54.495  1.00  0.00    -0.351 OA
BRANCH  17  18
HETATM   18  C2  UNL     1      22.490  -0.565  54.478  1.00  0.00     0.171 C 
HETATM   19  C1  UNL     1      21.625  -1.771  54.330  1.00  0.00     0.034 C 
ENDBRANCH  17  18
ENDBRANCH  13  17
BRANCH  14  20
HETATM   20  O4  UNL     1      26.739  -0.463  54.902  1.00  0.00    -0.380 OA
HETATM   21  C15 UNL     1      28.046   0.064  54.770  1.00  0.00     0.202 C 
ENDBRANCH  14  20
ENDBRANCH   1  11
BRANCH   8  22
HETATM   22  O2  UNL     1      23.946   5.157  51.161  1.00  0.00    -0.366 OA
HETATM   23  C11 UNL     1      24.102   6.509  51.371  1.00  0.00     0.204 C 
ENDBRANCH   8  22
TORSDOF 5
ENDMDL
MODEL 9
REMARK VINA RESULT:      -6.4      1.772      2.350
REMARK  5 active torsions:
REMARK  status: ('A' for Active; 'I' for Inactive)
REMARK    1  A    between atoms: C2_2  and  O1_3 
REMARK    2  A    between atoms: O1_3  and  C3_4 
REMARK    3  A    between atoms: N1_6  and  C5_7 
REMARK    4  A    between atoms: C10_14  and  O2_15 
REMARK    5  A    between atoms: C14_20  and  O4_21 
ROOT
HETATM    1  C5  UNL     1      25.501   1.224  52.800  1.00  0.00     0.126 C 
HETATM    2  C6  UNL     1      26.184   2.409  53.022  1.00  0.00     0.202 C 
HETATM    3  C7  UNL     1      27.565   2.428  53.652  1.00  0.00     0.121 C 
HETATM    4  N2  UNL     1      28.778   2.262  54.222  1.00  0.00    -0.195 NA
HETATM    5  N3  UNL     1      29.047   0.849  54.471  1.00  0.00    -0.307 N 
HETATM    6  C8  UNL     1      28.345  -0.075  53.675  1.00  0.00     0.135 C 
HETATM    7  C9  UNL     1      27.472  -0.842  53.145  1.00  0.00     0.078 C 
HETATM    8  C10 UNL     1      26.038  -1.073  53.496  1.00  0.00     0.268 C 
HETATM    9  O3  UNL     1      25.194  -0.199  52.767  1.00  0.00    -0.335 OA
HETATM   10  H9  UNL     1      29.500   1.595  54.990  1.00  0.00     0.182 HD
ENDROOT
BRANCH   1  11
HETATM   11  N1  UNL     1      24.346   1.823  52.226  1.00  0.00    -0.336 N 
HETATM   12  C4  UNL     1      24.403   3.272  52.324  1.00  0.00     0.128 A 
HETATM   13  C3  UNL     1      23.408   4.031  51.839  1.00  0.00     0.094 A 
HETATM   14  C14 UNL     1      22.210   3.499  51.189  1.00  0.00     0.203 A 
HETATM   15  C13 UNL     1      22.266   2.024  51.151  1.00  0.00     0.029 A 
HETATM   16  C12 UNL     1      23.222   1.239  51.613  1.00  0.00     0.092 A 
BRANCH  13  17
HETATM   17  O1  UNL     1      23.513   5.424  51.957  1.00  0.00    -0.351 OA
BRANCH  17  18
HETATM   18  C2  UNL     1      24.202   6.185  50.985  1.00  0.00     0.171 C 
HETATM   19  C1  UNL     1      23.777   7.612  50.895  1.00  0.00     0.034 C 
ENDBRANCH  17  18
ENDBRANCH  13  17
BRANCH  14  20
HETATM   20  O4  UNL     1      21.015   3.939  51.758  1.00  0.00    -0.380 OA
HETATM   21  C15 UNL     1      20.257   4.627  50.781  1.00  0.00     0.202 C 
ENDBRANCH  14  20
ENDBRANCH   1  11
BRANCH   8  22
HETATM   22  O2  UNL     1      25.905  -0.723  54.831  1.00  0.00    -0.366 OA
HETATM   23  C11 UNL     1      24.736  -1.150  55.418  1.00  0.00     0.204 C 
ENDBRANCH   8  22
TORSDOF 5
ENDMDL
