MODEL 1
REMARK VINA RESULT:      -7.7      0.000      0.000
REMARK  6 active torsions:
REMARK  status: ('A' for Active; 'I' for Inactive)
REMARK    1  A    between atoms: C3_3  and  C4_4 
REMARK    2  A    between atoms: C4_4  and  C5_5 
REMARK    3  A    between atoms: C6_7  and  C7_8 
REMARK    4  A    between atoms: N2_16  and  O1_17 
REMARK    5  A    between atoms: O1_17  and  C13_18 
REMARK    6  A    between atoms: C14_20  and  O2_21 
ROOT
HETATM    1  C1  UNL     1      21.327   0.472  53.855  1.00  0.00     0.112 C 
HETATM    2  C2  UNL     1      22.228   0.892  52.788  1.00  0.00    -0.111 C 
HETATM    3  C3  UNL     1      22.960   1.237  51.892  1.00  0.00    -0.104 C 
ENDROOT
BRANCH   3   4
HETATM    4  C4  UNL     1      23.836   1.678  50.806  1.00  0.00     0.134 C 
BRANCH   4   5
HETATM    5  C5  UNL     1      24.662   2.841  51.320  1.00  0.00     0.215 A 
HETATM    6  S1  UNL     1      24.390   4.316  50.288  1.00  0.00    -0.077 SA
HETATM    7  C6  UNL     1      26.094   4.500  49.756  1.00  0.00     0.128 A 
HETATM    8  N1  UNL     1      26.826   3.550  50.238  1.00  0.00    -0.142 NA
HETATM    9  N2  UNL     1      26.080   2.667  51.025  1.00  0.00    -0.151 N 
BRANCH   7  10
HETATM   10  C7  UNL     1      26.587   5.572  48.899  1.00  0.00     0.001 A 
HETATM   11  C8  UNL     1      25.727   6.552  48.450  1.00  0.00     0.016 A 
HETATM   12  C9  UNL     1      26.193   7.571  47.635  1.00  0.00     0.020 A 
HETATM   13  C10 UNL     1      27.514   7.586  47.288  1.00  0.00     0.011 A 
HETATM   14 BR1  UNL     1      28.235   8.970  46.160  1.00  0.00    -0.051 Br
HETATM   15  C11 UNL     1      28.431   6.623  47.711  1.00  0.00     0.020 A 
HETATM   16  C12 UNL     1      27.908   5.631  48.521  1.00  0.00     0.016 A 
ENDBRANCH   7  10
BRANCH   9  17
HETATM   17  O1  UNL     1      26.479   1.514  51.657  1.00  0.00    -0.189 OA
BRANCH  17  18
HETATM   18  C13 UNL     1      27.438   1.468  52.639  1.00  0.00     0.238 A 
HETATM   19  N3  UNL     1      28.286   2.084  53.230  1.00  0.00    -0.192 NA
HETATM   20  C14 UNL     1      29.031   1.550  54.206  1.00  0.00     0.172 A 
HETATM   21  C15 UNL     1      28.816   0.117  54.598  1.00  0.00     0.111 A 
HETATM   22  S2  UNL     1      27.446  -0.278  53.389  1.00  0.00    -0.050 SA
BRANCH  20  23
HETATM   23  O2  UNL     1      29.947   2.488  54.727  1.00  0.00    -0.344 OA
HETATM   24  H11 UNL     1      29.658   3.370  55.124  1.00  0.00     0.219 HD
ENDBRANCH  20  23
ENDBRANCH  17  18
ENDBRANCH   9  17
ENDBRANCH   4   5
ENDBRANCH   3   4
TORSDOF 6
ENDMDL
MODEL 2
REMARK VINA RESULT:      -7.5      1.534      1.960
REMARK  6 active torsions:
REMARK  status: ('A' for Active; 'I' for Inactive)
REMARK    1  A    between atoms: C3_3  and  C4_4 
REMARK    2  A    between atoms: C4_4  and  C5_5 
REMARK    3  A    between atoms: C6_7  and  C7_8 
REMARK    4  A    between atoms: N2_16  and  O1_17 
REMARK    5  A    between atoms: O1_17  and  C13_18 
REMARK    6  A    between atoms: C14_20  and  O2_21 
ROOT
HETATM    1  C1  UNL     1      21.299  -0.758  54.588  1.00  0.00     0.112 C 
HETATM    2  C2  UNL     1      21.836  -0.003  53.460  1.00  0.00    -0.111 C 
HETATM    3  C3  UNL     1      22.296   0.623  52.537  1.00  0.00    -0.104 C 
ENDROOT
BRANCH   3   4
HETATM    4  C4  UNL     1      22.867   1.362  51.410  1.00  0.00     0.134 C 
BRANCH   4   5
HETATM    5  C5  UNL     1      23.973   2.246  51.949  1.00  0.00     0.215 A 
HETATM    6  S1  UNL     1      23.977   3.851  51.088  1.00  0.00    -0.077 SA
HETATM    7  C6  UNL     1      25.635   3.709  50.416  1.00  0.00     0.128 A 
HETATM    8  N1  UNL     1      26.160   2.573  50.737  1.00  0.00    -0.142 NA
HETATM    9  N2  UNL     1      25.288   1.796  51.506  1.00  0.00    -0.151 N 
BRANCH   7  10
HETATM   10  C7  UNL     1      26.301   4.734  49.619  1.00  0.00     0.001 A 
HETATM   11  C8  UNL     1      27.480   4.447  48.965  1.00  0.00     0.016 A 
HETATM   12  C9  UNL     1      28.113   5.418  48.208  1.00  0.00     0.020 A 
HETATM   13  C10 UNL     1      27.550   6.659  48.122  1.00  0.00     0.011 A 
HETATM   14 BR1  UNL     1      28.371   8.061  47.087  1.00  0.00    -0.051 Br
HETATM   15  C11 UNL     1      26.359   7.009  48.761  1.00  0.00     0.020 A 
HETATM   16  C12 UNL     1      25.773   5.999  49.502  1.00  0.00     0.016 A 
ENDBRANCH   7  10
BRANCH   9  17
HETATM   17  O1  UNL     1      25.454   0.520  51.988  1.00  0.00    -0.189 OA
BRANCH  17  18
HETATM   18  C13 UNL     1      26.564   0.095  52.677  1.00  0.00     0.238 A 
HETATM   19  N3  UNL     1      27.439  -0.729  52.741  1.00  0.00    -0.192 NA
HETATM   20  C14 UNL     1      28.384  -0.718  53.689  1.00  0.00     0.172 A 
HETATM   21  C15 UNL     1      28.372   0.362  54.731  1.00  0.00     0.111 A 
HETATM   22  S2  UNL     1      26.860   1.282  54.130  1.00  0.00    -0.050 SA
BRANCH  20  23
HETATM   23  O2  UNL     1      29.283  -1.794  53.532  1.00  0.00    -0.344 OA
HETATM   24  H11 UNL     1      29.829  -1.931  52.693  1.00  0.00     0.219 HD
ENDBRANCH  20  23
ENDBRANCH  17  18
ENDBRANCH   9  17
ENDBRANCH   4   5
ENDBRANCH   3   4
TORSDOF 6
ENDMDL
MODEL 3
REMARK VINA RESULT:      -7.4      2.010      2.677
REMARK  6 active torsions:
REMARK  status: ('A' for Active; 'I' for Inactive)
REMARK    1  A    between atoms: C3_3  and  C4_4 
REMARK    2  A    between atoms: C4_4  and  C5_5 
REMARK    3  A    between atoms: C6_7  and  C7_8 
REMARK    4  A    between atoms: N2_16  and  O1_17 
REMARK    5  A    between atoms: O1_17  and  C13_18 
REMARK    6  A    between atoms: C14_20  and  O2_21 
ROOT
HETATM    1  C1  UNL     1      21.739   1.684  48.253  1.00  0.00     0.112 C 
HETATM    2  C2  UNL     1      22.007   1.384  49.655  1.00  0.00    -0.111 C 
HETATM    3  C3  UNL     1      22.228   1.154  50.819  1.00  0.00    -0.104 C 
ENDROOT
BRANCH   3   4
HETATM    4  C4  UNL     1      22.471   0.880  52.236  1.00  0.00     0.134 C 
BRANCH   4   5
HETATM    5  C5  UNL     1      23.605   1.775  52.693  1.00  0.00     0.215 A 
HETATM    6  S1  UNL     1      23.553   3.366  51.809  1.00  0.00    -0.077 SA
HETATM    7  C6  UNL     1      25.169   3.217  51.042  1.00  0.00     0.128 A 
HETATM    8  N1  UNL     1      25.715   2.087  51.349  1.00  0.00    -0.142 NA
HETATM    9  N2  UNL     1      24.893   1.320  52.180  1.00  0.00    -0.151 N 
BRANCH   7  10
HETATM   10  C7  UNL     1      25.783   4.230  50.191  1.00  0.00     0.001 A 
HETATM   11  C8  UNL     1      25.226   5.487  50.097  1.00  0.00     0.016 A 
HETATM   12  C9  UNL     1      25.807   6.451  49.289  1.00  0.00     0.020 A 
HETATM   13  C10 UNL     1      26.936   6.132  48.590  1.00  0.00     0.011 A 
HETATM   14 BR1  UNL     1      27.801   7.418  47.447  1.00  0.00    -0.051 Br
HETATM   15  C11 UNL     1      27.545   4.877  48.644  1.00  0.00     0.020 A 
HETATM   16  C12 UNL     1      26.921   3.957  49.467  1.00  0.00     0.016 A 
ENDBRANCH   7  10
BRANCH   9  17
HETATM   17  O1  UNL     1      25.090   0.053  52.672  1.00  0.00    -0.189 OA
BRANCH  17  18
HETATM   18  C13 UNL     1      26.315  -0.447  53.043  1.00  0.00     0.238 A 
HETATM   19  N3  UNL     1      27.094  -1.357  52.926  1.00  0.00    -0.192 NA
HETATM   20  C14 UNL     1      28.278  -1.390  53.551  1.00  0.00     0.172 A 
HETATM   21  C15 UNL     1      28.672  -0.250  54.444  1.00  0.00     0.111 A 
HETATM   22  S2  UNL     1      27.136   0.791  54.227  1.00  0.00    -0.050 SA
BRANCH  20  23
HETATM   23  O2  UNL     1      28.991  -2.567  53.241  1.00  0.00    -0.344 OA
HETATM   24  H11 UNL     1      28.591  -3.489  53.337  1.00  0.00     0.219 HD
ENDBRANCH  20  23
ENDBRANCH  17  18
ENDBRANCH   9  17
ENDBRANCH   4   5
ENDBRANCH   3   4
TORSDOF 6
ENDMDL
MODEL 4
REMARK VINA RESULT:      -7.4      1.099      2.061
REMARK  6 active torsions:
REMARK  status: ('A' for Active; 'I' for Inactive)
REMARK    1  A    between atoms: C3_3  and  C4_4 
REMARK    2  A    between atoms: C4_4  and  C5_5 
REMARK    3  A    between atoms: C6_7  and  C7_8 
REMARK    4  A    between atoms: N2_16  and  O1_17 
REMARK    5  A    between atoms: O1_17  and  C13_18 
REMARK    6  A    between atoms: C14_20  and  O2_21 
ROOT
HETATM    1  C1  UNL     1      22.248   2.944  47.508  1.00  0.00     0.112 C 
HETATM    2  C2  UNL     1      22.829   2.588  48.797  1.00  0.00    -0.111 C 
HETATM    3  C3  UNL     1      23.321   2.309  49.864  1.00  0.00    -0.104 C 
ENDROOT
BRANCH   3   4
HETATM    4  C4  UNL     1      23.902   1.988  51.168  1.00  0.00     0.134 C 
BRANCH   4   5
HETATM    5  C5  UNL     1      24.882   3.089  51.523  1.00  0.00     0.215 A 
HETATM    6  S1  UNL     1      24.480   4.613  50.611  1.00  0.00    -0.077 SA
HETATM    7  C6  UNL     1      26.040   4.732  49.732  1.00  0.00     0.128 A 
HETATM    8  N1  UNL     1      26.803   3.731  50.022  1.00  0.00    -0.142 NA
HETATM    9  N2  UNL     1      26.193   2.857  50.927  1.00  0.00    -0.151 N 
BRANCH   7  10
HETATM   10  C7  UNL     1      26.399   5.810  48.817  1.00  0.00     0.001 A 
HETATM   11  C8  UNL     1      27.710   5.980  48.425  1.00  0.00     0.016 A 
HETATM   12  C9  UNL     1      28.053   7.002  47.557  1.00  0.00     0.020 A 
HETATM   13  C10 UNL     1      27.073   7.836  47.099  1.00  0.00     0.011 A 
HETATM   14 BR1  UNL     1      27.473   9.280  45.888  1.00  0.00    -0.051 Br
HETATM   15  C11 UNL     1      25.730   7.714  47.460  1.00  0.00     0.020 A 
HETATM   16  C12 UNL     1      25.448   6.676  48.329  1.00  0.00     0.016 A 
ENDBRANCH   7  10
BRANCH   9  17
HETATM   17  O1  UNL     1      26.652   1.663  51.430  1.00  0.00    -0.189 OA
BRANCH  17  18
HETATM   18  C13 UNL     1      27.519   1.558  52.490  1.00  0.00     0.238 A 
HETATM   19  N3  UNL     1      28.341   2.125  53.163  1.00  0.00    -0.192 NA
HETATM   20  C14 UNL     1      28.974   1.542  54.188  1.00  0.00     0.172 A 
HETATM   21  C15 UNL     1      28.661   0.115  54.533  1.00  0.00     0.111 A 
HETATM   22  S2  UNL     1      27.385  -0.198  53.204  1.00  0.00    -0.050 SA
BRANCH  20  23
HETATM   23  O2  UNL     1      29.882   2.428  54.803  1.00  0.00    -0.344 OA
HETATM   24  H11 UNL     1      29.701   2.862  55.698  1.00  0.00     0.219 HD
ENDBRANCH  20  23
ENDBRANCH  17  18
ENDBRANCH   9  17
ENDBRANCH   4   5
ENDBRANCH   3   4
TORSDOF 6
ENDMDL
MODEL 5
REMARK VINA RESULT:      -7.4      5.238      7.516
REMARK  6 active torsions:
REMARK  status: ('A' for Active; 'I' for Inactive)
REMARK    1  A    between atoms: C3_3  and  C4_4 
REMARK    2  A    between atoms: C4_4  and  C5_5 
REMARK    3  A    between atoms: C6_7  and  C7_8 
REMARK    4  A    between atoms: N2_16  and  O1_17 
REMARK    5  A    between atoms: O1_17  and  C13_18 
REMARK    6  A    between atoms: C14_20  and  O2_21 
ROOT
HETATM    1  C1  UNL     1      22.152   5.262  51.898  1.00  0.00     0.112 C 
HETATM    2  C2  UNL     1      23.242   4.304  52.050  1.00  0.00    -0.111 C 
HETATM    3  C3  UNL     1      24.156   3.526  52.176  1.00  0.00    -0.104 C 
ENDROOT
BRANCH   3   4
HETATM    4  C4  UNL     1      25.264   2.588  52.355  1.00  0.00     0.134 C 
BRANCH   4   5
HETATM    5  C5  UNL     1      24.759   1.202  52.005  1.00  0.00     0.215 A 
HETATM    6  S1  UNL     1      23.106   1.302  51.248  1.00  0.00    -0.077 SA
HETATM    7  C6  UNL     1      22.262   0.322  52.492  1.00  0.00     0.128 A 
HETATM    8  N1  UNL     1      23.082  -0.031  53.427  1.00  0.00    -0.142 NA
HETATM    9  N2  UNL     1      24.373   0.452  53.195  1.00  0.00    -0.151 N 
BRANCH   7  10
HETATM   10  C7  UNL     1      20.846  -0.029  52.456  1.00  0.00     0.001 A 
HETATM   11  C8  UNL     1      20.051   0.406  51.418  1.00  0.00     0.016 A 
HETATM   12  C9  UNL     1      18.706   0.075  51.381  1.00  0.00     0.020 A 
HETATM   13  C10 UNL     1      18.187  -0.688  52.388  1.00  0.00     0.011 A 
HETATM   14 BR1  UNL     1      16.328  -1.191  52.406  1.00  0.00    -0.051 Br
HETATM   15  C11 UNL     1      18.942  -1.157  53.464  1.00  0.00     0.020 A 
HETATM   16  C12 UNL     1      20.277  -0.794  53.447  1.00  0.00     0.016 A 
ENDBRANCH   7  10
BRANCH   9  17
HETATM   17  O1  UNL     1      25.498   0.339  53.976  1.00  0.00    -0.189 OA
BRANCH  17  18
HETATM   18  C13 UNL     1      26.552  -0.495  53.692  1.00  0.00     0.238 A 
HETATM   19  N3  UNL     1      26.879  -1.604  53.355  1.00  0.00    -0.192 NA
HETATM   20  C14 UNL     1      28.157  -1.971  53.199  1.00  0.00     0.172 A 
HETATM   21  C15 UNL     1      29.249  -0.972  53.450  1.00  0.00     0.111 A 
HETATM   22  S2  UNL     1      28.168   0.479  53.916  1.00  0.00    -0.050 SA
BRANCH  20  23
HETATM   23  O2  UNL     1      28.259  -3.321  52.800  1.00  0.00    -0.344 OA
HETATM   24  H11 UNL     1      29.107  -3.714  52.417  1.00  0.00     0.219 HD
ENDBRANCH  20  23
ENDBRANCH  17  18
ENDBRANCH   9  17
ENDBRANCH   4   5
ENDBRANCH   3   4
TORSDOF 6
ENDMDL
MODEL 6
REMARK VINA RESULT:      -7.0      4.810      8.589
REMARK  6 active torsions:
REMARK  status: ('A' for Active; 'I' for Inactive)
REMARK    1  A    between atoms: C3_3  and  C4_4 
REMARK    2  A    between atoms: C4_4  and  C5_5 
REMARK    3  A    between atoms: C6_7  and  C7_8 
REMARK    4  A    between atoms: N2_16  and  O1_17 
REMARK    5  A    between atoms: O1_17  and  C13_18 
REMARK    6  A    between atoms: C14_20  and  O2_21 
ROOT
HETATM    1  C1  UNL     1      29.042   0.438  54.255  1.00  0.00     0.112 C 
HETATM    2  C2  UNL     1      27.787   0.503  53.516  1.00  0.00    -0.111 C 
HETATM    3  C3  UNL     1      26.740   0.546  52.917  1.00  0.00    -0.104 C 
ENDROOT
BRANCH   3   4
HETATM    4  C4  UNL     1      25.462   0.617  52.207  1.00  0.00     0.134 C 
BRANCH   4   5
HETATM    5  C5  UNL     1      24.374   0.864  53.234  1.00  0.00     0.215 A 
HETATM    6  S1  UNL     1      23.154  -0.487  53.202  1.00  0.00    -0.077 SA
HETATM    7  C6  UNL     1      21.742   0.534  52.774  1.00  0.00     0.128 A 
HETATM    8  N1  UNL     1      22.103   1.765  52.614  1.00  0.00    -0.142 NA
HETATM    9  N2  UNL     1      23.475   1.936  52.819  1.00  0.00    -0.151 N 
BRANCH   7  10
HETATM   10  C7  UNL     1      20.376   0.045  52.626  1.00  0.00     0.001 A 
HETATM   11  C8  UNL     1      19.613   0.435  51.546  1.00  0.00     0.016 A 
HETATM   12  C9  UNL     1      18.315  -0.028  51.404  1.00  0.00     0.020 A 
HETATM   13  C10 UNL     1      17.809  -0.873  52.350  1.00  0.00     0.011 A 
HETATM   14 BR1  UNL     1      16.014  -1.560  52.220  1.00  0.00    -0.051 Br
HETATM   15  C11 UNL     1      18.532  -1.302  53.463  1.00  0.00     0.020 A 
HETATM   16  C12 UNL     1      19.821  -0.808  53.552  1.00  0.00     0.016 A 
ENDBRANCH   7  10
BRANCH   9  17
HETATM   17  O1  UNL     1      24.241   3.069  52.690  1.00  0.00    -0.189 OA
BRANCH  17  18
HETATM   18  C13 UNL     1      23.838   4.198  52.019  1.00  0.00     0.238 A 
HETATM   19  N3  UNL     1      23.184   5.207  52.076  1.00  0.00    -0.192 NA
HETATM   20  C14 UNL     1      23.096   6.078  51.062  1.00  0.00     0.172 A 
HETATM   21  C15 UNL     1      23.838   5.803  49.787  1.00  0.00     0.111 A 
HETATM   22  S2  UNL     1      24.622   4.182  50.289  1.00  0.00    -0.050 SA
BRANCH  20  23
HETATM   23  O2  UNL     1      22.267   7.170  51.392  1.00  0.00    -0.344 OA
HETATM   24  H11 UNL     1      21.314   7.250  51.067  1.00  0.00     0.219 HD
ENDBRANCH  20  23
ENDBRANCH  17  18
ENDBRANCH   9  17
ENDBRANCH   4   5
ENDBRANCH   3   4
TORSDOF 6
ENDMDL
MODEL 7
REMARK VINA RESULT:      -6.9      4.555      6.996
REMARK  6 active torsions:
REMARK  status: ('A' for Active; 'I' for Inactive)
REMARK    1  A    between atoms: C3_3  and  C4_4 
REMARK    2  A    between atoms: C4_4  and  C5_5 
REMARK    3  A    between atoms: C6_7  and  C7_8 
REMARK    4  A    between atoms: N2_16  and  O1_17 
REMARK    5  A    between atoms: O1_17  and  C13_18 
REMARK    6  A    between atoms: C14_20  and  O2_21 
ROOT
HETATM    1  C1  UNL     1      18.273  -0.203  51.420  1.00  0.00     0.112 C 
HETATM    2  C2  UNL     1      19.176   0.872  51.815  1.00  0.00    -0.111 C 
HETATM    3  C3  UNL     1      19.915   1.773  52.130  1.00  0.00    -0.104 C 
ENDROOT
BRANCH   3   4
HETATM    4  C4  UNL     1      20.793   2.875  52.525  1.00  0.00     0.134 C 
BRANCH   4   5
HETATM    5  C5  UNL     1      21.995   2.865  51.603  1.00  0.00     0.215 A 
HETATM    6  S1  UNL     1      22.918   1.306  51.782  1.00  0.00    -0.077 SA
HETATM    7  C6  UNL     1      24.459   2.051  52.321  1.00  0.00     0.128 A 
HETATM    8  N1  UNL     1      24.335   3.334  52.418  1.00  0.00    -0.142 NA
HETATM    9  N2  UNL     1      23.047   3.758  52.077  1.00  0.00    -0.151 N 
BRANCH   7  10
HETATM   10  C7  UNL     1      25.684   1.313  52.611  1.00  0.00     0.001 A 
HETATM   11  C8  UNL     1      26.839   1.989  52.939  1.00  0.00     0.016 A 
HETATM   12  C9  UNL     1      28.003   1.291  53.214  1.00  0.00     0.020 A 
HETATM   13  C10 UNL     1      27.984  -0.073  53.154  1.00  0.00     0.011 A 
HETATM   14 BR1  UNL     1      29.563  -1.114  53.524  1.00  0.00    -0.051 Br
HETATM   15  C11 UNL     1      26.846  -0.812  52.827  1.00  0.00     0.020 A 
HETATM   16  C12 UNL     1      25.715  -0.061  52.563  1.00  0.00     0.016 A 
ENDBRANCH   7  10
BRANCH   9  17
HETATM   17  O1  UNL     1      22.510   5.023  52.106  1.00  0.00    -0.189 OA
BRANCH  17  18
HETATM   18  C13 UNL     1      23.075   6.113  51.492  1.00  0.00     0.238 A 
HETATM   19  N3  UNL     1      24.070   6.780  51.369  1.00  0.00    -0.192 NA
HETATM   20  C14 UNL     1      24.135   7.853  50.571  1.00  0.00     0.172 A 
HETATM   21  C15 UNL     1      22.924   8.263  49.784  1.00  0.00     0.111 A 
HETATM   22  S2  UNL     1      21.770   6.914  50.368  1.00  0.00    -0.050 SA
BRANCH  20  23
HETATM   23  O2  UNL     1      25.413   8.450  50.614  1.00  0.00    -0.344 OA
HETATM   24  H11 UNL     1      25.760   8.941  51.426  1.00  0.00     0.219 HD
ENDBRANCH  20  23
ENDBRANCH  17  18
ENDBRANCH   9  17
ENDBRANCH   4   5
ENDBRANCH   3   4
TORSDOF 6
ENDMDL
MODEL 8
REMARK VINA RESULT:      -6.9      5.103      7.739
REMARK  6 active torsions:
REMARK  status: ('A' for Active; 'I' for Inactive)
REMARK    1  A    between atoms: C3_3  and  C4_4 
REMARK    2  A    between atoms: C4_4  and  C5_5 
REMARK    3  A    between atoms: C6_7  and  C7_8 
REMARK    4  A    between atoms: N2_16  and  O1_17 
REMARK    5  A    between atoms: O1_17  and  C13_18 
REMARK    6  A    between atoms: C14_20  and  O2_21 
ROOT
HETATM    1  C1  UNL     1      21.314   7.426  49.782  1.00  0.00     0.112 C 
HETATM    2  C2  UNL     1      21.978   6.515  50.708  1.00  0.00    -0.111 C 
HETATM    3  C3  UNL     1      22.543   5.772  51.474  1.00  0.00    -0.104 C 
ENDROOT
BRANCH   3   4
HETATM    4  C4  UNL     1      23.223   4.889  52.421  1.00  0.00     0.134 C 
BRANCH   4   5
HETATM    5  C5  UNL     1      23.278   3.504  51.807  1.00  0.00     0.215 A 
HETATM    6  S1  UNL     1      21.597   2.836  51.600  1.00  0.00    -0.077 SA
HETATM    7  C6  UNL     1      21.824   1.403  52.655  1.00  0.00     0.128 A 
HETATM    8  N1  UNL     1      23.008   1.402  53.172  1.00  0.00    -0.142 NA
HETATM    9  N2  UNL     1      23.756   2.509  52.760  1.00  0.00    -0.151 N 
BRANCH   7  10
HETATM   10  C7  UNL     1      20.813   0.379  52.898  1.00  0.00     0.001 A 
HETATM   11  C8  UNL     1      21.055  -0.634  53.801  1.00  0.00     0.016 A 
HETATM   12  C9  UNL     1      20.097  -1.607  54.032  1.00  0.00     0.020 A 
HETATM   13  C10 UNL     1      18.915  -1.544  53.351  1.00  0.00     0.011 A 
HETATM   14 BR1  UNL     1      17.534  -2.861  53.620  1.00  0.00    -0.051 Br
HETATM   15  C11 UNL     1      18.613  -0.545  52.426  1.00  0.00     0.020 A 
HETATM   16  C12 UNL     1      19.607   0.399  52.236  1.00  0.00     0.016 A 
ENDBRANCH   7  10
BRANCH   9  17
HETATM   17  O1  UNL     1      25.024   2.890  53.130  1.00  0.00    -0.189 OA
BRANCH  17  18
HETATM   18  C13 UNL     1      26.025   2.012  53.463  1.00  0.00     0.238 A 
HETATM   19  N3  UNL     1      26.822   1.685  54.305  1.00  0.00    -0.192 NA
HETATM   20  C14 UNL     1      27.668   0.660  54.150  1.00  0.00     0.172 A 
HETATM   21  C15 UNL     1      27.641  -0.134  52.876  1.00  0.00     0.111 A 
HETATM   22  S2  UNL     1      26.274   0.806  52.016  1.00  0.00    -0.050 SA
BRANCH  20  23
HETATM   23  O2  UNL     1      28.490   0.495  55.285  1.00  0.00    -0.344 OA
HETATM   24  H11 UNL     1      28.838   1.275  55.825  1.00  0.00     0.219 HD
ENDBRANCH  20  23
ENDBRANCH  17  18
ENDBRANCH   9  17
ENDBRANCH   4   5
ENDBRANCH   3   4
TORSDOF 6
ENDMDL
MODEL 9
REMARK VINA RESULT:      -6.9      1.881      2.671
REMARK  6 active torsions:
REMARK  status: ('A' for Active; 'I' for Inactive)
REMARK    1  A    between atoms: C3_3  and  C4_4 
REMARK    2  A    between atoms: C4_4  and  C5_5 
REMARK    3  A    between atoms: C6_7  and  C7_8 
REMARK    4  A    between atoms: N2_16  and  O1_17 
REMARK    5  A    between atoms: O1_17  and  C13_18 
REMARK    6  A    between atoms: C14_20  and  O2_21 
ROOT
HETATM    1  C1  UNL     1      22.226   3.049  47.335  1.00  0.00     0.112 C 
HETATM    2  C2  UNL     1      22.490   2.686  48.724  1.00  0.00    -0.111 C 
HETATM    3  C3  UNL     1      22.721   2.398  49.872  1.00  0.00    -0.104 C 
ENDROOT
BRANCH   3   4
HETATM    4  C4  UNL     1      22.991   2.070  51.273  1.00  0.00     0.134 C 
BRANCH   4   5
HETATM    5  C5  UNL     1      24.241   2.817  51.692  1.00  0.00     0.215 A 
HETATM    6  S1  UNL     1      24.293   4.458  50.905  1.00  0.00    -0.077 SA
HETATM    7  C6  UNL     1      25.826   4.198  50.010  1.00  0.00     0.128 A 
HETATM    8  N1  UNL     1      26.272   3.002  50.209  1.00  0.00    -0.142 NA
HETATM    9  N2  UNL     1      25.435   2.269  51.056  1.00  0.00    -0.151 N 
BRANCH   7  10
HETATM   10  C7  UNL     1      26.480   5.197  49.172  1.00  0.00     0.001 A 
HETATM   11  C8  UNL     1      27.804   5.048  48.820  1.00  0.00     0.016 A 
HETATM   12  C9  UNL     1      28.428   5.995  48.025  1.00  0.00     0.020 A 
HETATM   13  C10 UNL     1      27.708   7.076  47.600  1.00  0.00     0.011 A 
HETATM   14 BR1  UNL     1      28.506   8.434  46.491  1.00  0.00    -0.051 Br
HETATM   15  C11 UNL     1      26.367   7.282  47.923  1.00  0.00     0.020 A 
HETATM   16  C12 UNL     1      25.799   6.303  48.719  1.00  0.00     0.016 A 
ENDBRANCH   7  10
BRANCH   9  17
HETATM   17  O1  UNL     1      25.534   0.959  51.459  1.00  0.00    -0.189 OA
BRANCH  17  18
HETATM   18  C13 UNL     1      25.889   0.569  52.727  1.00  0.00     0.238 A 
HETATM   19  N3  UNL     1      25.515   0.062  53.753  1.00  0.00    -0.192 NA
HETATM   20  C14 UNL     1      26.314  -0.120  54.811  1.00  0.00     0.172 A 
HETATM   21  C15 UNL     1      27.747   0.320  54.738  1.00  0.00     0.111 A 
HETATM   22  S2  UNL     1      27.722   0.991  52.995  1.00  0.00    -0.050 SA
BRANCH  20  23
HETATM   23  O2  UNL     1      25.623  -0.733  55.878  1.00  0.00    -0.344 OA
HETATM   24  H11 UNL     1      25.457  -1.728  55.921  1.00  0.00     0.219 HD
ENDBRANCH  20  23
ENDBRANCH  17  18
ENDBRANCH   9  17
ENDBRANCH   4   5
ENDBRANCH   3   4
TORSDOF 6
ENDMDL
