MODEL 1
REMARK VINA RESULT:      -8.2      0.000      0.000
REMARK  4 active torsions:
REMARK  status: ('A' for Active; 'I' for Inactive)
REMARK    1  A    between atoms: N1_2  and  C3_4 
REMARK    2  A    between atoms: C3_4  and  C4_5 
REMARK    3  A    between atoms: C5_6  and  C6_7 
REMARK       I    between atoms: C6_7  and  N2_9 
REMARK    4  A    between atoms: N2_9  and  C7_10 
ROOT
HETATM    1  C7  UNL     1      24.861   2.018  51.912  1.00  0.00     0.052 A 
HETATM    2  C8  UNL     1      24.004   2.445  50.999  1.00  0.00     0.143 A 
HETATM    3  N3  UNL     1      24.482   3.148  49.826  1.00  0.00    -0.267 N 
HETATM    4  N4  UNL     1      23.518   3.666  48.973  1.00  0.00    -0.187 NA
HETATM    5  C9  UNL     1      23.402   4.880  48.551  1.00  0.00     0.136 C 
HETATM    6  C10 UNL     1      24.168   6.142  48.764  1.00  0.00     0.168 C 
HETATM    7  C11 UNL     1      23.904   6.620  50.143  1.00  0.00     0.074 C 
HETATM    8  N5  UNL     1      23.702   7.001  51.224  1.00  0.00    -0.196 NA
HETATM    9  C12 UNL     1      25.599   5.849  48.687  1.00  0.00    -0.027 A 
HETATM   10  C13 UNL     1      26.225   6.989  48.223  1.00  0.00     0.009 A 
HETATM   11  C14 UNL     1      27.602   6.970  48.052  1.00  0.00     0.001 A 
HETATM   12  C15 UNL     1      28.283   5.794  48.359  1.00  0.00     0.001 A 
HETATM   13  C16 UNL     1      27.614   4.674  48.821  1.00  0.00     0.010 A 
HETATM   14  C17 UNL     1      26.232   4.667  49.002  1.00  0.00    -0.022 A 
HETATM   15  C18 UNL     1      25.866   3.347  49.487  1.00  0.00     0.166 A 
HETATM   16  C19 UNL     1      26.693   2.824  50.601  1.00  0.00     0.007 A 
HETATM   17  C20 UNL     1      26.295   2.222  51.703  1.00  0.00     0.029 A 
ENDROOT
BRANCH   1  18
HETATM   18  N2  UNL     1      24.296   1.348  53.023  1.00  0.00    -0.322 N 
HETATM   19  C6  UNL     1      24.524  -0.006  53.390  1.00  0.00     0.245 C 
HETATM   20  O1  UNL     1      25.313  -0.589  52.601  1.00  0.00    -0.268 OA
HETATM   21  H11 UNL     1      23.641   1.920  53.636  1.00  0.00     0.169 HD
BRANCH  19  22
HETATM   22  C5  UNL     1      23.880  -0.581  54.562  1.00  0.00     0.072 C 
HETATM   23  C4  UNL     1      22.652  -1.026  54.554  1.00  0.00     0.008 C 
BRANCH  23  24
HETATM   24  C3  UNL     1      21.586  -1.126  53.553  1.00  0.00     0.299 C 
BRANCH  24  25
HETATM   25  N1  UNL     1      20.519  -0.206  53.901  1.00  0.00     0.083 N 
HETATM   26  C1  UNL     1      20.761   1.062  53.256  1.00  0.00     0.309 C 
HETATM   27  C2  UNL     1      19.257  -0.726  53.420  1.00  0.00     0.309 C 
ENDBRANCH  24  25
ENDBRANCH  23  24
ENDBRANCH  19  22
ENDBRANCH   1  18
TORSDOF 4
ENDMDL
MODEL 2
REMARK VINA RESULT:      -8.2      3.965      7.211
REMARK  4 active torsions:
REMARK  status: ('A' for Active; 'I' for Inactive)
REMARK    1  A    between atoms: N1_2  and  C3_4 
REMARK    2  A    between atoms: C3_4  and  C4_5 
REMARK    3  A    between atoms: C5_6  and  C6_7 
REMARK       I    between atoms: C6_7  and  N2_9 
REMARK    4  A    between atoms: N2_9  and  C7_10 
ROOT
HETATM    1  C7  UNL     1      24.248   1.136  52.850  1.00  0.00     0.052 A 
HETATM    2  C8  UNL     1      23.489   2.158  52.492  1.00  0.00     0.143 A 
HETATM    3  N3  UNL     1      22.052   2.093  52.672  1.00  0.00    -0.267 N 
HETATM    4  N4  UNL     1      21.312   3.152  52.166  1.00  0.00    -0.187 NA
HETATM    5  C9  UNL     1      20.311   3.104  51.353  1.00  0.00     0.136 C 
HETATM    6  C10 UNL     1      19.575   2.007  50.661  1.00  0.00     0.168 C 
HETATM    7  C11 UNL     1      20.444   1.467  49.588  1.00  0.00     0.074 C 
HETATM    8  N5  UNL     1      21.122   1.037  48.744  1.00  0.00    -0.196 NA
HETATM    9  C12 UNL     1      19.346   0.915  51.607  1.00  0.00    -0.027 A 
HETATM   10  C13 UNL     1      18.181   0.280  51.225  1.00  0.00     0.009 A 
HETATM   11  C14 UNL     1      17.735  -0.799  51.974  1.00  0.00     0.001 A 
HETATM   12  C15 UNL     1      18.491  -1.186  53.079  1.00  0.00     0.001 A 
HETATM   13  C16 UNL     1      19.653  -0.519  53.426  1.00  0.00     0.010 A 
HETATM   14  C17 UNL     1      20.123   0.567  52.690  1.00  0.00    -0.022 A 
HETATM   15  C18 UNL     1      21.347   1.023  53.327  1.00  0.00     0.166 A 
HETATM   16  C19 UNL     1      22.327  -0.038  53.661  1.00  0.00     0.007 A 
HETATM   17  C20 UNL     1      23.631  -0.037  53.471  1.00  0.00     0.029 A 
ENDROOT
BRANCH   1  18
HETATM   18  N2  UNL     1      25.637   1.292  52.629  1.00  0.00    -0.322 N 
HETATM   19  C6  UNL     1      26.562   1.916  53.511  1.00  0.00     0.245 C 
HETATM   20  O1  UNL     1      26.011   2.338  54.561  1.00  0.00    -0.268 OA
HETATM   21  H11 UNL     1      26.016   0.904  51.714  1.00  0.00     0.169 HD
BRANCH  19  22
HETATM   22  C5  UNL     1      27.972   2.014  53.165  1.00  0.00     0.072 C 
HETATM   23  C4  UNL     1      28.838   1.072  53.428  1.00  0.00     0.008 C 
BRANCH  23  24
HETATM   24  C3  UNL     1      28.781  -0.248  54.062  1.00  0.00     0.299 C 
BRANCH  24  25
HETATM   25  N1  UNL     1      28.635  -1.263  53.034  1.00  0.00     0.083 N 
HETATM   26  C1  UNL     1      29.428  -2.415  53.392  1.00  0.00     0.309 C 
HETATM   27  C2  UNL     1      27.249  -1.673  52.955  1.00  0.00     0.309 C 
ENDBRANCH  24  25
ENDBRANCH  23  24
ENDBRANCH  19  22
ENDBRANCH   1  18
TORSDOF 4
ENDMDL
MODEL 3
REMARK VINA RESULT:      -8.1      2.453      8.421
REMARK  4 active torsions:
REMARK  status: ('A' for Active; 'I' for Inactive)
REMARK    1  A    between atoms: N1_2  and  C3_4 
REMARK    2  A    between atoms: C3_4  and  C4_5 
REMARK    3  A    between atoms: C5_6  and  C6_7 
REMARK       I    between atoms: C6_7  and  N2_9 
REMARK    4  A    between atoms: N2_9  and  C7_10 
ROOT
HETATM    1  C7  UNL     1      25.079   3.611  51.193  1.00  0.00     0.052 A 
HETATM    2  C8  UNL     1      25.797   2.510  51.050  1.00  0.00     0.143 A 
HETATM    3  N3  UNL     1      25.276   1.238  51.510  1.00  0.00    -0.267 N 
HETATM    4  N4  UNL     1      26.132   0.148  51.433  1.00  0.00    -0.187 NA
HETATM    5  C9  UNL     1      26.468  -0.665  52.377  1.00  0.00     0.136 C 
HETATM    6  C10 UNL     1      26.127  -0.790  53.823  1.00  0.00     0.168 C 
HETATM    7  C11 UNL     1      26.802   0.305  54.559  1.00  0.00     0.074 C 
HETATM    8  N5  UNL     1      27.329   1.165  55.142  1.00  0.00    -0.196 NA
HETATM    9  C12 UNL     1      24.688  -0.587  53.994  1.00  0.00    -0.027 A 
HETATM   10  C13 UNL     1      24.299  -1.323  55.095  1.00  0.00     0.009 A 
HETATM   11  C14 UNL     1      22.963  -1.305  55.469  1.00  0.00     0.001 A 
HETATM   12  C15 UNL     1      22.080  -0.542  54.707  1.00  0.00     0.001 A 
HETATM   13  C16 UNL     1      22.515   0.180  53.609  1.00  0.00     0.010 A 
HETATM   14  C17 UNL     1      23.852   0.179  53.213  1.00  0.00    -0.022 A 
HETATM   15  C18 UNL     1      23.954   1.027  52.037  1.00  0.00     0.166 A 
HETATM   16  C19 UNL     1      23.283   2.345  52.139  1.00  0.00     0.007 A 
HETATM   17  C20 UNL     1      23.740   3.526  51.777  1.00  0.00     0.029 A 
ENDROOT
BRANCH   1  18
HETATM   18  N2  UNL     1      25.677   4.803  50.718  1.00  0.00    -0.322 N 
HETATM   19  C6  UNL     1      25.416   5.431  49.470  1.00  0.00     0.245 C 
HETATM   20  O1  UNL     1      24.564   4.805  48.788  1.00  0.00    -0.268 OA
HETATM   21  H11 UNL     1      26.386   5.264  51.362  1.00  0.00     0.169 HD
BRANCH  19  22
HETATM   22  C5  UNL     1      26.100   6.660  49.096  1.00  0.00     0.072 C 
HETATM   23  C4  UNL     1      27.316   6.682  48.619  1.00  0.00     0.008 C 
BRANCH  23  24
HETATM   24  C3  UNL     1      28.332   5.674  48.307  1.00  0.00     0.299 C 
BRANCH  24  25
HETATM   25  N1  UNL     1      29.506   6.333  47.764  1.00  0.00     0.083 N 
HETATM   26  C1  UNL     1      29.703   7.586  48.452  1.00  0.00     0.309 C 
HETATM   27  C2  UNL     1      30.672   5.504  47.987  1.00  0.00     0.309 C 
ENDBRANCH  24  25
ENDBRANCH  23  24
ENDBRANCH  19  22
ENDBRANCH   1  18
TORSDOF 4
ENDMDL
MODEL 4
REMARK VINA RESULT:      -8.1      3.060      5.623
REMARK  4 active torsions:
REMARK  status: ('A' for Active; 'I' for Inactive)
REMARK    1  A    between atoms: N1_2  and  C3_4 
REMARK    2  A    between atoms: C3_4  and  C4_5 
REMARK    3  A    between atoms: C5_6  and  C6_7 
REMARK       I    between atoms: C6_7  and  N2_9 
REMARK    4  A    between atoms: N2_9  and  C7_10 
ROOT
HETATM    1  C7  UNL     1      24.997   2.346  53.177  1.00  0.00     0.052 A 
HETATM    2  C8  UNL     1      24.364   3.507  53.156  1.00  0.00     0.143 A 
HETATM    3  N3  UNL     1      23.038   3.601  52.577  1.00  0.00    -0.267 N 
HETATM    4  N4  UNL     1      22.487   4.871  52.485  1.00  0.00    -0.187 NA
HETATM    5  C9  UNL     1      22.010   5.455  51.438  1.00  0.00     0.136 C 
HETATM    6  C10 UNL     1      21.852   5.073  50.005  1.00  0.00     0.168 C 
HETATM    7  C11 UNL     1      23.192   5.080  49.370  1.00  0.00     0.074 C 
HETATM    8  N5  UNL     1      24.242   5.081  48.866  1.00  0.00    -0.196 NA
HETATM    9  C12 UNL     1      21.358   3.699  49.930  1.00  0.00    -0.027 A 
HETATM   10  C13 UNL     1      20.615   3.594  48.770  1.00  0.00     0.009 A 
HETATM   11  C14 UNL     1      20.023   2.377  48.467  1.00  0.00     0.001 A 
HETATM   12  C15 UNL     1      20.210   1.318  49.354  1.00  0.00     0.001 A 
HETATM   13  C16 UNL     1      20.962   1.469  50.506  1.00  0.00     0.010 A 
HETATM   14  C17 UNL     1      21.568   2.681  50.834  1.00  0.00    -0.022 A 
HETATM   15  C18 UNL     1      22.265   2.488  52.094  1.00  0.00     0.166 A 
HETATM   16  C19 UNL     1      23.107   1.271  52.179  1.00  0.00     0.007 A 
HETATM   17  C20 UNL     1      24.330   1.153  52.654  1.00  0.00     0.029 A 
ENDROOT
BRANCH   1  18
HETATM   18  N2  UNL     1      26.287   2.357  53.759  1.00  0.00    -0.322 N 
HETATM   19  C6  UNL     1      27.523   2.380  53.056  1.00  0.00     0.245 C 
HETATM   20  O1  UNL     1      27.363   2.391  51.808  1.00  0.00    -0.268 OA
HETATM   21  H11 UNL     1      26.326   2.348  54.822  1.00  0.00     0.169 HD
BRANCH  19  22
HETATM   22  C5  UNL     1      28.789   2.390  53.774  1.00  0.00     0.072 C 
HETATM   23  C4  UNL     1      29.264   1.345  54.396  1.00  0.00     0.008 C 
BRANCH  23  24
HETATM   24  C3  UNL     1      28.818  -0.036  54.604  1.00  0.00     0.299 C 
BRANCH  24  25
HETATM   25  N1  UNL     1      28.794  -0.726  53.327  1.00  0.00     0.083 N 
HETATM   26  C1  UNL     1      29.608  -1.914  53.417  1.00  0.00     0.309 C 
HETATM   27  C2  UNL     1      27.437  -1.126  53.020  1.00  0.00     0.309 C 
ENDBRANCH  24  25
ENDBRANCH  23  24
ENDBRANCH  19  22
ENDBRANCH   1  18
TORSDOF 4
ENDMDL
MODEL 5
REMARK VINA RESULT:      -7.6      2.164      7.551
REMARK  4 active torsions:
REMARK  status: ('A' for Active; 'I' for Inactive)
REMARK    1  A    between atoms: N1_2  and  C3_4 
REMARK    2  A    between atoms: C3_4  and  C4_5 
REMARK    3  A    between atoms: C5_6  and  C6_7 
REMARK       I    between atoms: C6_7  and  N2_9 
REMARK    4  A    between atoms: N2_9  and  C7_10 
ROOT
HETATM    1  C7  UNL     1      24.816   3.009  51.714  1.00  0.00     0.052 A 
HETATM    2  C8  UNL     1      23.675   3.679  51.722  1.00  0.00     0.143 A 
HETATM    3  N3  UNL     1      22.524   3.145  52.422  1.00  0.00    -0.267 N 
HETATM    4  N4  UNL     1      21.333   3.844  52.289  1.00  0.00    -0.187 NA
HETATM    5  C9  UNL     1      20.187   3.392  51.907  1.00  0.00     0.136 C 
HETATM    6  C10 UNL     1      19.675   2.057  51.480  1.00  0.00     0.168 C 
HETATM    7  C11 UNL     1      20.216   1.759  50.132  1.00  0.00     0.074 C 
HETATM    8  N5  UNL     1      20.639   1.519  49.074  1.00  0.00    -0.196 NA
HETATM    9  C12 UNL     1      20.204   1.033  52.381  1.00  0.00    -0.027 A 
HETATM   10  C13 UNL     1      19.277   0.011  52.428  1.00  0.00     0.009 A 
HETATM   11  C14 UNL     1      19.541  -1.091  53.229  1.00  0.00     0.001 A 
HETATM   12  C15 UNL     1      20.734  -1.106  53.949  1.00  0.00     0.001 A 
HETATM   13  C16 UNL     1      21.634  -0.058  53.872  1.00  0.00     0.010 A 
HETATM   14  C17 UNL     1      21.394   1.061  53.075  1.00  0.00    -0.022 A 
HETATM   15  C18 UNL     1      22.527   1.956  53.233  1.00  0.00     0.166 A 
HETATM   16  C19 UNL     1      23.863   1.322  53.118  1.00  0.00     0.007 A 
HETATM   17  C20 UNL     1      24.917   1.751  52.455  1.00  0.00     0.029 A 
ENDROOT
BRANCH   1  18
HETATM   18  N2  UNL     1      25.879   3.610  50.999  1.00  0.00    -0.322 N 
HETATM   19  C6  UNL     1      25.983   3.719  49.585  1.00  0.00     0.245 C 
HETATM   20  O1  UNL     1      24.996   3.209  48.993  1.00  0.00    -0.268 OA
HETATM   21  H11 UNL     1      26.670   4.016  51.583  1.00  0.00     0.169 HD
BRANCH  19  22
HETATM   22  C5  UNL     1      27.133   4.364  48.968  1.00  0.00     0.072 C 
HETATM   23  C4  UNL     1      27.145   5.624  48.626  1.00  0.00     0.008 C 
BRANCH  23  24
HETATM   24  C3  UNL     1      26.190   6.734  48.701  1.00  0.00     0.299 C 
BRANCH  24  25
HETATM   25  N1  UNL     1      26.164   7.249  50.058  1.00  0.00     0.083 N 
HETATM   26  C1  UNL     1      26.583   8.629  50.046  1.00  0.00     0.309 C 
HETATM   27  C2  UNL     1      24.812   7.189  50.571  1.00  0.00     0.309 C 
ENDBRANCH  24  25
ENDBRANCH  23  24
ENDBRANCH  19  22
ENDBRANCH   1  18
TORSDOF 4
ENDMDL
MODEL 6
REMARK VINA RESULT:      -7.6      2.871      8.131
REMARK  4 active torsions:
REMARK  status: ('A' for Active; 'I' for Inactive)
REMARK    1  A    between atoms: N1_2  and  C3_4 
REMARK    2  A    between atoms: C3_4  and  C4_5 
REMARK    3  A    between atoms: C5_6  and  C6_7 
REMARK       I    between atoms: C6_7  and  N2_9 
REMARK    4  A    between atoms: N2_9  and  C7_10 
ROOT
HETATM    1  C7  UNL     1      25.612   4.165  49.960  1.00  0.00     0.052 A 
HETATM    2  C8  UNL     1      24.341   4.452  50.187  1.00  0.00     0.143 A 
HETATM    3  N3  UNL     1      23.601   3.723  51.198  1.00  0.00    -0.267 N 
HETATM    4  N4  UNL     1      22.245   3.999  51.299  1.00  0.00    -0.187 NA
HETATM    5  C9  UNL     1      21.260   3.166  51.257  1.00  0.00     0.136 C 
HETATM    6  C10 UNL     1      21.144   1.687  51.097  1.00  0.00     0.168 C 
HETATM    7  C11 UNL     1      21.466   1.343  49.691  1.00  0.00     0.074 C 
HETATM    8  N5  UNL     1      21.718   1.066  48.589  1.00  0.00    -0.196 NA
HETATM    9  C12 UNL     1      22.155   1.037  51.931  1.00  0.00    -0.027 A 
HETATM   10  C13 UNL     1      21.649  -0.193  52.301  1.00  0.00     0.009 A 
HETATM   11  C14 UNL     1      22.421  -1.014  53.111  1.00  0.00     0.001 A 
HETATM   12  C15 UNL     1      23.672  -0.549  53.512  1.00  0.00     0.001 A 
HETATM   13  C16 UNL     1      24.138   0.693  53.117  1.00  0.00     0.010 A 
HETATM   14  C17 UNL     1      23.383   1.536  52.302  1.00  0.00    -0.022 A 
HETATM   15  C18 UNL     1      24.163   2.744  52.090  1.00  0.00     0.166 A 
HETATM   16  C19 UNL     1      25.580   2.531  51.708  1.00  0.00     0.007 A 
HETATM   17  C20 UNL     1      26.273   3.139  50.767  1.00  0.00     0.029 A 
ENDROOT
BRANCH   1  18
HETATM   18  N2  UNL     1      26.245   4.928  48.950  1.00  0.00    -0.322 N 
HETATM   19  C6  UNL     1      26.513   6.323  48.998  1.00  0.00     0.245 C 
HETATM   20  O1  UNL     1      26.118   6.850  50.071  1.00  0.00    -0.268 OA
HETATM   21  H11 UNL     1      26.546   4.399  48.078  1.00  0.00     0.169 HD
BRANCH  19  22
HETATM   22  C5  UNL     1      27.174   6.995  47.889  1.00  0.00     0.072 C 
HETATM   23  C4  UNL     1      28.457   6.900  47.662  1.00  0.00     0.008 C 
BRANCH  23  24
HETATM   24  C3  UNL     1      29.580   6.208  48.299  1.00  0.00     0.299 C 
BRANCH  24  25
HETATM   25  N1  UNL     1      30.714   7.112  48.376  1.00  0.00     0.083 N 
HETATM   26  C1  UNL     1      30.279   8.366  48.942  1.00  0.00     0.309 C 
HETATM   27  C2  UNL     1      31.724   6.547  49.246  1.00  0.00     0.309 C 
ENDBRANCH  24  25
ENDBRANCH  23  24
ENDBRANCH  19  22
ENDBRANCH   1  18
TORSDOF 4
ENDMDL
MODEL 7
REMARK VINA RESULT:      -7.5      2.464      7.994
REMARK  4 active torsions:
REMARK  status: ('A' for Active; 'I' for Inactive)
REMARK    1  A    between atoms: N1_2  and  C3_4 
REMARK    2  A    between atoms: C3_4  and  C4_5 
REMARK    3  A    between atoms: C5_6  and  C6_7 
REMARK       I    between atoms: C6_7  and  N2_9 
REMARK    4  A    between atoms: N2_9  and  C7_10 
ROOT
HETATM    1  C7  UNL     1      23.742   4.946  51.678  1.00  0.00     0.052 A 
HETATM    2  C8  UNL     1      24.538   4.003  51.203  1.00  0.00     0.143 A 
HETATM    3  N3  UNL     1      24.192   2.606  51.375  1.00  0.00    -0.267 N 
HETATM    4  N4  UNL     1      25.130   1.674  50.955  1.00  0.00    -0.187 NA
HETATM    5  C9  UNL     1      25.644   0.704  51.633  1.00  0.00     0.136 C 
HETATM    6  C10 UNL     1      25.481   0.198  53.026  1.00  0.00     0.168 C 
HETATM    7  C11 UNL     1      26.131   1.158  53.950  1.00  0.00     0.074 C 
HETATM    8  N5  UNL     1      26.638   1.908  54.682  1.00  0.00    -0.196 NA
HETATM    9  C12 UNL     1      24.058   0.184  53.365  1.00  0.00    -0.027 A 
HETATM   10  C13 UNL     1      23.865  -0.834  54.278  1.00  0.00     0.009 A 
HETATM   11  C14 UNL     1      22.584  -1.063  54.758  1.00  0.00     0.001 A 
HETATM   12  C15 UNL     1      21.554  -0.249  54.290  1.00  0.00     0.001 A 
HETATM   13  C16 UNL     1      21.794   0.760  53.374  1.00  0.00     0.010 A 
HETATM   14  C17 UNL     1      23.072   1.012  52.876  1.00  0.00    -0.022 A 
HETATM   15  C18 UNL     1      22.962   2.122  51.945  1.00  0.00     0.166 A 
HETATM   16  C19 UNL     1      22.188   3.289  52.430  1.00  0.00     0.007 A 
HETATM   17  C20 UNL     1      22.490   4.568  52.335  1.00  0.00     0.029 A 
ENDROOT
BRANCH   1  18
HETATM   18  N2  UNL     1      24.169   6.278  51.465  1.00  0.00    -0.322 N 
HETATM   19  C6  UNL     1      23.863   7.087  50.337  1.00  0.00     0.245 C 
HETATM   20  O1  UNL     1      23.141   6.486  49.500  1.00  0.00    -0.268 OA
HETATM   21  H11 UNL     1      24.776   6.706  52.227  1.00  0.00     0.169 HD
BRANCH  19  22
HETATM   22  C5  UNL     1      24.366   8.449  50.236  1.00  0.00     0.072 C 
HETATM   23  C4  UNL     1      25.609   8.730  49.946  1.00  0.00     0.008 C 
BRANCH  23  24
HETATM   24  C3  UNL     1      26.812   7.948  49.649  1.00  0.00     0.299 C 
BRANCH  24  25
HETATM   25  N1  UNL     1      26.608   7.213  48.414  1.00  0.00     0.083 N 
HETATM   26  C1  UNL     1      27.494   7.736  47.402  1.00  0.00     0.309 C 
HETATM   27  C2  UNL     1      26.932   5.818  48.624  1.00  0.00     0.309 C 
ENDBRANCH  24  25
ENDBRANCH  23  24
ENDBRANCH  19  22
ENDBRANCH   1  18
TORSDOF 4
ENDMDL
MODEL 8
REMARK VINA RESULT:      -7.3      4.495      7.152
REMARK  4 active torsions:
REMARK  status: ('A' for Active; 'I' for Inactive)
REMARK    1  A    between atoms: N1_2  and  C3_4 
REMARK    2  A    between atoms: C3_4  and  C4_5 
REMARK    3  A    between atoms: C5_6  and  C6_7 
REMARK       I    between atoms: C6_7  and  N2_9 
REMARK    4  A    between atoms: N2_9  and  C7_10 
ROOT
HETATM    1  C7  UNL     1      18.619   1.517  51.092  1.00  0.00     0.052 A 
HETATM    2  C8  UNL     1      19.580   1.877  50.257  1.00  0.00     0.143 A 
HETATM    3  N3  UNL     1      20.916   1.335  50.411  1.00  0.00    -0.267 N 
HETATM    4  N4  UNL     1      21.897   1.846  49.573  1.00  0.00    -0.187 NA
HETATM    5  C9  UNL     1      23.035   2.356  49.903  1.00  0.00     0.136 C 
HETATM    6  C10 UNL     1      23.737   2.605  51.195  1.00  0.00     0.168 C 
HETATM    7  C11 UNL     1      23.059   3.727  51.887  1.00  0.00     0.074 C 
HETATM    8  N5  UNL     1      22.530   4.606  52.436  1.00  0.00    -0.196 NA
HETATM    9  C12 UNL     1      23.588   1.429  52.052  1.00  0.00    -0.027 A 
HETATM   10  C13 UNL     1      24.703   1.371  52.865  1.00  0.00     0.009 A 
HETATM   11  C14 UNL     1      24.809   0.331  53.776  1.00  0.00     0.001 A 
HETATM   12  C15 UNL     1      23.779  -0.607  53.823  1.00  0.00     0.001 A 
HETATM   13  C16 UNL     1      22.679  -0.509  52.988  1.00  0.00     0.010 A 
HETATM   14  C17 UNL     1      22.548   0.527  52.064  1.00  0.00    -0.022 A 
HETATM   15  C18 UNL     1      21.293   0.321  51.360  1.00  0.00     0.166 A 
HETATM   16  C19 UNL     1      20.119   0.032  52.218  1.00  0.00     0.007 A 
HETATM   17  C20 UNL     1      18.905   0.537  52.140  1.00  0.00     0.029 A 
ENDROOT
BRANCH   1  18
HETATM   18  N2  UNL     1      17.352   2.105  50.863  1.00  0.00    -0.322 N 
HETATM   19  C6  UNL     1      16.894   3.342  51.391  1.00  0.00     0.245 C 
HETATM   20  O1  UNL     1      17.756   3.901  52.118  1.00  0.00    -0.268 OA
HETATM   21  H11 UNL     1      16.687   1.562  50.234  1.00  0.00     0.169 HD
BRANCH  19  22
HETATM   22  C5  UNL     1      15.562   3.840  51.079  1.00  0.00     0.072 C 
HETATM   23  C4  UNL     1      14.507   3.549  51.792  1.00  0.00     0.008 C 
BRANCH  23  24
HETATM   24  C3  UNL     1      14.249   2.749  52.993  1.00  0.00     0.299 C 
BRANCH  24  25
HETATM   25  N1  UNL     1      12.854   2.892  53.368  1.00  0.00     0.083 N 
HETATM   26  C1  UNL     1      12.607   4.259  53.757  1.00  0.00     0.309 C 
HETATM   27  C2  UNL     1      12.014   2.586  52.229  1.00  0.00     0.309 C 
ENDBRANCH  24  25
ENDBRANCH  23  24
ENDBRANCH  19  22
ENDBRANCH   1  18
TORSDOF 4
ENDMDL
MODEL 9
REMARK VINA RESULT:      -7.2      2.160      4.063
REMARK  4 active torsions:
REMARK  status: ('A' for Active; 'I' for Inactive)
REMARK    1  A    between atoms: N1_2  and  C3_4 
REMARK    2  A    between atoms: C3_4  and  C4_5 
REMARK    3  A    between atoms: C5_6  and  C6_7 
REMARK       I    between atoms: C6_7  and  N2_9 
REMARK    4  A    between atoms: N2_9  and  C7_10 
ROOT
HETATM    1  C7  UNL     1      23.429   2.979  50.336  1.00  0.00     0.052 A 
HETATM    2  C8  UNL     1      24.022   4.015  50.906  1.00  0.00     0.143 A 
HETATM    3  N3  UNL     1      23.957   5.322  50.282  1.00  0.00    -0.267 N 
HETATM    4  N4  UNL     1      24.700   6.333  50.875  1.00  0.00    -0.187 NA
HETATM    5  C9  UNL     1      25.575   7.103  50.322  1.00  0.00     0.136 C 
HETATM    6  C10 UNL     1      26.128   7.241  48.944  1.00  0.00     0.168 C 
HETATM    7  C11 UNL     1      27.014   6.081  48.678  1.00  0.00     0.074 C 
HETATM    8  N5  UNL     1      27.709   5.173  48.463  1.00  0.00    -0.196 NA
HETATM    9  C12 UNL     1      25.031   7.162  47.979  1.00  0.00    -0.027 A 
HETATM   10  C13 UNL     1      25.396   7.916  46.882  1.00  0.00     0.009 A 
HETATM   11  C14 UNL     1      24.513   8.011  45.816  1.00  0.00     0.001 A 
HETATM   12  C15 UNL     1      23.297   7.337  45.911  1.00  0.00     0.001 A 
HETATM   13  C16 UNL     1      22.973   6.593  47.032  1.00  0.00     0.010 A 
HETATM   14  C17 UNL     1      23.842   6.481  48.116  1.00  0.00    -0.022 A 
HETATM   15  C18 UNL     1      23.190   5.641  49.107  1.00  0.00     0.166 A 
HETATM   16  C19 UNL     1      22.596   4.385  48.590  1.00  0.00     0.007 A 
HETATM   17  C20 UNL     1      22.671   3.173  49.100  1.00  0.00     0.029 A 
ENDROOT
BRANCH   1  18
HETATM   18  N2  UNL     1      23.554   1.745  51.018  1.00  0.00    -0.322 N 
HETATM   19  C6  UNL     1      22.755   1.304  52.108  1.00  0.00     0.245 C 
HETATM   20  O1  UNL     1      21.879   2.149  52.431  1.00  0.00    -0.268 OA
HETATM   21  H11 UNL     1      24.322   1.093  50.677  1.00  0.00     0.169 HD
BRANCH  19  22
HETATM   22  C5  UNL     1      22.985   0.007  52.727  1.00  0.00     0.072 C 
HETATM   23  C4  UNL     1      24.063  -0.275  53.409  1.00  0.00     0.008 C 
BRANCH  23  24
HETATM   24  C3  UNL     1      25.280   0.450  53.782  1.00  0.00     0.299 C 
BRANCH  24  25
HETATM   25  N1  UNL     1      26.408  -0.110  53.059  1.00  0.00     0.083 N 
HETATM   26  C1  UNL     1      26.695   0.723  51.916  1.00  0.00     0.309 C 
HETATM   27  C2  UNL     1      27.574  -0.121  53.917  1.00  0.00     0.309 C 
ENDBRANCH  24  25
ENDBRANCH  23  24
ENDBRANCH  19  22
ENDBRANCH   1  18
TORSDOF 4
ENDMDL
