MODEL 1
REMARK VINA RESULT:      -8.4      0.000      0.000
REMARK  7 active torsions:
REMARK  status: ('A' for Active; 'I' for Inactive)
REMARK    1  A    between atoms: N1_1  and  C1_2 
REMARK    2  A    between atoms: C3_4  and  N2_5 
REMARK    3  A    between atoms: N2_5  and  C4_6 
REMARK    4  A    between atoms: C6_8  and  N3_9 
REMARK    5  A    between atoms: C14_20  and  O1_21 
REMARK    6  A    between atoms: O1_21  and  C15_22 
REMARK    7  A    between atoms: C15_22  and  C16_23 
ROOT
HETATM    1  C1  UNL     1      22.728  -1.022  54.579  1.00  0.00     0.063 A 
HETATM    2  C2  UNL     1      21.357  -1.309  54.407  1.00  0.00     0.061 A 
HETATM    3  C3  UNL     1      20.702  -0.747  53.331  1.00  0.00     0.037 A 
HETATM    4  C12 UNL     1      21.322   0.063  52.421  1.00  0.00     0.056 A 
HETATM    5  C13 UNL     1      22.662   0.347  52.572  1.00  0.00     0.071 A 
HETATM    6 CL1  UNL     1      23.684   1.376  51.563  1.00  0.00    -0.081 Cl
HETATM    7  C14 UNL     1      23.293  -0.200  53.634  1.00  0.00     0.117 A 
ENDROOT
BRANCH   3   8
HETATM    8  N2  UNL     1      19.339  -1.012  53.185  1.00  0.00    -0.341 N 
HETATM    9  H4  UNL     1      19.132  -0.497  54.138  1.00  0.00     0.167 HD
BRANCH   8  10
HETATM   10  C4  UNL     1      17.980  -1.279  53.032  1.00  0.00     0.133 A 
HETATM   11  C5  UNL     1      17.436  -2.550  53.069  1.00  0.00     0.100 A 
HETATM   12  C6  UNL     1      16.027  -2.579  52.868  1.00  0.00     0.130 A 
HETATM   13  N4  UNL     1      15.338  -1.511  52.677  1.00  0.00    -0.224 NA
HETATM   14  C11 UNL     1      15.870  -0.270  52.641  1.00  0.00     0.237 A 
HETATM   15  N5  UNL     1      17.184  -0.177  52.813  1.00  0.00    -0.224 NA
BRANCH  12  16
HETATM   16  N3  UNL     1      15.785  -3.981  52.863  1.00  0.00    -0.366 N 
HETATM   17  C7  UNL     1      14.856  -4.984  52.409  1.00  0.00     0.124 C 
HETATM   18  C8  UNL     1      14.291  -5.350  53.826  1.00  0.00     0.021 C 
HETATM   19  C9  UNL     1      15.554  -5.234  54.693  1.00  0.00     0.021 C 
HETATM   20  C10 UNL     1      16.630  -4.917  53.587  1.00  0.00     0.124 C 
ENDBRANCH  12  16
ENDBRANCH   8  10
ENDBRANCH   3   8
BRANCH   1  21
HETATM   21  N1  UNL     1      23.204  -1.701  55.775  1.00  0.00    -0.397 N 
HETATM   22  H1  UNL     1      23.937  -2.363  55.508  1.00  0.00     0.156 HD
HETATM   23  H2  UNL     1      22.812  -1.480  56.706  1.00  0.00     0.156 HD
ENDBRANCH   1  21
BRANCH   7  24
HETATM   24  O1  UNL     1      24.554  -0.120  54.079  1.00  0.00    -0.343 OA
BRANCH  24  25
HETATM   25  C15 UNL     1      25.705  -0.830  53.761  1.00  0.00     0.214 C 
BRANCH  25  26
HETATM   26  C16 UNL     1      26.786   0.243  53.762  1.00  0.00    -0.031 A 
HETATM   27  C17 UNL     1      26.557   1.625  53.790  1.00  0.00     0.009 A 
HETATM   28  C18 UNL     1      27.690   2.409  53.728  1.00  0.00     0.004 A 
HETATM   29  C19 UNL     1      28.941   1.829  53.643  1.00  0.00     0.042 A 
HETATM   30  C20 UNL     1      29.146   0.436  53.620  1.00  0.00     0.117 A 
HETATM   31  F1  UNL     1      30.396  -0.073  53.531  1.00  0.00    -0.206 F 
HETATM   32  C21 UNL     1      28.050  -0.368  53.676  1.00  0.00     0.051 A 
ENDBRANCH  25  26
ENDBRANCH  24  25
ENDBRANCH   7  24
TORSDOF 7
ENDMDL
MODEL 2
REMARK VINA RESULT:      -8.1      7.107     12.471
REMARK  7 active torsions:
REMARK  status: ('A' for Active; 'I' for Inactive)
REMARK    1  A    between atoms: N1_1  and  C1_2 
REMARK    2  A    between atoms: C3_4  and  N2_5 
REMARK    3  A    between atoms: N2_5  and  C4_6 
REMARK    4  A    between atoms: C6_8  and  N3_9 
REMARK    5  A    between atoms: C14_20  and  O1_21 
REMARK    6  A    between atoms: O1_21  and  C15_22 
REMARK    7  A    between atoms: C15_22  and  C16_23 
ROOT
HETATM    1  C1  UNL     1      25.679   2.473  51.003  1.00  0.00     0.063 A 
HETATM    2  C2  UNL     1      26.665   3.229  50.333  1.00  0.00     0.061 A 
HETATM    3  C3  UNL     1      26.273   4.374  49.673  1.00  0.00     0.037 A 
HETATM    4  C12 UNL     1      24.980   4.815  49.648  1.00  0.00     0.056 A 
HETATM    5  C13 UNL     1      24.007   4.091  50.302  1.00  0.00     0.071 A 
HETATM    6 CL1  UNL     1      22.274   4.423  50.400  1.00  0.00    -0.081 Cl
HETATM    7  C14 UNL     1      24.398   2.966  50.938  1.00  0.00     0.117 A 
ENDROOT
BRANCH   3   8
HETATM    8  N2  UNL     1      27.249   5.100  48.988  1.00  0.00    -0.341 N 
HETATM    9  H4  UNL     1      27.222   5.882  49.766  1.00  0.00     0.167 HD
BRANCH   8  10
HETATM   10  C4  UNL     1      28.224   5.819  48.298  1.00  0.00     0.133 A 
HETATM   11  C5  UNL     1      29.544   5.420  48.190  1.00  0.00     0.100 A 
HETATM   12  C6  UNL     1      30.360   6.326  47.455  1.00  0.00     0.130 A 
HETATM   13  N4  UNL     1      29.896   7.409  46.942  1.00  0.00    -0.224 NA
HETATM   14  C11 UNL     1      28.606   7.798  47.049  1.00  0.00     0.237 A 
HETATM   15  N5  UNL     1      27.794   6.999  47.732  1.00  0.00    -0.224 NA
BRANCH  12  16
HETATM   16  N3  UNL     1      31.636   5.712  47.596  1.00  0.00    -0.366 N 
HETATM   17  C7  UNL     1      33.033   6.000  47.794  1.00  0.00     0.124 C 
HETATM   18  C8  UNL     1      33.499   5.593  46.352  1.00  0.00     0.021 C 
HETATM   19  C9  UNL     1      32.582   4.394  46.066  1.00  0.00     0.021 C 
HETATM   20  C10 UNL     1      31.828   4.278  47.444  1.00  0.00     0.124 C 
ENDBRANCH  12  16
ENDBRANCH   8  10
ENDBRANCH   3   8
BRANCH   1  21
HETATM   21  N1  UNL     1      26.309   1.311  51.609  1.00  0.00    -0.397 N 
HETATM   22  H1  UNL     1      27.245   1.573  51.931  1.00  0.00     0.156 HD
HETATM   23  H2  UNL     1      25.815   0.405  51.669  1.00  0.00     0.156 HD
ENDBRANCH   1  21
BRANCH   7  24
HETATM   24  O1  UNL     1      23.728   2.042  51.639  1.00  0.00    -0.343 OA
BRANCH  24  25
HETATM   25  C15 UNL     1      22.675   1.197  51.307  1.00  0.00     0.214 C 
BRANCH  25  26
HETATM   26  C16 UNL     1      22.510   0.341  52.555  1.00  0.00    -0.031 A 
HETATM   27  C17 UNL     1      23.537  -0.001  53.446  1.00  0.00     0.009 A 
HETATM   28  C18 UNL     1      23.164  -0.836  54.479  1.00  0.00     0.004 A 
HETATM   29  C19 UNL     1      21.860  -1.280  54.587  1.00  0.00     0.042 A 
HETATM   30  C20 UNL     1      20.844  -0.919  53.681  1.00  0.00     0.117 A 
HETATM   31  F1  UNL     1      19.586  -1.389  53.836  1.00  0.00    -0.206 F 
HETATM   32  C21 UNL     1      21.177  -0.099  52.647  1.00  0.00     0.051 A 
ENDBRANCH  25  26
ENDBRANCH  24  25
ENDBRANCH   7  24
TORSDOF 7
ENDMDL
MODEL 3
REMARK VINA RESULT:      -8.0      1.672      2.150
REMARK  7 active torsions:
REMARK  status: ('A' for Active; 'I' for Inactive)
REMARK    1  A    between atoms: N1_1  and  C1_2 
REMARK    2  A    between atoms: C3_4  and  N2_5 
REMARK    3  A    between atoms: N2_5  and  C4_6 
REMARK    4  A    between atoms: C6_8  and  N3_9 
REMARK    5  A    between atoms: C14_20  and  O1_21 
REMARK    6  A    between atoms: O1_21  and  C15_22 
REMARK    7  A    between atoms: C15_22  and  C16_23 
ROOT
HETATM    1  C1  UNL     1      22.816   0.545  52.399  1.00  0.00     0.063 A 
HETATM    2  C2  UNL     1      21.435   0.481  52.118  1.00  0.00     0.061 A 
HETATM    3  C3  UNL     1      20.625  -0.229  52.979  1.00  0.00     0.037 A 
HETATM    4  C12 UNL     1      21.096  -0.862  54.094  1.00  0.00     0.056 A 
HETATM    5  C13 UNL     1      22.442  -0.804  54.386  1.00  0.00     0.071 A 
HETATM    6 CL1  UNL     1      23.304  -1.549  55.736  1.00  0.00    -0.081 Cl
HETATM    7  C14 UNL     1      23.229  -0.113  53.532  1.00  0.00     0.117 A 
ENDROOT
BRANCH   3   8
HETATM    8  N2  UNL     1      19.264  -0.313  52.677  1.00  0.00    -0.341 N 
HETATM    9  H4  UNL     1      19.163  -1.181  53.350  1.00  0.00     0.167 HD
BRANCH   8  10
HETATM   10  C4  UNL     1      17.907  -0.390  52.371  1.00  0.00     0.133 A 
HETATM   11  C5  UNL     1      17.114  -1.487  52.656  1.00  0.00     0.100 A 
HETATM   12  C6  UNL     1      15.763  -1.346  52.231  1.00  0.00     0.130 A 
HETATM   13  N4  UNL     1      15.333  -0.287  51.643  1.00  0.00    -0.224 NA
HETATM   14  C11 UNL     1      16.109   0.784  51.364  1.00  0.00     0.237 A 
HETATM   15  N5  UNL     1      17.385   0.710  51.728  1.00  0.00    -0.224 NA
BRANCH  12  16
HETATM   16  N3  UNL     1      15.241  -2.627  52.564  1.00  0.00    -0.366 N 
HETATM   17  C7  UNL     1      15.628  -3.983  52.860  1.00  0.00     0.124 C 
HETATM   18  C8  UNL     1      15.087  -4.611  51.528  1.00  0.00     0.021 C 
HETATM   19  C9  UNL     1      13.814  -3.782  51.298  1.00  0.00     0.021 C 
HETATM   20  C10 UNL     1      13.812  -2.897  52.602  1.00  0.00     0.124 C 
ENDBRANCH  12  16
ENDBRANCH   8  10
ENDBRANCH   3   8
BRANCH   1  21
HETATM   21  N1  UNL     1      23.471   1.324  51.360  1.00  0.00    -0.397 N 
HETATM   22  H1  UNL     1      24.410   1.578  51.681  1.00  0.00     0.156 HD
HETATM   23  H2  UNL     1      22.994   1.534  50.468  1.00  0.00     0.156 HD
ENDBRANCH   1  21
BRANCH   7  24
HETATM   24  O1  UNL     1      24.547   0.124  53.505  1.00  0.00    -0.343 OA
BRANCH  24  25
HETATM   25  C15 UNL     1      25.632  -0.663  53.138  1.00  0.00     0.214 C 
BRANCH  25  26
HETATM   26  C16 UNL     1      26.822   0.257  53.369  1.00  0.00    -0.031 A 
HETATM   27  C17 UNL     1      26.770   1.657  53.409  1.00  0.00     0.009 A 
HETATM   28  C18 UNL     1      27.986   2.285  53.575  1.00  0.00     0.004 A 
HETATM   29  C19 UNL     1      29.148   1.547  53.689  1.00  0.00     0.042 A 
HETATM   30  C20 UNL     1      29.176   0.140  53.649  1.00  0.00     0.117 A 
HETATM   31  F1  UNL     1      30.346  -0.529  53.762  1.00  0.00    -0.206 F 
HETATM   32  C21 UNL     1      27.993  -0.514  53.483  1.00  0.00     0.051 A 
ENDBRANCH  25  26
ENDBRANCH  24  25
ENDBRANCH   7  24
TORSDOF 7
ENDMDL
MODEL 4
REMARK VINA RESULT:      -7.9      2.064      3.829
REMARK  7 active torsions:
REMARK  status: ('A' for Active; 'I' for Inactive)
REMARK    1  A    between atoms: N1_1  and  C1_2 
REMARK    2  A    between atoms: C3_4  and  N2_5 
REMARK    3  A    between atoms: N2_5  and  C4_6 
REMARK    4  A    between atoms: C6_8  and  N3_9 
REMARK    5  A    between atoms: C14_20  and  O1_21 
REMARK    6  A    between atoms: O1_21  and  C15_22 
REMARK    7  A    between atoms: C15_22  and  C16_23 
ROOT
HETATM    1  C1  UNL     1      23.264  -0.527  54.147  1.00  0.00     0.063 A 
HETATM    2  C2  UNL     1      21.879  -0.637  53.899  1.00  0.00     0.061 A 
HETATM    3  C3  UNL     1      21.353   0.036  52.817  1.00  0.00     0.037 A 
HETATM    4  C12 UNL     1      22.111   0.794  51.970  1.00  0.00     0.056 A 
HETATM    5  C13 UNL     1      23.467   0.906  52.194  1.00  0.00     0.071 A 
HETATM    6 CL1  UNL     1      24.656   1.836  51.276  1.00  0.00    -0.081 Cl
HETATM    7  C14 UNL     1      23.971   0.251  53.262  1.00  0.00     0.117 A 
ENDROOT
BRANCH   3   8
HETATM    8  N2  UNL     1      19.977  -0.054  52.597  1.00  0.00    -0.341 N 
HETATM    9  H4  UNL     1      19.786   0.513  53.523  1.00  0.00     0.167 HD
BRANCH   8  10
HETATM   10  C4  UNL     1      18.605  -0.148  52.370  1.00  0.00     0.133 A 
HETATM   11  C5  UNL     1      17.856   0.838  51.753  1.00  0.00     0.100 A 
HETATM   12  C6  UNL     1      16.471   0.528  51.651  1.00  0.00     0.130 A 
HETATM   13  N4  UNL     1      15.978  -0.573  52.092  1.00  0.00    -0.224 NA
HETATM   14  C11 UNL     1      16.710  -1.535  52.696  1.00  0.00     0.237 A 
HETATM   15  N5  UNL     1      18.011  -1.302  52.830  1.00  0.00    -0.224 NA
BRANCH  12  16
HETATM   16  N3  UNL     1      15.968   1.731  51.080  1.00  0.00    -0.366 N 
HETATM   17  C7  UNL     1      16.361   3.047  50.645  1.00  0.00     0.124 C 
HETATM   18  C8  UNL     1      15.647   3.831  51.801  1.00  0.00     0.021 C 
HETATM   19  C9  UNL     1      14.372   2.994  51.990  1.00  0.00     0.021 C 
HETATM   20  C10 UNL     1      14.550   1.939  50.834  1.00  0.00     0.124 C 
ENDBRANCH  12  16
ENDBRANCH   8  10
ENDBRANCH   3   8
BRANCH   1  21
HETATM   21  N1  UNL     1      23.592  -1.298  55.336  1.00  0.00    -0.397 N 
HETATM   22  H1  UNL     1      24.417  -1.871  55.140  1.00  0.00     0.156 HD
HETATM   23  H2  UNL     1      23.030  -1.212  56.200  1.00  0.00     0.156 HD
ENDBRANCH   1  21
BRANCH   7  24
HETATM   24  O1  UNL     1      25.208   0.161  53.769  1.00  0.00    -0.343 OA
BRANCH  24  25
HETATM   25  C15 UNL     1      26.165   1.121  54.077  1.00  0.00     0.214 C 
BRANCH  25  26
HETATM   26  C16 UNL     1      27.478   0.378  53.880  1.00  0.00    -0.031 A 
HETATM   27  C17 UNL     1      28.755   0.916  54.091  1.00  0.00     0.009 A 
HETATM   28  C18 UNL     1      29.805   0.073  53.793  1.00  0.00     0.004 A 
HETATM   29  C19 UNL     1      29.568  -1.204  53.322  1.00  0.00     0.042 A 
HETATM   30  C20 UNL     1      28.275  -1.725  53.121  1.00  0.00     0.117 A 
HETATM   31  F1  UNL     1      28.105  -2.982  52.653  1.00  0.00    -0.206 F 
HETATM   32  C21 UNL     1      27.214  -0.919  53.402  1.00  0.00     0.051 A 
ENDBRANCH  25  26
ENDBRANCH  24  25
ENDBRANCH   7  24
TORSDOF 7
ENDMDL
MODEL 5
REMARK VINA RESULT:      -7.9      2.220      3.969
REMARK  7 active torsions:
REMARK  status: ('A' for Active; 'I' for Inactive)
REMARK    1  A    between atoms: N1_1  and  C1_2 
REMARK    2  A    between atoms: C3_4  and  N2_5 
REMARK    3  A    between atoms: N2_5  and  C4_6 
REMARK    4  A    between atoms: C6_8  and  N3_9 
REMARK    5  A    between atoms: C14_20  and  O1_21 
REMARK    6  A    between atoms: O1_21  and  C15_22 
REMARK    7  A    between atoms: C15_22  and  C16_23 
ROOT
HETATM    1  C1  UNL     1      23.027   0.593  52.390  1.00  0.00     0.063 A 
HETATM    2  C2  UNL     1      21.644   0.573  52.108  1.00  0.00     0.061 A 
HETATM    3  C3  UNL     1      20.813  -0.120  52.963  1.00  0.00     0.037 A 
HETATM    4  C12 UNL     1      21.264  -0.776  54.073  1.00  0.00     0.056 A 
HETATM    5  C13 UNL     1      22.611  -0.761  54.365  1.00  0.00     0.071 A 
HETATM    6 CL1  UNL     1      23.449  -1.544  55.709  1.00  0.00    -0.081 Cl
HETATM    7  C14 UNL     1      23.419  -0.087  53.518  1.00  0.00     0.117 A 
ENDROOT
BRANCH   3   8
HETATM    8  N2  UNL     1      19.450  -0.159  52.660  1.00  0.00    -0.341 N 
HETATM    9  H4  UNL     1      19.214   0.292  53.638  1.00  0.00     0.167 HD
BRANCH   8  10
HETATM   10  C4  UNL     1      18.092  -0.202  52.351  1.00  0.00     0.133 A 
HETATM   11  C5  UNL     1      17.386   0.866  51.829  1.00  0.00     0.100 A 
HETATM   12  C6  UNL     1      16.006   0.594  51.613  1.00  0.00     0.130 A 
HETATM   13  N4  UNL     1      15.480  -0.548  51.880  1.00  0.00    -0.224 NA
HETATM   14  C11 UNL     1      16.171  -1.592  52.391  1.00  0.00     0.237 A 
HETATM   15  N5  UNL     1      17.464  -1.398  52.623  1.00  0.00    -0.224 NA
BRANCH  12  16
HETATM   16  N3  UNL     1      15.545   1.868  51.179  1.00  0.00    -0.366 N 
HETATM   17  C7  UNL     1      15.995   3.147  50.693  1.00  0.00     0.124 C 
HETATM   18  C8  UNL     1      15.630   3.959  51.985  1.00  0.00     0.021 C 
HETATM   19  C9  UNL     1      14.330   3.266  52.421  1.00  0.00     0.021 C 
HETATM   20  C10 UNL     1      14.142   2.246  51.236  1.00  0.00     0.124 C 
ENDBRANCH  12  16
ENDBRANCH   8  10
ENDBRANCH   3   8
BRANCH   1  21
HETATM   21  N1  UNL     1      23.706   1.361  51.359  1.00  0.00    -0.397 N 
HETATM   22  H1  UNL     1      23.815   0.773  50.528  1.00  0.00     0.156 HD
HETATM   23  H2  UNL     1      23.991   2.341  51.522  1.00  0.00     0.156 HD
ENDBRANCH   1  21
BRANCH   7  24
HETATM   24  O1  UNL     1      24.743   0.110  53.493  1.00  0.00    -0.343 OA
BRANCH  24  25
HETATM   25  C15 UNL     1      25.804  -0.707  53.122  1.00  0.00     0.214 C 
BRANCH  25  26
HETATM   26  C16 UNL     1      27.023   0.168  53.379  1.00  0.00    -0.031 A 
HETATM   27  C17 UNL     1      27.018   1.568  53.441  1.00  0.00     0.009 A 
HETATM   28  C18 UNL     1      28.254   2.152  53.630  1.00  0.00     0.004 A 
HETATM   29  C19 UNL     1      29.389   1.372  53.743  1.00  0.00     0.042 A 
HETATM   30  C20 UNL     1      29.368  -0.035  53.681  1.00  0.00     0.117 A 
HETATM   31  F1  UNL     1      30.513  -0.745  53.794  1.00  0.00    -0.206 F 
HETATM   32  C21 UNL     1      28.166  -0.645  53.492  1.00  0.00     0.051 A 
ENDBRANCH  25  26
ENDBRANCH  24  25
ENDBRANCH   7  24
TORSDOF 7
ENDMDL
MODEL 6
REMARK VINA RESULT:      -7.7      7.258     12.343
REMARK  7 active torsions:
REMARK  status: ('A' for Active; 'I' for Inactive)
REMARK    1  A    between atoms: N1_1  and  C1_2 
REMARK    2  A    between atoms: C3_4  and  N2_5 
REMARK    3  A    between atoms: N2_5  and  C4_6 
REMARK    4  A    between atoms: C6_8  and  N3_9 
REMARK    5  A    between atoms: C14_20  and  O1_21 
REMARK    6  A    between atoms: O1_21  and  C15_22 
REMARK    7  A    between atoms: C15_22  and  C16_23 
ROOT
HETATM    1  C1  UNL     1      25.492   2.418  51.088  1.00  0.00     0.063 A 
HETATM    2  C2  UNL     1      26.517   3.174  50.481  1.00  0.00     0.061 A 
HETATM    3  C3  UNL     1      26.158   4.213  49.649  1.00  0.00     0.037 A 
HETATM    4  C12 UNL     1      24.858   4.551  49.397  1.00  0.00     0.056 A 
HETATM    5  C13 UNL     1      23.845   3.827  49.988  1.00  0.00     0.071 A 
HETATM    6 CL1  UNL     1      22.100   4.036  49.808  1.00  0.00    -0.081 Cl
HETATM    7  C14 UNL     1      24.207   2.805  50.793  1.00  0.00     0.117 A 
ENDROOT
BRANCH   3   8
HETATM    8  N2  UNL     1      27.178   4.937  49.029  1.00  0.00    -0.341 N 
HETATM    9  H4  UNL     1      26.444   5.395  48.345  1.00  0.00     0.167 HD
BRANCH   8  10
HETATM   10  C4  UNL     1      28.202   5.656  48.414  1.00  0.00     0.133 A 
HETATM   11  C5  UNL     1      28.028   6.896  47.827  1.00  0.00     0.100 A 
HETATM   12  C6  UNL     1      29.213   7.427  47.244  1.00  0.00     0.130 A 
HETATM   13  N4  UNL     1      30.334   6.801  47.273  1.00  0.00    -0.224 NA
HETATM   14  C11 UNL     1      30.503   5.589  47.846  1.00  0.00     0.237 A 
HETATM   15  N5  UNL     1      29.431   5.035  48.401  1.00  0.00    -0.224 NA
BRANCH  12  16
HETATM   16  N3  UNL     1      28.710   8.622  46.657  1.00  0.00    -0.366 N 
HETATM   17  C7  UNL     1      28.821   9.464  45.494  1.00  0.00     0.124 C 
HETATM   18  C8  UNL     1      29.541  10.658  46.214  1.00  0.00     0.021 C 
HETATM   19  C9  UNL     1      28.849  10.645  47.585  1.00  0.00     0.021 C 
HETATM   20  C10 UNL     1      27.788   9.502  47.357  1.00  0.00     0.124 C 
ENDBRANCH  12  16
ENDBRANCH   8  10
ENDBRANCH   3   8
BRANCH   1  21
HETATM   21  N1  UNL     1      26.096   1.374  51.901  1.00  0.00    -0.397 N 
HETATM   22  H1  UNL     1      25.964   0.474  51.432  1.00  0.00     0.156 HD
HETATM   23  H2  UNL     1      26.569   1.597  52.793  1.00  0.00     0.156 HD
ENDBRANCH   1  21
BRANCH   7  24
HETATM   24  O1  UNL     1      23.498   1.909  51.493  1.00  0.00    -0.343 OA
BRANCH  24  25
HETATM   25  C15 UNL     1      22.526   0.988  51.122  1.00  0.00     0.214 C 
BRANCH  25  26
HETATM   26  C16 UNL     1      22.164   0.314  52.438  1.00  0.00    -0.031 A 
HETATM   27  C17 UNL     1      20.870   0.200  52.962  1.00  0.00     0.009 A 
HETATM   28  C18 UNL     1      20.788  -0.402  54.200  1.00  0.00     0.004 A 
HETATM   29  C19 UNL     1      21.929  -0.845  54.842  1.00  0.00     0.042 A 
HETATM   30  C20 UNL     1      23.220  -0.722  54.293  1.00  0.00     0.117 A 
HETATM   31  F1  UNL     1      24.301  -1.171  54.971  1.00  0.00    -0.206 F 
HETATM   32  C21 UNL     1      23.338  -0.130  53.074  1.00  0.00     0.051 A 
ENDBRANCH  25  26
ENDBRANCH  24  25
ENDBRANCH   7  24
TORSDOF 7
ENDMDL
MODEL 7
REMARK VINA RESULT:      -7.7      6.331      8.922
REMARK  7 active torsions:
REMARK  status: ('A' for Active; 'I' for Inactive)
REMARK    1  A    between atoms: N1_1  and  C1_2 
REMARK    2  A    between atoms: C3_4  and  N2_5 
REMARK    3  A    between atoms: N2_5  and  C4_6 
REMARK    4  A    between atoms: C6_8  and  N3_9 
REMARK    5  A    between atoms: C14_20  and  O1_21 
REMARK    6  A    between atoms: O1_21  and  C15_22 
REMARK    7  A    between atoms: C15_22  and  C16_23 
ROOT
HETATM    1  C1  UNL     1      26.899   4.988  48.937  1.00  0.00     0.063 A 
HETATM    2  C2  UNL     1      26.803   3.802  49.696  1.00  0.00     0.061 A 
HETATM    3  C3  UNL     1      25.620   3.543  50.356  1.00  0.00     0.037 A 
HETATM    4  C12 UNL     1      24.537   4.375  50.300  1.00  0.00     0.056 A 
HETATM    5  C13 UNL     1      24.614   5.534  49.558  1.00  0.00     0.071 A 
HETATM    6 CL1  UNL     1      23.381   6.782  49.344  1.00  0.00    -0.081 Cl
HETATM    7  C14 UNL     1      25.780   5.784  48.923  1.00  0.00     0.117 A 
ENDROOT
BRANCH   3   8
HETATM    8  N2  UNL     1      25.543   2.383  51.129  1.00  0.00    -0.341 N 
HETATM    9  H4  UNL     1      24.811   2.869  51.795  1.00  0.00     0.167 HD
BRANCH   8  10
HETATM   10  C4  UNL     1      25.471   1.221  51.895  1.00  0.00     0.133 A 
HETATM   11  C5  UNL     1      24.365   0.856  52.640  1.00  0.00     0.100 A 
HETATM   12  C6  UNL     1      24.531  -0.361  53.358  1.00  0.00     0.130 A 
HETATM   13  N4  UNL     1      25.615  -1.049  53.304  1.00  0.00    -0.224 NA
HETATM   14  C11 UNL     1      26.696  -0.692  52.577  1.00  0.00     0.237 A 
HETATM   15  N5  UNL     1      26.607   0.442  51.890  1.00  0.00    -0.224 NA
BRANCH  12  16
HETATM   16  N3  UNL     1      23.305  -0.418  54.078  1.00  0.00    -0.366 N 
HETATM   17  C7  UNL     1      22.632  -1.111  55.146  1.00  0.00     0.124 C 
HETATM   18  C8  UNL     1      21.608  -1.877  54.237  1.00  0.00     0.021 C 
HETATM   19  C9  UNL     1      21.313  -0.821  53.160  1.00  0.00     0.021 C 
HETATM   20  C10 UNL     1      22.153   0.392  53.713  1.00  0.00     0.124 C 
ENDBRANCH  12  16
ENDBRANCH   8  10
ENDBRANCH   3   8
BRANCH   1  21
HETATM   21  N1  UNL     1      28.227   5.062  48.348  1.00  0.00    -0.397 N 
HETATM   22  H1  UNL     1      28.220   4.561  47.455  1.00  0.00     0.156 HD
HETATM   23  H2  UNL     1      28.995   5.568  48.821  1.00  0.00     0.156 HD
ENDBRANCH   1  21
BRANCH   7  24
HETATM   24  O1  UNL     1      26.192   6.799  48.152  1.00  0.00    -0.343 OA
BRANCH  24  25
HETATM   25  C15 UNL     1      26.329   8.160  48.392  1.00  0.00     0.214 C 
BRANCH  25  26
HETATM   26  C16 UNL     1      27.760   8.447  47.959  1.00  0.00    -0.031 A 
HETATM   27  C17 UNL     1      28.285   8.206  46.682  1.00  0.00     0.009 A 
HETATM   28  C18 UNL     1      29.626   8.492  46.534  1.00  0.00     0.004 A 
HETATM   29  C19 UNL     1      30.361   8.979  47.597  1.00  0.00     0.042 A 
HETATM   30  C20 UNL     1      29.811   9.216  48.872  1.00  0.00     0.117 A 
HETATM   31  F1  UNL     1      30.582   9.690  49.876  1.00  0.00    -0.206 F 
HETATM   32  C21 UNL     1      28.490   8.942  49.054  1.00  0.00     0.051 A 
ENDBRANCH  25  26
ENDBRANCH  24  25
ENDBRANCH   7  24
TORSDOF 7
ENDMDL
MODEL 8
REMARK VINA RESULT:      -7.5      6.879     11.889
REMARK  7 active torsions:
REMARK  status: ('A' for Active; 'I' for Inactive)
REMARK    1  A    between atoms: N1_1  and  C1_2 
REMARK    2  A    between atoms: C3_4  and  N2_5 
REMARK    3  A    between atoms: N2_5  and  C4_6 
REMARK    4  A    between atoms: C6_8  and  N3_9 
REMARK    5  A    between atoms: C14_20  and  O1_21 
REMARK    6  A    between atoms: O1_21  and  C15_22 
REMARK    7  A    between atoms: C15_22  and  C16_23 
ROOT
HETATM    1  C1  UNL     1      23.692   4.558  51.877  1.00  0.00     0.063 A 
HETATM    2  C2  UNL     1      24.573   5.343  51.103  1.00  0.00     0.061 A 
HETATM    3  C3  UNL     1      24.777   4.991  49.786  1.00  0.00     0.037 A 
HETATM    4  C12 UNL     1      24.158   3.926  49.194  1.00  0.00     0.056 A 
HETATM    5  C13 UNL     1      23.289   3.154  49.935  1.00  0.00     0.071 A 
HETATM    6 CL1  UNL     1      22.389   1.721  49.424  1.00  0.00    -0.081 Cl
HETATM    7  C14 UNL     1      23.103   3.501  51.227  1.00  0.00     0.117 A 
ENDROOT
BRANCH   3   8
HETATM    8  N2  UNL     1      25.674   5.755  49.036  1.00  0.00    -0.341 N 
HETATM    9  H4  UNL     1      24.991   5.716  48.170  1.00  0.00     0.167 HD
BRANCH   8  10
HETATM   10  C4  UNL     1      26.573   6.518  48.294  1.00  0.00     0.133 A 
HETATM   11  C5  UNL     1      27.925   6.241  48.201  1.00  0.00     0.100 A 
HETATM   12  C6  UNL     1      28.649   7.171  47.403  1.00  0.00     0.130 A 
HETATM   13  N4  UNL     1      28.083   8.169  46.824  1.00  0.00    -0.224 NA
HETATM   14  C11 UNL     1      26.761   8.439  46.916  1.00  0.00     0.237 A 
HETATM   15  N5  UNL     1      26.031   7.611  47.655  1.00  0.00    -0.224 NA
BRANCH  12  16
HETATM   16  N3  UNL     1      29.978   6.693  47.573  1.00  0.00    -0.366 N 
HETATM   17  C7  UNL     1      30.757   5.674  48.229  1.00  0.00     0.124 C 
HETATM   18  C8  UNL     1      31.451   6.627  49.264  1.00  0.00     0.021 C 
HETATM   19  C9  UNL     1      31.658   7.892  48.418  1.00  0.00     0.021 C 
HETATM   20  C10 UNL     1      31.130   7.390  47.022  1.00  0.00     0.124 C 
ENDBRANCH  12  16
ENDBRANCH   8  10
ENDBRANCH   3   8
BRANCH   1  21
HETATM   21  N1  UNL     1      23.643   5.098  53.226  1.00  0.00    -0.397 N 
HETATM   22  H1  UNL     1      22.716   5.503  53.386  1.00  0.00     0.156 HD
HETATM   23  H2  UNL     1      24.458   5.033  53.858  1.00  0.00     0.156 HD
ENDBRANCH   1  21
BRANCH   7  24
HETATM   24  O1  UNL     1      22.362   2.971  52.209  1.00  0.00    -0.343 OA
BRANCH  24  25
HETATM   25  C15 UNL     1      21.223   2.176  52.197  1.00  0.00     0.214 C 
BRANCH  25  26
HETATM   26  C16 UNL     1      21.610   1.001  53.084  1.00  0.00    -0.031 A 
HETATM   27  C17 UNL     1      20.818   0.460  54.106  1.00  0.00     0.009 A 
HETATM   28  C18 UNL     1      21.399  -0.568  54.818  1.00  0.00     0.004 A 
HETATM   29  C19 UNL     1      22.675  -1.001  54.511  1.00  0.00     0.042 A 
HETATM   30  C20 UNL     1      23.451  -0.444  53.476  1.00  0.00     0.117 A 
HETATM   31  F1  UNL     1      24.696  -0.907  53.225  1.00  0.00    -0.206 F 
HETATM   32  C21 UNL     1      22.910   0.575  52.755  1.00  0.00     0.051 A 
ENDBRANCH  25  26
ENDBRANCH  24  25
ENDBRANCH   7  24
TORSDOF 7
ENDMDL
MODEL 9
REMARK VINA RESULT:      -7.4      7.709     13.381
REMARK  7 active torsions:
REMARK  status: ('A' for Active; 'I' for Inactive)
REMARK    1  A    between atoms: N1_1  and  C1_2 
REMARK    2  A    between atoms: C3_4  and  N2_5 
REMARK    3  A    between atoms: N2_5  and  C4_6 
REMARK    4  A    between atoms: C6_8  and  N3_9 
REMARK    5  A    between atoms: C14_20  and  O1_21 
REMARK    6  A    between atoms: O1_21  and  C15_22 
REMARK    7  A    between atoms: C15_22  and  C16_23 
ROOT
HETATM    1  C1  UNL     1      25.817   3.722  49.705  1.00  0.00     0.063 A 
HETATM    2  C2  UNL     1      27.121   4.190  49.438  1.00  0.00     0.061 A 
HETATM    3  C3  UNL     1      27.262   5.423  48.836  1.00  0.00     0.037 A 
HETATM    4  C12 UNL     1      26.199   6.214  48.499  1.00  0.00     0.056 A 
HETATM    5  C13 UNL     1      24.920   5.773  48.760  1.00  0.00     0.071 A 
HETATM    6 CL1  UNL     1      23.389   6.580  48.403  1.00  0.00    -0.081 Cl
HETATM    7  C14 UNL     1      24.792   4.560  49.341  1.00  0.00     0.117 A 
ENDROOT
BRANCH   3   8
HETATM    8  N2  UNL     1      28.554   5.866  48.548  1.00  0.00    -0.341 N 
HETATM    9  H4  UNL     1      28.767   5.965  49.626  1.00  0.00     0.167 HD
BRANCH   8  10
HETATM   10  C4  UNL     1      29.842   6.308  48.252  1.00  0.00     0.133 A 
HETATM   11  C5  UNL     1      30.934   5.469  48.124  1.00  0.00     0.100 A 
HETATM   12  C6  UNL     1      32.152   6.149  47.840  1.00  0.00     0.130 A 
HETATM   13  N4  UNL     1      32.213   7.426  47.712  1.00  0.00    -0.224 NA
HETATM   14  C11 UNL     1      31.145   8.245  47.838  1.00  0.00     0.237 A 
HETATM   15  N5  UNL     1      29.979   7.671  48.112  1.00  0.00    -0.224 NA
BRANCH  12  16
HETATM   16  N3  UNL     1      33.075   5.067  47.862  1.00  0.00    -0.366 N 
HETATM   17  C7  UNL     1      34.474   4.753  48.010  1.00  0.00     0.124 C 
HETATM   18  C8  UNL     1      34.716   4.336  46.517  1.00  0.00     0.021 C 
HETATM   19  C9  UNL     1      33.391   3.636  46.180  1.00  0.00     0.021 C 
HETATM   20  C10 UNL     1      32.673   3.697  47.581  1.00  0.00     0.124 C 
ENDBRANCH  12  16
ENDBRANCH   8  10
ENDBRANCH   3   8
BRANCH   1  21
HETATM   21  N1  UNL     1      25.908   2.407  50.321  1.00  0.00    -0.397 N 
HETATM   22  H1  UNL     1      25.000   1.940  50.236  1.00  0.00     0.156 HD
HETATM   23  H2  UNL     1      26.790   2.075  50.746  1.00  0.00     0.156 HD
ENDBRANCH   1  21
BRANCH   7  24
HETATM   24  O1  UNL     1      23.724   3.839  49.707  1.00  0.00    -0.343 OA
BRANCH  24  25
HETATM   25  C15 UNL     1      22.809   3.983  50.743  1.00  0.00     0.214 C 
BRANCH  25  26
HETATM   26  C16 UNL     1      22.336   2.557  50.988  1.00  0.00    -0.031 A 
HETATM   27  C17 UNL     1      21.596   1.780  50.086  1.00  0.00     0.009 A 
HETATM   28  C18 UNL     1      21.230   0.533  50.547  1.00  0.00     0.004 A 
HETATM   29  C19 UNL     1      21.588   0.121  51.816  1.00  0.00     0.042 A 
HETATM   30  C20 UNL     1      22.336   0.918  52.705  1.00  0.00     0.117 A 
HETATM   31  F1  UNL     1      22.653   0.462  53.937  1.00  0.00    -0.206 F 
HETATM   32  C21 UNL     1      22.712   2.156  52.284  1.00  0.00     0.051 A 
ENDBRANCH  25  26
ENDBRANCH  24  25
ENDBRANCH   7  24
TORSDOF 7
ENDMDL
