MODEL 1
REMARK VINA RESULT:      -8.3      0.000      0.000
REMARK  2 active torsions:
REMARK  status: ('A' for Active; 'I' for Inactive)
REMARK    1  A    between atoms: C2_3  and  O1_4 
REMARK    2  A    between atoms: O1_4  and  C3_5 
ROOT
HETATM    1  C3  UNL     1      21.401   1.072  52.933  1.00  0.00     0.123 C 
HETATM    2  C4  UNL     1      21.650   2.222  52.323  1.00  0.00     0.182 C 
HETATM    3  C5  UNL     1      21.244   3.594  52.042  1.00  0.00     0.008 C 
HETATM    4  C6  UNL     1      22.236   3.970  51.259  1.00  0.00     0.131 C 
HETATM    5  O2  UNL     1      23.396   3.981  50.513  1.00  0.00    -0.360 OA
HETATM    6  C7  UNL     1      24.630   4.010  51.164  1.00  0.00     0.202 C 
HETATM    7  C8  UNL     1      25.735   3.484  50.354  1.00  0.00     0.000 C 
HETATM    8  C9  UNL     1      26.491   2.445  50.666  1.00  0.00     0.009 C 
HETATM    9  C10 UNL     1      26.396   1.623  51.840  1.00  0.00    -0.035 A 
HETATM   10  C11 UNL     1      27.385   1.285  52.736  1.00  0.00     0.014 A 
HETATM   11  C12 UNL     1      27.147   0.490  53.838  1.00  0.00     0.033 A 
HETATM   12  C13 UNL     1      25.877   0.002  54.075  1.00  0.00     0.072 A 
HETATM   13  N1  UNL     1      25.690  -0.762  55.167  1.00  0.00    -0.241 NA
HETATM   14  C14 UNL     1      24.430  -1.227  55.394  1.00  0.00     0.235 A 
HETATM   15  N2  UNL     1      23.416  -0.917  54.534  1.00  0.00    -0.224 NA
HETATM   16  C15 UNL     1      23.631  -0.153  53.452  1.00  0.00     0.139 A 
HETATM   17  C16 UNL     1      24.887   0.341  53.179  1.00  0.00     0.039 A 
HETATM   18  C17 UNL     1      25.102   1.132  52.070  1.00  0.00     0.029 A 
HETATM   19  N3  UNL     1      22.453   0.114  52.647  1.00  0.00    -0.346 N 
HETATM   20  H14 UNL     1      22.746  -0.601  51.944  1.00  0.00     0.163 HD
ENDROOT
BRANCH   1  21
HETATM   21  O1  UNL     1      20.895  -0.018  53.681  1.00  0.00    -0.336 OA
BRANCH  21  22
HETATM   22  C2  UNL     1      19.633  -0.530  53.422  1.00  0.00     0.149 C 
HETATM   23  C1  UNL     1      18.808  -0.282  52.391  1.00  0.00     0.108 C 
HETATM   24 CL1  UNL     1      17.230  -0.953  52.115  1.00  0.00    -0.095 Cl
ENDBRANCH  21  22
ENDBRANCH   1  21
TORSDOF 2
ENDMDL
MODEL 2
REMARK VINA RESULT:      -8.2      3.786      5.939
REMARK  2 active torsions:
REMARK  status: ('A' for Active; 'I' for Inactive)
REMARK    1  A    between atoms: C2_3  and  O1_4 
REMARK    2  A    between atoms: O1_4  and  C3_5 
ROOT
HETATM    1  C3  UNL     1      25.090   3.476  49.740  1.00  0.00     0.123 C 
HETATM    2  C4  UNL     1      23.902   3.022  49.365  1.00  0.00     0.182 C 
HETATM    3  C5  UNL     1      22.968   2.726  48.284  1.00  0.00     0.008 C 
HETATM    4  C6  UNL     1      21.950   2.266  48.984  1.00  0.00     0.131 C 
HETATM    5  O2  UNL     1      21.138   1.863  50.024  1.00  0.00    -0.360 OA
HETATM    6  C7  UNL     1      21.425   0.675  50.698  1.00  0.00     0.202 C 
HETATM    7  C8  UNL     1      20.878   0.623  52.059  1.00  0.00     0.000 C 
HETATM    8  C9  UNL     1      21.585   0.493  53.168  1.00  0.00     0.009 C 
HETATM    9  C10 UNL     1      23.012   0.376  53.279  1.00  0.00    -0.035 A 
HETATM   10  C11 UNL     1      23.748  -0.581  53.940  1.00  0.00     0.014 A 
HETATM   11  C12 UNL     1      25.127  -0.576  53.954  1.00  0.00     0.033 A 
HETATM   12  C13 UNL     1      25.820   0.414  53.286  1.00  0.00     0.072 A 
HETATM   13  N1  UNL     1      27.166   0.373  53.319  1.00  0.00    -0.241 NA
HETATM   14  C14 UNL     1      27.836   1.349  52.648  1.00  0.00     0.235 A 
HETATM   15  N2  UNL     1      27.149   2.320  51.977  1.00  0.00    -0.224 NA
HETATM   16  C15 UNL     1      25.808   2.337  51.961  1.00  0.00     0.139 A 
HETATM   17  C16 UNL     1      25.084   1.371  52.625  1.00  0.00     0.039 A 
HETATM   18  C17 UNL     1      23.705   1.389  52.599  1.00  0.00     0.029 A 
HETATM   19  N3  UNL     1      25.218   3.412  51.184  1.00  0.00    -0.346 N 
HETATM   20  H14 UNL     1      25.008   3.953  52.052  1.00  0.00     0.163 HD
ENDROOT
BRANCH   1  21
HETATM   21  O1  UNL     1      26.401   3.998  49.852  1.00  0.00    -0.336 OA
BRANCH  21  22
HETATM   22  C2  UNL     1      26.827   5.025  49.023  1.00  0.00     0.149 C 
HETATM   23  C1  UNL     1      28.062   5.297  48.571  1.00  0.00     0.108 C 
HETATM   24 CL1  UNL     1      28.542   6.603  47.531  1.00  0.00    -0.095 Cl
ENDBRANCH  21  22
ENDBRANCH   1  21
TORSDOF 2
ENDMDL
MODEL 3
REMARK VINA RESULT:      -8.1      3.360      6.694
REMARK  2 active torsions:
REMARK  status: ('A' for Active; 'I' for Inactive)
REMARK    1  A    between atoms: C2_3  and  O1_4 
REMARK    2  A    between atoms: O1_4  and  C3_5 
ROOT
HETATM    1  C3  UNL     1      25.534   0.197  53.441  1.00  0.00     0.123 C 
HETATM    2  C4  UNL     1      24.719  -0.466  54.249  1.00  0.00     0.182 C 
HETATM    3  C5  UNL     1      24.512  -1.143  55.525  1.00  0.00     0.008 C 
HETATM    4  C6  UNL     1      23.255  -1.515  55.383  1.00  0.00     0.131 C 
HETATM    5  O2  UNL     1      21.988  -1.717  54.876  1.00  0.00    -0.360 OA
HETATM    6  C7  UNL     1      21.102  -0.642  54.796  1.00  0.00     0.202 C 
HETATM    7  C8  UNL     1      20.048  -0.822  53.790  1.00  0.00     0.000 C 
HETATM    8  C9  UNL     1      19.843  -0.040  52.743  1.00  0.00     0.009 C 
HETATM    9  C10 UNL     1      20.590   1.129  52.373  1.00  0.00    -0.035 A 
HETATM   10  C11 UNL     1      20.126   2.393  52.091  1.00  0.00     0.014 A 
HETATM   11  C12 UNL     1      20.966   3.435  51.758  1.00  0.00     0.033 A 
HETATM   12  C13 UNL     1      22.330   3.228  51.698  1.00  0.00     0.072 A 
HETATM   13  N1  UNL     1      23.113   4.275  51.377  1.00  0.00    -0.241 NA
HETATM   14  C14 UNL     1      24.456   4.060  51.333  1.00  0.00     0.235 A 
HETATM   15  N2  UNL     1      24.964   2.822  51.605  1.00  0.00    -0.224 NA
HETATM   16  C15 UNL     1      24.161   1.795  51.922  1.00  0.00     0.139 A 
HETATM   17  C16 UNL     1      22.795   1.963  51.980  1.00  0.00     0.039 A 
HETATM   18  C17 UNL     1      21.974   0.906  52.313  1.00  0.00     0.029 A 
HETATM   19  N3  UNL     1      24.846   0.549  52.212  1.00  0.00    -0.346 N 
HETATM   20  H14 UNL     1      24.608   0.172  51.267  1.00  0.00     0.163 HD
ENDROOT
BRANCH   1  21
HETATM   21  O1  UNL     1      26.599   0.871  52.795  1.00  0.00    -0.336 OA
BRANCH  21  22
HETATM   22  C2  UNL     1      27.916   0.522  53.050  1.00  0.00     0.149 C 
HETATM   23  C1  UNL     1      28.426  -0.663  53.423  1.00  0.00     0.108 C 
HETATM   24 CL1  UNL     1      30.092  -1.046  53.732  1.00  0.00    -0.095 Cl
ENDBRANCH  21  22
ENDBRANCH   1  21
TORSDOF 2
ENDMDL
MODEL 4
REMARK VINA RESULT:      -8.1      3.333      5.569
REMARK  2 active torsions:
REMARK  status: ('A' for Active; 'I' for Inactive)
REMARK    1  A    between atoms: C2_3  and  O1_4 
REMARK    2  A    between atoms: O1_4  and  C3_5 
ROOT
HETATM    1  C3  UNL     1      26.059   1.131  51.984  1.00  0.00     0.123 C 
HETATM    2  C4  UNL     1      26.082   2.193  51.191  1.00  0.00     0.182 C 
HETATM    3  C5  UNL     1      26.651   2.864  50.027  1.00  0.00     0.008 C 
HETATM    4  C6  UNL     1      25.962   3.988  50.053  1.00  0.00     0.131 C 
HETATM    5  O2  UNL     1      25.075   4.984  50.406  1.00  0.00    -0.360 OA
HETATM    6  C7  UNL     1      23.710   4.797  50.185  1.00  0.00     0.202 C 
HETATM    7  C8  UNL     1      22.855   5.617  51.051  1.00  0.00     0.000 C 
HETATM    8  C9  UNL     1      21.968   5.156  51.917  1.00  0.00     0.009 C 
HETATM    9  C10 UNL     1      21.656   3.781  52.190  1.00  0.00    -0.035 A 
HETATM   10  C11 UNL     1      20.426   3.162  52.193  1.00  0.00     0.014 A 
HETATM   11  C12 UNL     1      20.273   1.819  52.464  1.00  0.00     0.033 A 
HETATM   12  C13 UNL     1      21.379   1.042  52.745  1.00  0.00     0.072 A 
HETATM   13  N1  UNL     1      21.183  -0.267  52.995  1.00  0.00    -0.241 NA
HETATM   14  C14 UNL     1      22.283  -1.023  53.259  1.00  0.00     0.235 A 
HETATM   15  N2  UNL     1      23.525  -0.454  53.267  1.00  0.00    -0.224 NA
HETATM   16  C15 UNL     1      23.692   0.853  53.015  1.00  0.00     0.139 A 
HETATM   17  C16 UNL     1      22.609   1.660  52.742  1.00  0.00     0.039 A 
HETATM   18  C17 UNL     1      22.786   3.002  52.476  1.00  0.00     0.029 A 
HETATM   19  N3  UNL     1      25.070   1.309  53.031  1.00  0.00    -0.346 N 
HETATM   20  H14 UNL     1      24.946   1.721  53.983  1.00  0.00     0.163 HD
ENDROOT
BRANCH   1  21
HETATM   21  O1  UNL     1      26.243  -0.103  52.651  1.00  0.00    -0.336 OA
BRANCH  21  22
HETATM   22  C2  UNL     1      27.510  -0.647  52.797  1.00  0.00     0.149 C 
HETATM   23  C1  UNL     1      28.522  -0.249  53.586  1.00  0.00     0.108 C 
HETATM   24 CL1  UNL     1      30.096  -0.970  53.729  1.00  0.00    -0.095 Cl
ENDBRANCH  21  22
ENDBRANCH   1  21
TORSDOF 2
ENDMDL
MODEL 5
REMARK VINA RESULT:      -8.0      3.271      5.685
REMARK  2 active torsions:
REMARK  status: ('A' for Active; 'I' for Inactive)
REMARK    1  A    between atoms: C2_3  and  O1_4 
REMARK    2  A    between atoms: O1_4  and  C3_5 
ROOT
HETATM    1  C3  UNL     1      23.818   2.497  50.590  1.00  0.00     0.123 C 
HETATM    2  C4  UNL     1      22.718   2.209  49.909  1.00  0.00     0.182 C 
HETATM    3  C5  UNL     1      22.064   2.040  48.616  1.00  0.00     0.008 C 
HETATM    4  C6  UNL     1      20.848   1.725  49.016  1.00  0.00     0.131 C 
HETATM    5  O2  UNL     1      19.749   1.440  49.800  1.00  0.00    -0.360 OA
HETATM    6  C7  UNL     1      19.693   0.226  50.486  1.00  0.00     0.202 C 
HETATM    7  C8  UNL     1      18.810   0.253  51.658  1.00  0.00     0.000 C 
HETATM    8  C9  UNL     1      19.183   0.030  52.907  1.00  0.00     0.009 C 
HETATM    9  C10 UNL     1      20.504  -0.279  53.377  1.00  0.00    -0.035 A 
HETATM   10  C11 UNL     1      20.912  -1.326  54.172  1.00  0.00     0.014 A 
HETATM   11  C12 UNL     1      22.228  -1.510  54.539  1.00  0.00     0.033 A 
HETATM   12  C13 UNL     1      23.195  -0.625  54.104  1.00  0.00     0.072 A 
HETATM   13  N1  UNL     1      24.469  -0.849  54.480  1.00  0.00    -0.241 NA
HETATM   14  C14 UNL     1      25.413   0.024  54.035  1.00  0.00     0.235 A 
HETATM   15  N2  UNL     1      25.058   1.077  53.242  1.00  0.00    -0.224 NA
HETATM   16  C15 UNL     1      23.781   1.278  52.883  1.00  0.00     0.139 A 
HETATM   17  C16 UNL     1      22.789   0.422  53.308  1.00  0.00     0.039 A 
HETATM   18  C17 UNL     1      21.478   0.627  52.930  1.00  0.00     0.029 A 
HETATM   19  N3  UNL     1      23.560   2.421  52.017  1.00  0.00    -0.346 N 
HETATM   20  H14 UNL     1      23.206   2.988  52.819  1.00  0.00     0.163 HD
ENDROOT
BRANCH   1  21
HETATM   21  O1  UNL     1      25.113   2.836  51.052  1.00  0.00    -0.336 OA
BRANCH  21  22
HETATM   22  C2  UNL     1      25.864   3.805  50.404  1.00  0.00     0.149 C 
HETATM   23  C1  UNL     1      26.719   3.674  49.376  1.00  0.00     0.108 C 
HETATM   24 CL1  UNL     1      27.638   4.927  48.601  1.00  0.00    -0.095 Cl
ENDBRANCH  21  22
ENDBRANCH   1  21
TORSDOF 2
ENDMDL
MODEL 6
REMARK VINA RESULT:      -8.0      3.007      5.158
REMARK  2 active torsions:
REMARK  status: ('A' for Active; 'I' for Inactive)
REMARK    1  A    between atoms: C2_3  and  O1_4 
REMARK    2  A    between atoms: O1_4  and  C3_5 
ROOT
HETATM    1  C3  UNL     1      21.885   3.819  51.888  1.00  0.00     0.123 C 
HETATM    2  C4  UNL     1      21.192   2.762  52.286  1.00  0.00     0.182 C 
HETATM    3  C5  UNL     1      19.949   2.000  52.239  1.00  0.00     0.008 C 
HETATM    4  C6  UNL     1      20.259   1.009  53.052  1.00  0.00     0.131 C 
HETATM    5  O2  UNL     1      20.934   0.178  53.922  1.00  0.00    -0.360 OA
HETATM    6  C7  UNL     1      21.965  -0.627  53.440  1.00  0.00     0.202 C 
HETATM    7  C8  UNL     1      22.931  -1.028  54.470  1.00  0.00     0.000 C 
HETATM    8  C9  UNL     1      24.223  -0.744  54.466  1.00  0.00     0.009 C 
HETATM    9  C10 UNL     1      24.945   0.001  53.474  1.00  0.00    -0.035 A 
HETATM   10  C11 UNL     1      26.088  -0.354  52.794  1.00  0.00     0.014 A 
HETATM   11  C12 UNL     1      26.672   0.463  51.849  1.00  0.00     0.033 A 
HETATM   12  C13 UNL     1      26.108   1.689  51.554  1.00  0.00     0.072 A 
HETATM   13  N1  UNL     1      26.708   2.449  50.618  1.00  0.00    -0.241 NA
HETATM   14  C14 UNL     1      26.135   3.649  50.329  1.00  0.00     0.235 A 
HETATM   15  N2  UNL     1      25.000   4.044  50.976  1.00  0.00    -0.224 NA
HETATM   16  C15 UNL     1      24.423   3.267  51.905  1.00  0.00     0.139 A 
HETATM   17  C16 UNL     1      24.965   2.044  52.233  1.00  0.00     0.039 A 
HETATM   18  C17 UNL     1      24.364   1.244  53.183  1.00  0.00     0.029 A 
HETATM   19  N3  UNL     1      23.208   3.807  52.487  1.00  0.00    -0.346 N 
HETATM   20  H14 UNL     1      23.723   4.097  53.348  1.00  0.00     0.163 HD
ENDROOT
BRANCH   1  21
HETATM   21  O1  UNL     1      22.383   5.012  51.310  1.00  0.00    -0.336 OA
BRANCH  21  22
HETATM   22  C2  UNL     1      21.518   5.962  50.791  1.00  0.00     0.149 C 
HETATM   23  C1  UNL     1      21.659   7.295  50.722  1.00  0.00     0.108 C 
HETATM   24 CL1  UNL     1      20.537   8.444  50.059  1.00  0.00    -0.095 Cl
ENDBRANCH  21  22
ENDBRANCH   1  21
TORSDOF 2
ENDMDL
MODEL 7
REMARK VINA RESULT:      -7.9      3.387      5.544
REMARK  2 active torsions:
REMARK  status: ('A' for Active; 'I' for Inactive)
REMARK    1  A    between atoms: C2_3  and  O1_4 
REMARK    2  A    between atoms: O1_4  and  C3_5 
ROOT
HETATM    1  C3  UNL     1      26.836   2.462  52.217  1.00  0.00     0.123 C 
HETATM    2  C4  UNL     1      26.408   2.898  51.040  1.00  0.00     0.182 C 
HETATM    3  C5  UNL     1      26.715   3.251  49.658  1.00  0.00     0.008 C 
HETATM    4  C6  UNL     1      25.517   3.617  49.247  1.00  0.00     0.131 C 
HETATM    5  O2  UNL     1      24.168   3.904  49.199  1.00  0.00    -0.360 OA
HETATM    6  C7  UNL     1      23.245   2.857  49.194  1.00  0.00     0.202 C 
HETATM    7  C8  UNL     1      21.915   3.244  49.681  1.00  0.00     0.000 C 
HETATM    8  C9  UNL     1      21.299   2.725  50.730  1.00  0.00     0.009 C 
HETATM    9  C10 UNL     1      21.787   1.694  51.601  1.00  0.00    -0.035 A 
HETATM   10  C11 UNL     1      21.173   0.520  51.974  1.00  0.00     0.014 A 
HETATM   11  C12 UNL     1      21.770  -0.394  52.817  1.00  0.00     0.033 A 
HETATM   12  C13 UNL     1      23.032  -0.147  53.318  1.00  0.00     0.072 A 
HETATM   13  N1  UNL     1      23.579  -1.072  54.130  1.00  0.00    -0.241 NA
HETATM   14  C14 UNL     1      24.829  -0.821  54.608  1.00  0.00     0.235 A 
HETATM   15  N2  UNL     1      25.479   0.330  54.265  1.00  0.00    -0.224 NA
HETATM   16  C15 UNL     1      24.910   1.235  53.455  1.00  0.00     0.139 A 
HETATM   17  C16 UNL     1      23.648   1.026  52.945  1.00  0.00     0.039 A 
HETATM   18  C17 UNL     1      23.070   1.956  52.106  1.00  0.00     0.029 A 
HETATM   19  N3  UNL     1      25.732   2.393  53.157  1.00  0.00    -0.346 N 
HETATM   20  H14 UNL     1      25.197   2.975  53.840  1.00  0.00     0.163 HD
ENDROOT
BRANCH   1  21
HETATM   21  O1  UNL     1      27.553   1.984  53.340  1.00  0.00    -0.336 OA
BRANCH  21  22
HETATM   22  C2  UNL     1      28.558   1.040  53.189  1.00  0.00     0.149 C 
HETATM   23  C1  UNL     1      28.959   0.080  54.037  1.00  0.00     0.108 C 
HETATM   24 CL1  UNL     1      30.230  -1.079  53.796  1.00  0.00    -0.095 Cl
ENDBRANCH  21  22
ENDBRANCH   1  21
TORSDOF 2
ENDMDL
MODEL 8
REMARK VINA RESULT:      -7.8      3.150      5.009
REMARK  2 active torsions:
REMARK  status: ('A' for Active; 'I' for Inactive)
REMARK    1  A    between atoms: C2_3  and  O1_4 
REMARK    2  A    between atoms: O1_4  and  C3_5 
ROOT
HETATM    1  C3  UNL     1      22.323   2.292  49.866  1.00  0.00     0.123 C 
HETATM    2  C4  UNL     1      23.452   2.681  50.441  1.00  0.00     0.182 C 
HETATM    3  C5  UNL     1      24.428   3.740  50.675  1.00  0.00     0.008 C 
HETATM    4  C6  UNL     1      25.283   3.095  51.444  1.00  0.00     0.131 C 
HETATM    5  O2  UNL     1      25.911   2.119  52.190  1.00  0.00    -0.360 OA
HETATM    6  C7  UNL     1      25.367   1.739  53.417  1.00  0.00     0.202 C 
HETATM    7  C8  UNL     1      25.761   0.390  53.843  1.00  0.00     0.000 C 
HETATM    8  C9  UNL     1      24.935  -0.618  54.067  1.00  0.00     0.009 C 
HETATM    9  C10 UNL     1      23.505  -0.612  53.944  1.00  0.00    -0.035 A 
HETATM   10  C11 UNL     1      22.560  -1.001  54.866  1.00  0.00     0.014 A 
HETATM   11  C12 UNL     1      21.205  -0.929  54.616  1.00  0.00     0.033 A 
HETATM   12  C13 UNL     1      20.753  -0.451  53.402  1.00  0.00     0.072 A 
HETATM   13  N1  UNL     1      19.423  -0.390  53.205  1.00  0.00    -0.241 NA
HETATM   14  C14 UNL     1      18.991   0.094  52.008  1.00  0.00     0.235 A 
HETATM   15  N2  UNL     1      19.890   0.493  51.061  1.00  0.00    -0.224 NA
HETATM   16  C15 UNL     1      21.211   0.421  51.284  1.00  0.00     0.139 A 
HETATM   17  C16 UNL     1      21.698  -0.061  52.479  1.00  0.00     0.039 A 
HETATM   18  C17 UNL     1      23.057  -0.126  52.706  1.00  0.00     0.029 A 
HETATM   19  N3  UNL     1      22.043   0.907  50.198  1.00  0.00    -0.346 N 
HETATM   20  H14 UNL     1      22.251  -0.069  49.891  1.00  0.00     0.163 HD
ENDROOT
BRANCH   1  21
HETATM   21  O1  UNL     1      21.110   2.151  49.149  1.00  0.00    -0.336 OA
BRANCH  21  22
HETATM   22  C2  UNL     1      20.986   2.653  47.863  1.00  0.00     0.149 C 
HETATM   23  C1  UNL     1      21.940   3.081  47.020  1.00  0.00     0.108 C 
HETATM   24 CL1  UNL     1      21.726   3.704  45.412  1.00  0.00    -0.095 Cl
ENDBRANCH  21  22
ENDBRANCH   1  21
TORSDOF 2
ENDMDL
MODEL 9
REMARK VINA RESULT:      -7.7      4.022      7.068
REMARK  2 active torsions:
REMARK  status: ('A' for Active; 'I' for Inactive)
REMARK    1  A    between atoms: C2_3  and  O1_4 
REMARK    2  A    between atoms: O1_4  and  C3_5 
ROOT
HETATM    1  C3  UNL     1      25.639   3.380  50.215  1.00  0.00     0.123 C 
HETATM    2  C4  UNL     1      26.060   2.482  51.094  1.00  0.00     0.182 C 
HETATM    3  C5  UNL     1      27.115   2.013  51.985  1.00  0.00     0.008 C 
HETATM    4  C6  UNL     1      26.538   0.933  52.472  1.00  0.00     0.131 C 
HETATM    5  O2  UNL     1      25.633  -0.075  52.737  1.00  0.00    -0.360 OA
HETATM    6  C7  UNL     1      24.500   0.204  53.502  1.00  0.00     0.202 C 
HETATM    7  C8  UNL     1      23.389  -0.726  53.269  1.00  0.00     0.000 C 
HETATM    8  C9  UNL     1      22.190  -0.396  52.819  1.00  0.00     0.009 C 
HETATM    9  C10 UNL     1      21.726   0.916  52.467  1.00  0.00    -0.035 A 
HETATM   10  C11 UNL     1      20.596   1.573  52.897  1.00  0.00     0.014 A 
HETATM   11  C12 UNL     1      20.276   2.849  52.482  1.00  0.00     0.033 A 
HETATM   12  C13 UNL     1      21.107   3.516  51.604  1.00  0.00     0.072 A 
HETATM   13  N1  UNL     1      20.760   4.763  51.234  1.00  0.00    -0.241 NA
HETATM   14  C14 UNL     1      21.594   5.414  50.376  1.00  0.00     0.235 A 
HETATM   15  N2  UNL     1      22.729   4.804  49.923  1.00  0.00    -0.224 NA
HETATM   16  C15 UNL     1      23.050   3.559  50.308  1.00  0.00     0.139 A 
HETATM   17  C16 UNL     1      22.238   2.860  51.174  1.00  0.00     0.039 A 
HETATM   18  C17 UNL     1      22.576   1.584  51.573  1.00  0.00     0.029 A 
HETATM   19  N3  UNL     1      24.298   3.053  49.766  1.00  0.00    -0.346 N 
HETATM   20  H14 UNL     1      23.784   2.479  49.061  1.00  0.00     0.163 HD
ENDROOT
BRANCH   1  21
HETATM   21  O1  UNL     1      25.452   4.463  49.322  1.00  0.00    -0.336 OA
BRANCH  21  22
HETATM   22  C2  UNL     1      26.517   5.271  48.957  1.00  0.00     0.149 C 
HETATM   23  C1  UNL     1      27.757   4.925  48.575  1.00  0.00     0.108 C 
HETATM   24 CL1  UNL     1      29.059   5.985  48.127  1.00  0.00    -0.095 Cl
ENDBRANCH  21  22
ENDBRANCH   1  21
TORSDOF 2
ENDMDL
