MODEL 1
REMARK VINA RESULT:      -7.9      0.000      0.000
REMARK  2 active torsions:
REMARK  status: ('A' for Active; 'I' for Inactive)
REMARK    1  A    between atoms: C3_3  and  C4_5 
REMARK    2  A    between atoms: C4_5  and  C5_6 
ROOT
HETATM    1  C5  UNL     1      24.692   2.326  51.570  1.00  0.00    -0.036 C 
HETATM    2  C6  UNL     1      25.889   3.019  50.933  1.00  0.00     0.213 C 
HETATM    3  O1  UNL     1      27.179   2.862  51.584  1.00  0.00    -0.333 OA
HETATM    4  C7  UNL     1      27.631   2.051  52.619  1.00  0.00     0.143 C 
HETATM    5  N1  UNL     1      28.698   1.505  53.019  1.00  0.00    -0.222 NA
HETATM    6  C8  UNL     1      28.824   0.653  54.233  1.00  0.00     0.230 C 
HETATM    7  N2  UNL     1      27.980  -0.150  54.936  1.00  0.00    -0.265 NA
HETATM    8  C9  UNL     1      26.600  -0.288  54.495  1.00  0.00     0.100 A 
HETATM    9  C10 UNL     1      25.276  -0.340  54.232  1.00  0.00     0.123 A 
HETATM   10  N3  UNL     1      24.635   0.698  53.467  1.00  0.00    -0.395 N 
HETATM   11  C11 UNL     1      23.948   1.698  52.771  1.00  0.00     0.154 C 
HETATM   12  C12 UNL     1      25.966   0.537  52.870  1.00  0.00     0.101 A 
HETATM   13  C13 UNL     1      26.041  -0.895  52.917  1.00  0.00     0.078 A 
HETATM   14  C14 UNL     1      27.303  -0.830  53.254  1.00  0.00    -0.007 A 
HETATM   15  C15 UNL     1      26.589   1.661  53.601  1.00  0.00     0.112 C 
ENDROOT
BRANCH   1  16
HETATM   16  C4  UNL     1      23.907   2.230  50.473  1.00  0.00     0.048 C 
BRANCH  16  17
HETATM   17  C3  UNL     1      22.817   2.278  49.516  1.00  0.00     0.112 C 
HETATM   18  C2  UNL     1      21.687   2.224  48.829  1.00  0.00     0.011 C 
HETATM   19  C1  UNL     1      21.935   2.750  47.443  1.00  0.00     0.039 C 
HETATM   20  F1  UNL     1      23.500   2.799  48.472  1.00  0.00    -0.206 F 
ENDBRANCH  16  17
ENDBRANCH   1  16
TORSDOF 2
ENDMDL
MODEL 2
REMARK VINA RESULT:      -7.3      2.991      6.254
REMARK  2 active torsions:
REMARK  status: ('A' for Active; 'I' for Inactive)
REMARK    1  A    between atoms: C3_3  and  C4_5 
REMARK    2  A    between atoms: C4_5  and  C5_6 
ROOT
HETATM    1  C5  UNL     1      25.277   0.857  53.457  1.00  0.00    -0.036 C 
HETATM    2  C6  UNL     1      24.705  -0.550  53.562  1.00  0.00     0.213 C 
HETATM    3  O1  UNL     1      23.310  -0.736  53.196  1.00  0.00    -0.333 OA
HETATM    4  C7  UNL     1      22.369   0.086  52.587  1.00  0.00     0.143 C 
HETATM    5  N1  UNL     1      21.333  -0.004  51.867  1.00  0.00    -0.222 NA
HETATM    6  C8  UNL     1      20.533   1.146  51.367  1.00  0.00     0.230 C 
HETATM    7  N2  UNL     1      20.799   2.448  51.071  1.00  0.00    -0.265 NA
HETATM    8  C9  UNL     1      22.153   2.952  51.249  1.00  0.00     0.100 A 
HETATM    9  C10 UNL     1      23.344   3.522  51.534  1.00  0.00     0.123 A 
HETATM   10  N3  UNL     1      24.244   2.914  52.479  1.00  0.00    -0.395 N 
HETATM   11  C11 UNL     1      25.139   2.397  53.422  1.00  0.00     0.154 C 
HETATM   12  C12 UNL     1      23.607   1.797  51.772  1.00  0.00     0.101 A 
HETATM   13  C13 UNL     1      23.627   2.354  50.449  1.00  0.00     0.078 A 
HETATM   14  C14 UNL     1      22.436   1.867  50.214  1.00  0.00    -0.007 A 
HETATM   15  C15 UNL     1      22.580   1.538  52.803  1.00  0.00     0.112 C 
ENDROOT
BRANCH   1  16
HETATM   16  C4  UNL     1      26.584   0.534  53.321  1.00  0.00     0.048 C 
BRANCH  16  17
HETATM   17  C3  UNL     1      27.999   0.287  53.524  1.00  0.00     0.112 C 
HETATM   18  C2  UNL     1      29.297   0.303  53.779  1.00  0.00     0.011 C 
HETATM   19  C1  UNL     1      29.866  -1.059  53.490  1.00  0.00     0.039 C 
HETATM   20  F1  UNL     1      28.024  -1.011  53.148  1.00  0.00    -0.206 F 
ENDBRANCH  16  17
ENDBRANCH   1  16
TORSDOF 2
ENDMDL
MODEL 3
REMARK VINA RESULT:      -7.2      2.271      2.535
REMARK  2 active torsions:
REMARK  status: ('A' for Active; 'I' for Inactive)
REMARK    1  A    between atoms: C3_3  and  C4_5 
REMARK    2  A    between atoms: C4_5  and  C5_6 
ROOT
HETATM    1  C5  UNL     1      23.483   0.943  52.994  1.00  0.00    -0.036 C 
HETATM    2  C6  UNL     1      23.721   2.444  53.086  1.00  0.00     0.213 C 
HETATM    3  O1  UNL     1      25.014   2.888  53.580  1.00  0.00    -0.333 OA
HETATM    4  C7  UNL     1      26.207   2.228  53.852  1.00  0.00     0.143 C 
HETATM    5  N1  UNL     1      27.450   2.458  53.882  1.00  0.00    -0.222 NA
HETATM    6  C8  UNL     1      28.499   1.463  54.231  1.00  0.00     0.230 C 
HETATM    7  N2  UNL     1      28.606   0.109  54.147  1.00  0.00    -0.265 NA
HETATM    8  C9  UNL     1      27.494  -0.659  53.604  1.00  0.00     0.100 A 
HETATM    9  C10 UNL     1      26.448  -1.440  53.257  1.00  0.00     0.123 A 
HETATM   10  N3  UNL     1      25.101  -0.937  53.319  1.00  0.00    -0.395 N 
HETATM   11  C11 UNL     1      23.767  -0.521  53.404  1.00  0.00     0.154 C 
HETATM   12  C12 UNL     1      25.922   0.200  52.887  1.00  0.00     0.101 A 
HETATM   13  C13 UNL     1      26.783  -0.503  51.979  1.00  0.00     0.078 A 
HETATM   14  C14 UNL     1      27.807   0.204  52.385  1.00  0.00    -0.007 A 
HETATM   15  C15 UNL     1      26.055   0.802  54.231  1.00  0.00     0.112 C 
ENDROOT
BRANCH   1  16
HETATM   16  C4  UNL     1      22.519   0.949  52.044  1.00  0.00     0.048 C 
BRANCH  16  17
HETATM   17  C3  UNL     1      21.271   0.868  51.308  1.00  0.00     0.112 C 
HETATM   18  C2  UNL     1      20.263   0.907  50.453  1.00  0.00     0.011 C 
HETATM   19  C1  UNL     1      19.054   0.286  51.097  1.00  0.00     0.039 C 
HETATM   20  F1  UNL     1      20.525   0.263  52.259  1.00  0.00    -0.206 F 
ENDBRANCH  16  17
ENDBRANCH   1  16
TORSDOF 2
ENDMDL
MODEL 4
REMARK VINA RESULT:      -7.1      3.262      6.133
REMARK  2 active torsions:
REMARK  status: ('A' for Active; 'I' for Inactive)
REMARK    1  A    between atoms: C3_3  and  C4_5 
REMARK    2  A    between atoms: C4_5  and  C5_6 
ROOT
HETATM    1  C5  UNL     1      24.921   0.511  52.941  1.00  0.00    -0.036 C 
HETATM    2  C6  UNL     1      24.845   1.999  52.629  1.00  0.00     0.213 C 
HETATM    3  O1  UNL     1      23.539   2.551  52.308  1.00  0.00    -0.333 OA
HETATM    4  C7  UNL     1      22.247   2.042  52.380  1.00  0.00     0.143 C 
HETATM    5  N1  UNL     1      21.060   2.447  52.537  1.00  0.00    -0.222 NA
HETATM    6  C8  UNL     1      19.853   1.576  52.568  1.00  0.00     0.230 C 
HETATM    7  N2  UNL     1      19.609   0.282  52.910  1.00  0.00    -0.265 NA
HETATM    8  C9  UNL     1      20.712  -0.550  53.369  1.00  0.00     0.100 A 
HETATM    9  C10 UNL     1      21.710  -1.416  53.653  1.00  0.00     0.123 A 
HETATM   10  N3  UNL     1      23.065  -1.134  53.257  1.00  0.00    -0.395 N 
HETATM   11  C11 UNL     1      24.392  -0.939  52.858  1.00  0.00     0.154 C 
HETATM   12  C12 UNL     1      22.487   0.164  53.622  1.00  0.00     0.101 A 
HETATM   13  C13 UNL     1      21.754  -0.257  54.782  1.00  0.00     0.078 A 
HETATM   14  C14 UNL     1      20.758   0.524  54.451  1.00  0.00    -0.007 A 
HETATM   15  C15 UNL     1      22.152   0.568  52.240  1.00  0.00     0.112 C 
ENDROOT
BRANCH   1  16
HETATM   16  C4  UNL     1      26.054   0.519  53.682  1.00  0.00     0.048 C 
BRANCH  16  17
HETATM   17  C3  UNL     1      27.404   0.354  54.187  1.00  0.00     0.112 C 
HETATM   18  C2  UNL     1      28.552   0.334  54.844  1.00  0.00     0.011 C 
HETATM   19  C1  UNL     1      29.571  -0.406  54.023  1.00  0.00     0.039 C 
HETATM   20  F1  UNL     1      27.915  -0.340  53.146  1.00  0.00    -0.206 F 
ENDBRANCH  16  17
ENDBRANCH   1  16
TORSDOF 2
ENDMDL
MODEL 5
REMARK VINA RESULT:      -7.0      3.047      4.171
REMARK  2 active torsions:
REMARK  status: ('A' for Active; 'I' for Inactive)
REMARK    1  A    between atoms: C3_3  and  C4_5 
REMARK    2  A    between atoms: C4_5  and  C5_6 
ROOT
HETATM    1  C5  UNL     1      24.115  -0.520  53.748  1.00  0.00    -0.036 C 
HETATM    2  C6  UNL     1      24.546  -1.029  55.116  1.00  0.00     0.213 C 
HETATM    3  O1  UNL     1      25.944  -0.868  55.481  1.00  0.00    -0.333 OA
HETATM    4  C7  UNL     1      27.004  -0.176  54.906  1.00  0.00     0.143 C 
HETATM    5  N1  UNL     1      28.084   0.388  55.246  1.00  0.00    -0.222 NA
HETATM    6  C8  UNL     1      29.024   1.072  54.317  1.00  0.00     0.230 C 
HETATM    7  N2  UNL     1      28.902   1.707  53.120  1.00  0.00    -0.265 NA
HETATM    8  C9  UNL     1      27.589   1.803  52.499  1.00  0.00     0.100 A 
HETATM    9  C10 UNL     1      26.434   1.793  51.798  1.00  0.00     0.123 A 
HETATM   10  N3  UNL     1      25.407   0.826  52.083  1.00  0.00    -0.395 N 
HETATM   11  C11 UNL     1      24.393  -0.118  52.281  1.00  0.00     0.154 C 
HETATM   12  C12 UNL     1      25.998   1.164  53.383  1.00  0.00     0.101 A 
HETATM   13  C13 UNL     1      26.139   2.577  53.183  1.00  0.00     0.078 A 
HETATM   14  C14 UNL     1      27.297   2.559  53.792  1.00  0.00    -0.007 A 
HETATM   15  C15 UNL     1      26.907  -0.001  53.437  1.00  0.00     0.112 C 
ENDROOT
BRANCH   1  16
HETATM   16  C4  UNL     1      22.800  -0.332  54.008  1.00  0.00     0.048 C 
BRANCH  16  17
HETATM   17  C3  UNL     1      21.358  -0.192  53.930  1.00  0.00     0.112 C 
HETATM   18  C2  UNL     1      20.086   0.170  53.936  1.00  0.00     0.011 C 
HETATM   19  C1  UNL     1      19.244  -1.001  53.511  1.00  0.00     0.039 C 
HETATM   20  F1  UNL     1      21.064  -1.448  53.525  1.00  0.00    -0.206 F 
ENDBRANCH  16  17
ENDBRANCH   1  16
TORSDOF 2
ENDMDL
MODEL 6
REMARK VINA RESULT:      -6.8      3.159      5.012
REMARK  2 active torsions:
REMARK  status: ('A' for Active; 'I' for Inactive)
REMARK    1  A    between atoms: C3_3  and  C4_5 
REMARK    2  A    between atoms: C4_5  and  C5_6 
ROOT
HETATM    1  C5  UNL     1      24.610   2.633  52.015  1.00  0.00    -0.036 C 
HETATM    2  C6  UNL     1      25.445   1.375  52.207  1.00  0.00     0.213 C 
HETATM    3  O1  UNL     1      24.787   0.217  52.791  1.00  0.00    -0.333 OA
HETATM    4  C7  UNL     1      23.460  -0.077  53.081  1.00  0.00     0.143 C 
HETATM    5  N1  UNL     1      22.696  -1.079  53.187  1.00  0.00    -0.222 NA
HETATM    6  C8  UNL     1      21.248  -1.023  53.527  1.00  0.00     0.230 C 
HETATM    7  N2  UNL     1      20.257  -0.105  53.368  1.00  0.00    -0.265 NA
HETATM    8  C9  UNL     1      20.564   1.165  52.726  1.00  0.00     0.100 A 
HETATM    9  C10 UNL     1      20.812   2.417  52.281  1.00  0.00     0.123 A 
HETATM   10  N3  UNL     1      22.147   2.957  52.307  1.00  0.00    -0.395 N 
HETATM   11  C11 UNL     1      23.412   3.553  52.350  1.00  0.00     0.154 C 
HETATM   12  C12 UNL     1      22.307   1.534  51.984  1.00  0.00     0.101 A 
HETATM   13  C13 UNL     1      21.201   1.402  51.080  1.00  0.00     0.078 A 
HETATM   14  C14 UNL     1      20.919   0.225  51.577  1.00  0.00    -0.007 A 
HETATM   15  C15 UNL     1      22.610   1.105  53.366  1.00  0.00     0.112 C 
ENDROOT
BRANCH   1  16
HETATM   16  C4  UNL     1      25.330   3.203  51.020  1.00  0.00     0.048 C 
BRANCH  16  17
HETATM   17  C3  UNL     1      25.911   4.109  50.047  1.00  0.00     0.112 C 
HETATM   18  C2  UNL     1      26.225   5.061  49.184  1.00  0.00     0.011 C 
HETATM   19  C1  UNL     1      27.596   4.784  48.632  1.00  0.00     0.039 C 
HETATM   20  F1  UNL     1      27.087   3.468  49.865  1.00  0.00    -0.206 F 
ENDBRANCH  16  17
ENDBRANCH   1  16
TORSDOF 2
ENDMDL
MODEL 7
REMARK VINA RESULT:      -6.8      3.521      4.529
REMARK  2 active torsions:
REMARK  status: ('A' for Active; 'I' for Inactive)
REMARK    1  A    between atoms: C3_3  and  C4_5 
REMARK    2  A    between atoms: C4_5  and  C5_6 
ROOT
HETATM    1  C5  UNL     1      22.158  -0.128  52.401  1.00  0.00    -0.036 C 
HETATM    2  C6  UNL     1      22.476  -1.051  53.569  1.00  0.00     0.213 C 
HETATM    3  O1  UNL     1      23.834  -1.034  54.087  1.00  0.00    -0.333 OA
HETATM    4  C7  UNL     1      24.929  -0.210  53.857  1.00  0.00     0.143 C 
HETATM    5  N1  UNL     1      25.967   0.201  54.452  1.00  0.00    -0.222 NA
HETATM    6  C8  UNL     1      26.975   1.132  53.875  1.00  0.00     0.230 C 
HETATM    7  N2  UNL     1      26.949   2.117  52.936  1.00  0.00    -0.265 NA
HETATM    8  C9  UNL     1      25.694   2.423  52.264  1.00  0.00     0.100 A 
HETATM    9  C10 UNL     1      24.605   2.653  51.498  1.00  0.00     0.123 A 
HETATM   10  N3  UNL     1      23.571   1.659  51.370  1.00  0.00    -0.395 N 
HETATM   11  C11 UNL     1      22.558   0.716  51.168  1.00  0.00     0.154 C 
HETATM   12  C12 UNL     1      24.041   1.558  52.756  1.00  0.00     0.101 A 
HETATM   13  C13 UNL     1      24.178   2.960  53.030  1.00  0.00     0.078 A 
HETATM   14  C14 UNL     1      25.279   2.733  53.700  1.00  0.00    -0.007 A 
HETATM   15  C15 UNL     1      24.959   0.424  52.517  1.00  0.00     0.112 C 
ENDROOT
BRANCH   1  16
HETATM   16  C4  UNL     1      20.823  -0.014  52.591  1.00  0.00     0.048 C 
BRANCH  16  17
HETATM   17  C3  UNL     1      19.379  -0.153  52.542  1.00  0.00     0.112 C 
HETATM   18  C2  UNL     1      18.073  -0.079  52.347  1.00  0.00     0.011 C 
HETATM   19  C1  UNL     1      17.403  -1.184  53.115  1.00  0.00     0.039 C 
HETATM   20  F1  UNL     1      19.262  -1.231  53.349  1.00  0.00    -0.206 F 
ENDBRANCH  16  17
ENDBRANCH   1  16
TORSDOF 2
ENDMDL
MODEL 8
REMARK VINA RESULT:      -6.7      3.006      3.813
REMARK  2 active torsions:
REMARK  status: ('A' for Active; 'I' for Inactive)
REMARK    1  A    between atoms: C3_3  and  C4_5 
REMARK    2  A    between atoms: C4_5  and  C5_6 
ROOT
HETATM    1  C5  UNL     1      24.998   0.452  52.599  1.00  0.00    -0.036 C 
HETATM    2  C6  UNL     1      24.916  -1.067  52.647  1.00  0.00     0.213 C 
HETATM    3  O1  UNL     1      26.167  -1.803  52.733  1.00  0.00    -0.333 OA
HETATM    4  C7  UNL     1      27.484  -1.418  52.956  1.00  0.00     0.143 C 
HETATM    5  N1  UNL     1      28.555  -1.884  53.440  1.00  0.00    -0.222 NA
HETATM    6  C8  UNL     1      29.848  -1.152  53.526  1.00  0.00     0.230 C 
HETATM    7  N2  UNL     1      30.208   0.157  53.617  1.00  0.00    -0.265 NA
HETATM    8  C9  UNL     1      29.171   1.178  53.641  1.00  0.00     0.100 A 
HETATM    9  C10 UNL     1      28.272   2.179  53.514  1.00  0.00     0.123 A 
HETATM   10  N3  UNL     1      26.983   1.940  52.919  1.00  0.00    -0.395 N 
HETATM   11  C11 UNL     1      25.734   1.781  52.308  1.00  0.00     0.154 C 
HETATM   12  C12 UNL     1      27.297   0.721  53.674  1.00  0.00     0.101 A 
HETATM   13  C13 UNL     1      27.863   1.341  54.838  1.00  0.00     0.078 A 
HETATM   14  C14 UNL     1      28.781   0.411  54.901  1.00  0.00    -0.007 A 
HETATM   15  C15 UNL     1      27.811  -0.039  52.515  1.00  0.00     0.112 C 
ENDROOT
BRANCH   1  16
HETATM   16  C4  UNL     1      23.762   0.735  53.073  1.00  0.00     0.048 C 
BRANCH  16  17
HETATM   17  C3  UNL     1      22.335   0.931  53.249  1.00  0.00     0.112 C 
HETATM   18  C2  UNL     1      21.055   1.262  53.211  1.00  0.00     0.011 C 
HETATM   19  C1  UNL     1      20.337   0.557  54.328  1.00  0.00     0.039 C 
HETATM   20  F1  UNL     1      22.162   0.131  54.325  1.00  0.00    -0.206 F 
ENDBRANCH  16  17
ENDBRANCH   1  16
TORSDOF 2
ENDMDL
MODEL 9
REMARK VINA RESULT:      -6.7      3.462      6.699
REMARK  2 active torsions:
REMARK  status: ('A' for Active; 'I' for Inactive)
REMARK    1  A    between atoms: C3_3  and  C4_5 
REMARK    2  A    between atoms: C4_5  and  C5_6 
ROOT
HETATM    1  C5  UNL     1      23.727   0.539  53.476  1.00  0.00    -0.036 C 
HETATM    2  C6  UNL     1      22.955  -0.649  54.033  1.00  0.00     0.213 C 
HETATM    3  O1  UNL     1      21.526  -0.703  53.766  1.00  0.00    -0.333 OA
HETATM    4  C7  UNL     1      20.684   0.033  52.941  1.00  0.00     0.143 C 
HETATM    5  N1  UNL     1      19.601  -0.103  52.303  1.00  0.00    -0.222 NA
HETATM    6  C8  UNL     1      18.955   0.951  51.474  1.00  0.00     0.230 C 
HETATM    7  N2  UNL     1      19.397   2.031  50.775  1.00  0.00    -0.265 NA
HETATM    8  C9  UNL     1      20.822   2.332  50.762  1.00  0.00     0.100 A 
HETATM    9  C10 UNL     1      22.103   2.755  50.833  1.00  0.00     0.123 A 
HETATM   10  N3  UNL     1      22.960   2.331  51.909  1.00  0.00    -0.395 N 
HETATM   11  C11 UNL     1      23.826   1.991  52.954  1.00  0.00     0.154 C 
HETATM   12  C12 UNL     1      22.113   1.172  51.604  1.00  0.00     0.101 A 
HETATM   13  C13 UNL     1      22.129   1.276  50.173  1.00  0.00     0.078 A 
HETATM   14  C14 UNL     1      20.863   0.947  50.123  1.00  0.00    -0.007 A 
HETATM   15  C15 UNL     1      21.130   1.423  52.680  1.00  0.00     0.112 C 
ENDROOT
BRANCH   1  16
HETATM   16  C4  UNL     1      24.957  -0.024  53.430  1.00  0.00     0.048 C 
BRANCH  16  17
HETATM   17  C3  UNL     1      26.150  -0.766  53.068  1.00  0.00     0.112 C 
HETATM   18  C2  UNL     1      27.083  -1.573  52.589  1.00  0.00     0.011 C 
HETATM   19  C1  UNL     1      28.402  -1.219  53.218  1.00  0.00     0.039 C 
HETATM   20  F1  UNL     1      27.031  -0.111  53.855  1.00  0.00    -0.206 F 
ENDBRANCH  16  17
ENDBRANCH   1  16
TORSDOF 2
ENDMDL
