MODEL 1
REMARK VINA RESULT:      -9.5      0.000      0.000
REMARK  1 active torsions:
REMARK  status: ('A' for Active; 'I' for Inactive)
REMARK    1  A    between atoms: N3_10  and  C6_11 
ROOT
HETATM    1  O1  UNL     1      20.062   3.978  51.738  1.00  0.00    -0.271 OA
HETATM    2  C1  UNL     1      20.969   3.344  52.293  1.00  0.00     0.247 C 
HETATM    3  C2  UNL     1      20.352   2.071  52.708  1.00  0.00     0.271 C 
HETATM    4  O2  UNL     1      21.345   1.090  52.909  1.00  0.00    -0.376 OA
HETATM    5  C3  UNL     1      22.004   0.778  51.764  1.00  0.00     0.226 C 
HETATM    6  C4  UNL     1      22.751   1.788  51.005  1.00  0.00     0.083 A 
HETATM    7  N1  UNL     1      23.028   2.721  50.182  1.00  0.00    -0.235 NA
HETATM    8  C5  UNL     1      24.358   3.202  50.000  1.00  0.00     0.154 A 
HETATM    9  N2  UNL     1      25.576   2.932  50.502  1.00  0.00    -0.061 NA
HETATM   10  N3  UNL     1      25.497   1.843  51.525  1.00  0.00     0.097 N 
HETATM   11  C12 UNL     1      24.100   1.688  51.381  1.00  0.00     0.281 A 
HETATM   12  C13 UNL     1      24.752   2.659  52.196  1.00  0.00     0.298 A 
HETATM   13  C14 UNL     1      24.161   3.919  52.738  1.00  0.00     0.030 C 
HETATM   14  C15 UNL     1      22.994   4.608  52.650  1.00  0.00     0.092 C 
HETATM   15  N4  UNL     1      21.698   4.501  51.971  1.00  0.00    -0.327 N 
HETATM   16  C16 UNL     1      21.600   5.723  51.178  1.00  0.00     0.131 C 
HETATM   17  C17 UNL     1      22.089   5.744  49.812  1.00  0.00     0.021 C 
HETATM   18  C18 UNL     1      23.390   5.476  49.284  1.00  0.00     0.009 C 
HETATM   19  C19 UNL     1      24.064   4.210  49.031  1.00  0.00     0.082 C 
ENDROOT
BRANCH  10  20
HETATM   20  C6  UNL     1      26.551   1.243  52.241  1.00  0.00     0.167 A 
HETATM   21  C7  UNL     1      27.454   1.997  52.953  1.00  0.00     0.043 A 
HETATM   22  C8  UNL     1      28.418   1.294  53.601  1.00  0.00     0.046 A 
HETATM   23  C9  UNL     1      28.487  -0.077  53.549  1.00  0.00     0.138 A 
HETATM   24  F1  UNL     1      29.464  -0.734  54.209  1.00  0.00    -0.204 F 
HETATM   25  C10 UNL     1      27.531  -0.760  52.803  1.00  0.00     0.074 A 
HETATM   26 CL1  UNL     1      27.634  -2.522  52.747  1.00  0.00    -0.081 Cl
HETATM   27  C11 UNL     1      26.507  -0.105  52.108  1.00  0.00     0.067 A 
ENDBRANCH  10  20
TORSDOF 1
ENDMDL
MODEL 2
REMARK VINA RESULT:      -8.8      3.760      5.347
REMARK  1 active torsions:
REMARK  status: ('A' for Active; 'I' for Inactive)
REMARK    1  A    between atoms: N3_10  and  C6_11 
ROOT
HETATM    1  O1  UNL     1      19.412   2.225  51.530  1.00  0.00    -0.271 OA
HETATM    2  C1  UNL     1      20.217   2.914  50.890  1.00  0.00     0.247 C 
HETATM    3  C2  UNL     1      19.644   4.272  50.884  1.00  0.00     0.271 C 
HETATM    4  O2  UNL     1      20.650   5.225  50.623  1.00  0.00    -0.376 OA
HETATM    5  C3  UNL     1      21.590   5.269  51.601  1.00  0.00     0.226 C 
HETATM    6  C4  UNL     1      22.395   4.093  51.949  1.00  0.00     0.083 A 
HETATM    7  N1  UNL     1      22.770   3.001  52.489  1.00  0.00    -0.235 NA
HETATM    8  C5  UNL     1      24.053   2.431  52.239  1.00  0.00     0.154 A 
HETATM    9  N2  UNL     1      25.136   2.739  51.503  1.00  0.00    -0.061 NA
HETATM   10  N3  UNL     1      24.920   4.013  50.751  1.00  0.00     0.097 N 
HETATM   11  C12 UNL     1      23.619   4.203  51.269  1.00  0.00     0.281 A 
HETATM   12  C13 UNL     1      23.962   3.385  50.152  1.00  0.00     0.298 A 
HETATM   13  C14 UNL     1      23.141   2.289  49.555  1.00  0.00     0.030 C 
HETATM   14  C15 UNL     1      21.968   1.653  49.808  1.00  0.00     0.092 C 
HETATM   15  N4  UNL     1      20.887   1.682  50.800  1.00  0.00    -0.327 N 
HETATM   16  C16 UNL     1      20.865   0.332  51.355  1.00  0.00     0.131 C 
HETATM   17  C17 UNL     1      21.662   0.013  52.525  1.00  0.00     0.021 C 
HETATM   18  C18 UNL     1      23.070   0.109  52.747  1.00  0.00     0.009 C 
HETATM   19  C19 UNL     1      23.903   1.264  53.049  1.00  0.00     0.082 C 
ENDROOT
BRANCH  10  20
HETATM   20  C6  UNL     1      25.825   4.695  49.915  1.00  0.00     0.167 A 
HETATM   21  C7  UNL     1      26.913   4.057  49.365  1.00  0.00     0.043 A 
HETATM   22  C8  UNL     1      27.704   4.827  48.575  1.00  0.00     0.046 A 
HETATM   23  C9  UNL     1      27.436   6.153  48.339  1.00  0.00     0.138 A 
HETATM   24  F1  UNL     1      28.251   6.880  47.546  1.00  0.00    -0.204 F 
HETATM   25  C10 UNL     1      26.313   6.718  48.937  1.00  0.00     0.074 A 
HETATM   26 CL1  UNL     1      25.984   8.424  48.624  1.00  0.00    -0.081 Cl
HETATM   27  C11 UNL     1      25.450   5.988  49.764  1.00  0.00     0.067 A 
ENDBRANCH  10  20
TORSDOF 1
ENDMDL
MODEL 3
REMARK VINA RESULT:      -8.8      2.770      3.513
REMARK  1 active torsions:
REMARK  status: ('A' for Active; 'I' for Inactive)
REMARK    1  A    between atoms: N3_10  and  C6_11 
ROOT
HETATM    1  O1  UNL     1      22.145   6.274  48.719  1.00  0.00    -0.271 OA
HETATM    2  C1  UNL     1      21.961   5.390  49.567  1.00  0.00     0.247 C 
HETATM    3  C2  UNL     1      20.693   4.744  49.183  1.00  0.00     0.271 C 
HETATM    4  O2  UNL     1      20.610   3.456  49.750  1.00  0.00    -0.376 OA
HETATM    5  C3  UNL     1      21.565   2.617  49.272  1.00  0.00     0.226 C 
HETATM    6  C4  UNL     1      22.994   2.907  49.430  1.00  0.00     0.083 A 
HETATM    7  N1  UNL     1      24.165   3.365  49.222  1.00  0.00    -0.235 NA
HETATM    8  C5  UNL     1      25.272   3.031  50.058  1.00  0.00     0.154 A 
HETATM    9  N2  UNL     1      25.481   2.276  51.151  1.00  0.00    -0.061 NA
HETATM   10  N3  UNL     1      24.210   1.628  51.599  1.00  0.00     0.097 N 
HETATM   11  C12 UNL     1      23.447   2.198  50.555  1.00  0.00     0.281 A 
HETATM   12  C13 UNL     1      23.776   2.831  51.790  1.00  0.00     0.298 A 
HETATM   13  C14 UNL     1      23.741   4.294  52.087  1.00  0.00     0.030 C 
HETATM   14  C15 UNL     1      23.503   5.455  51.423  1.00  0.00     0.092 C 
HETATM   15  N4  UNL     1      23.172   5.902  50.066  1.00  0.00    -0.327 N 
HETATM   16  C16 UNL     1      24.263   6.800  49.700  1.00  0.00     0.131 C 
HETATM   17  C17 UNL     1      25.439   6.280  49.027  1.00  0.00     0.021 C 
HETATM   18  C18 UNL     1      26.369   5.269  49.424  1.00  0.00     0.009 C 
HETATM   19  C19 UNL     1      26.258   3.818  49.390  1.00  0.00     0.082 C 
ENDROOT
BRANCH  10  20
HETATM   20  C6  UNL     1      24.020   0.729  52.666  1.00  0.00     0.167 A 
HETATM   21  C7  UNL     1      25.077   0.285  53.426  1.00  0.00     0.043 A 
HETATM   22  C8  UNL     1      24.756  -0.575  54.426  1.00  0.00     0.046 A 
HETATM   23  C9  UNL     1      23.464  -0.974  54.665  1.00  0.00     0.138 A 
HETATM   24  F1  UNL     1      23.192  -1.831  55.671  1.00  0.00    -0.204 F 
HETATM   25  C10 UNL     1      22.455  -0.475  53.846  1.00  0.00     0.074 A 
HETATM   26 CL1  UNL     1      20.799  -0.998  54.166  1.00  0.00    -0.081 Cl
HETATM   27  C11 UNL     1      22.708   0.416  52.794  1.00  0.00     0.067 A 
ENDBRANCH  10  20
TORSDOF 1
ENDMDL
MODEL 4
REMARK VINA RESULT:      -8.7      2.263      4.070
REMARK  1 active torsions:
REMARK  status: ('A' for Active; 'I' for Inactive)
REMARK    1  A    between atoms: N3_10  and  C6_11 
ROOT
HETATM    1  O1  UNL     1      18.531   3.174  49.959  1.00  0.00    -0.271 OA
HETATM    2  C1  UNL     1      19.759   3.161  50.118  1.00  0.00     0.247 C 
HETATM    3  C2  UNL     1      20.154   4.579  50.189  1.00  0.00     0.271 C 
HETATM    4  O2  UNL     1      21.402   4.707  50.831  1.00  0.00    -0.376 OA
HETATM    5  C3  UNL     1      21.360   4.312  52.129  1.00  0.00     0.226 C 
HETATM    6  C4  UNL     1      20.983   2.946  52.508  1.00  0.00     0.083 A 
HETATM    7  N1  UNL     1      20.283   1.926  52.817  1.00  0.00    -0.235 NA
HETATM    8  C5  UNL     1      20.876   0.680  53.178  1.00  0.00     0.154 A 
HETATM    9  N2  UNL     1      22.120   0.187  53.309  1.00  0.00    -0.061 NA
HETATM   10  N3  UNL     1      23.140   1.230  52.978  1.00  0.00     0.097 N 
HETATM   11  C12 UNL     1      22.169   2.219  52.703  1.00  0.00     0.281 A 
HETATM   12  C13 UNL     1      22.625   1.220  51.792  1.00  0.00     0.298 A 
HETATM   13  C14 UNL     1      21.940   0.758  50.549  1.00  0.00     0.030 C 
HETATM   14  C15 UNL     1      20.769   0.980  49.898  1.00  0.00     0.092 C 
HETATM   15  N4  UNL     1      19.546   1.773  50.065  1.00  0.00    -0.327 N 
HETATM   16  C16 UNL     1      18.470   0.786  50.088  1.00  0.00     0.131 C 
HETATM   17  C17 UNL     1      18.034   0.213  51.347  1.00  0.00     0.021 C 
HETATM   18  C18 UNL     1      18.759  -0.517  52.339  1.00  0.00     0.009 C 
HETATM   19  C19 UNL     1      19.666  -0.053  53.379  1.00  0.00     0.082 C 
ENDROOT
BRANCH  10  20
HETATM   20  C6  UNL     1      24.543   1.126  53.041  1.00  0.00     0.167 A 
HETATM   21  C7  UNL     1      25.334   2.230  53.260  1.00  0.00     0.043 A 
HETATM   22  C8  UNL     1      26.670   1.991  53.301  1.00  0.00     0.046 A 
HETATM   23  C9  UNL     1      27.196   0.733  53.136  1.00  0.00     0.138 A 
HETATM   24  F1  UNL     1      28.531   0.543  53.185  1.00  0.00    -0.204 F 
HETATM   25  C10 UNL     1      26.321  -0.327  52.918  1.00  0.00     0.074 A 
HETATM   26 CL1  UNL     1      27.013  -1.938  52.707  1.00  0.00    -0.081 Cl
HETATM   27  C11 UNL     1      24.931  -0.159  52.862  1.00  0.00     0.067 A 
ENDBRANCH  10  20
TORSDOF 1
ENDMDL
MODEL 5
REMARK VINA RESULT:      -8.6      3.721      5.639
REMARK  1 active torsions:
REMARK  status: ('A' for Active; 'I' for Inactive)
REMARK    1  A    between atoms: N3_10  and  C6_11 
ROOT
HETATM    1  O1  UNL     1      26.386   4.200  49.976  1.00  0.00    -0.271 OA
HETATM    2  C1  UNL     1      25.787   3.202  50.398  1.00  0.00     0.247 C 
HETATM    3  C2  UNL     1      26.770   2.482  51.227  1.00  0.00     0.271 C 
HETATM    4  O2  UNL     1      26.111   1.622  52.129  1.00  0.00    -0.376 OA
HETATM    5  C3  UNL     1      25.353   2.297  53.030  1.00  0.00     0.226 C 
HETATM    6  C4  UNL     1      24.250   3.168  52.609  1.00  0.00     0.083 A 
HETATM    7  N1  UNL     1      23.599   4.192  52.218  1.00  0.00    -0.235 NA
HETATM    8  C5  UNL     1      22.181   4.181  52.072  1.00  0.00     0.154 A 
HETATM    9  N2  UNL     1      21.185   3.294  52.244  1.00  0.00    -0.061 NA
HETATM   10  N3  UNL     1      21.723   1.976  52.704  1.00  0.00     0.097 N 
HETATM   11  C12 UNL     1      23.062   2.425  52.711  1.00  0.00     0.281 A 
HETATM   12  C13 UNL     1      22.348   1.945  51.573  1.00  0.00     0.298 A 
HETATM   13  C14 UNL     1      22.691   2.169  50.137  1.00  0.00     0.030 C 
HETATM   14  C15 UNL     1      23.610   2.858  49.413  1.00  0.00     0.092 C 
HETATM   15  N4  UNL     1      24.743   3.762  49.641  1.00  0.00    -0.327 N 
HETATM   16  C16 UNL     1      24.383   4.987  48.933  1.00  0.00     0.131 C 
HETATM   17  C17 UNL     1      23.661   6.040  49.622  1.00  0.00     0.021 C 
HETATM   18  C18 UNL     1      22.396   6.021  50.287  1.00  0.00     0.009 C 
HETATM   19  C19 UNL     1      22.028   5.522  51.605  1.00  0.00     0.082 C 
ENDROOT
BRANCH  10  20
HETATM   20  C6  UNL     1      21.004   0.813  53.042  1.00  0.00     0.167 A 
HETATM   21  C7  UNL     1      21.494  -0.092  53.955  1.00  0.00     0.043 A 
HETATM   22  C8  UNL     1      20.701  -1.168  54.193  1.00  0.00     0.046 A 
HETATM   23  C9  UNL     1      19.492  -1.342  53.565  1.00  0.00     0.138 A 
HETATM   24  F1  UNL     1      18.737  -2.428  53.833  1.00  0.00    -0.204 F 
HETATM   25  C10 UNL     1      19.074  -0.376  52.655  1.00  0.00     0.074 A 
HETATM   26 CL1  UNL     1      17.518  -0.614  51.856  1.00  0.00    -0.081 Cl
HETATM   27  C11 UNL     1      19.837   0.761  52.357  1.00  0.00     0.067 A 
ENDBRANCH  10  20
TORSDOF 1
ENDMDL
MODEL 6
REMARK VINA RESULT:      -8.6      2.047      3.493
REMARK  1 active torsions:
REMARK  status: ('A' for Active; 'I' for Inactive)
REMARK    1  A    between atoms: N3_10  and  C6_11 
ROOT
HETATM    1  O1  UNL     1      20.598   5.202  49.969  1.00  0.00    -0.271 OA
HETATM    2  C1  UNL     1      21.742   4.831  50.265  1.00  0.00     0.247 C 
HETATM    3  C2  UNL     1      22.366   5.993  50.924  1.00  0.00     0.271 C 
HETATM    4  O2  UNL     1      23.454   5.576  51.719  1.00  0.00    -0.376 OA
HETATM    5  C3  UNL     1      23.068   4.781  52.749  1.00  0.00     0.226 C 
HETATM    6  C4  UNL     1      22.377   3.507  52.523  1.00  0.00     0.083 A 
HETATM    7  N1  UNL     1      21.453   2.651  52.325  1.00  0.00    -0.235 NA
HETATM    8  C5  UNL     1      21.718   1.251  52.252  1.00  0.00     0.154 A 
HETATM    9  N2  UNL     1      22.795   0.452  52.340  1.00  0.00    -0.061 NA
HETATM   10  N3  UNL     1      24.035   1.257  52.567  1.00  0.00     0.097 N 
HETATM   11  C12 UNL     1      23.342   2.488  52.572  1.00  0.00     0.281 A 
HETATM   12  C13 UNL     1      23.788   1.785  51.414  1.00  0.00     0.298 A 
HETATM   13  C14 UNL     1      23.306   1.966  50.012  1.00  0.00     0.030 C 
HETATM   14  C15 UNL     1      22.359   2.683  49.354  1.00  0.00     0.092 C 
HETATM   15  N4  UNL     1      21.294   3.646  49.657  1.00  0.00    -0.327 N 
HETATM   16  C16 UNL     1      20.076   3.012  49.161  1.00  0.00     0.131 C 
HETATM   17  C17 UNL     1      19.288   2.166  50.038  1.00  0.00     0.021 C 
HETATM   18  C18 UNL     1      19.642   0.983  50.757  1.00  0.00     0.009 C 
HETATM   19  C19 UNL     1      20.380   0.819  52.002  1.00  0.00     0.082 C 
ENDROOT
BRANCH  10  20
HETATM   20  C6  UNL     1      25.351   0.793  52.762  1.00  0.00     0.167 A 
HETATM   21  C7  UNL     1      25.662  -0.543  52.661  1.00  0.00     0.043 A 
HETATM   22  C8  UNL     1      26.967  -0.856  52.867  1.00  0.00     0.046 A 
HETATM   23  C9  UNL     1      27.913   0.097  53.157  1.00  0.00     0.138 A 
HETATM   24  F1  UNL     1      29.199  -0.260  53.355  1.00  0.00    -0.204 F 
HETATM   25  C10 UNL     1      27.509   1.426  53.240  1.00  0.00     0.074 A 
HETATM   26 CL1  UNL     1      28.737   2.639  53.614  1.00  0.00    -0.081 Cl
HETATM   27  C11 UNL     1      26.181   1.826  53.040  1.00  0.00     0.067 A 
ENDBRANCH  10  20
TORSDOF 1
ENDMDL
MODEL 7
REMARK VINA RESULT:      -8.4      8.380     10.666
REMARK  1 active torsions:
REMARK  status: ('A' for Active; 'I' for Inactive)
REMARK    1  A    between atoms: N3_10  and  C6_11 
ROOT
HETATM    1  O1  UNL     1      35.410   7.386  47.888  1.00  0.00    -0.271 OA
HETATM    2  C1  UNL     1      34.230   7.660  48.142  1.00  0.00     0.247 C 
HETATM    3  C2  UNL     1      33.998   8.981  47.528  1.00  0.00     0.271 C 
HETATM    4  O2  UNL     1      32.619   9.189  47.326  1.00  0.00    -0.376 OA
HETATM    5  C3  UNL     1      32.088   8.314  46.434  1.00  0.00     0.226 C 
HETATM    6  C4  UNL     1      32.126   6.865  46.660  1.00  0.00     0.083 A 
HETATM    7  N1  UNL     1      32.524   5.654  46.677  1.00  0.00    -0.235 NA
HETATM    8  C5  UNL     1      31.703   4.592  47.159  1.00  0.00     0.154 A 
HETATM    9  N2  UNL     1      30.467   4.464  47.672  1.00  0.00    -0.061 NA
HETATM   10  N3  UNL     1      29.790   5.795  47.760  1.00  0.00     0.097 N 
HETATM   11  C12 UNL     1      30.891   6.491  47.214  1.00  0.00     0.281 A 
HETATM   12  C13 UNL     1      30.736   6.114  48.581  1.00  0.00     0.298 A 
HETATM   13  C14 UNL     1      31.812   6.014  49.612  1.00  0.00     0.030 C 
HETATM   14  C15 UNL     1      33.163   6.135  49.679  1.00  0.00     0.092 C 
HETATM   15  N4  UNL     1      34.292   6.411  48.784  1.00  0.00    -0.327 N 
HETATM   16  C16 UNL     1      35.150   5.237  48.905  1.00  0.00     0.131 C 
HETATM   17  C17 UNL     1      34.973   4.110  48.008  1.00  0.00     0.021 C 
HETATM   18  C18 UNL     1      33.832   3.283  47.766  1.00  0.00     0.009 C 
HETATM   19  C19 UNL     1      32.638   3.530  46.970  1.00  0.00     0.082 C 
ENDROOT
BRANCH  10  20
HETATM   20  C6  UNL     1      28.479   6.078  48.193  1.00  0.00     0.167 A 
HETATM   21  C7  UNL     1      27.992   7.364  48.207  1.00  0.00     0.043 A 
HETATM   22  C8  UNL     1      26.713   7.498  48.643  1.00  0.00     0.046 A 
HETATM   23  C9  UNL     1      25.957   6.423  49.042  1.00  0.00     0.138 A 
HETATM   24  F1  UNL     1      24.689   6.605  49.468  1.00  0.00    -0.204 F 
HETATM   25  C10 UNL     1      26.531   5.157  48.995  1.00  0.00     0.074 A 
HETATM   26 CL1  UNL     1      25.546   3.785  49.512  1.00  0.00    -0.081 Cl
HETATM   27  C11 UNL     1      27.844   4.939  48.558  1.00  0.00     0.067 A 
ENDBRANCH  10  20
TORSDOF 1
ENDMDL
MODEL 8
REMARK VINA RESULT:      -8.1      7.917      9.361
REMARK  1 active torsions:
REMARK  status: ('A' for Active; 'I' for Inactive)
REMARK    1  A    between atoms: N3_10  and  C6_11 
ROOT
HETATM    1  O1  UNL     1      28.140  11.401  47.269  1.00  0.00    -0.271 OA
HETATM    2  C1  UNL     1      29.188  10.743  47.259  1.00  0.00     0.247 C 
HETATM    3  C2  UNL     1      30.162  11.557  48.010  1.00  0.00     0.271 C 
HETATM    4  O2  UNL     1      31.215  10.747  48.480  1.00  0.00    -0.376 OA
HETATM    5  C3  UNL     1      30.796   9.822  49.381  1.00  0.00     0.226 C 
HETATM    6  C4  UNL     1      29.792   8.810  49.035  1.00  0.00     0.083 A 
HETATM    7  N1  UNL     1      28.670   8.235  48.847  1.00  0.00    -0.235 NA
HETATM    8  C5  UNL     1      28.574   6.871  48.441  1.00  0.00     0.154 A 
HETATM    9  N2  UNL     1      29.426   5.872  48.156  1.00  0.00    -0.061 NA
HETATM   10  N3  UNL     1      30.844   6.326  48.302  1.00  0.00     0.097 N 
HETATM   11  C12 UNL     1      30.477   7.634  48.690  1.00  0.00     0.281 A 
HETATM   12  C13 UNL     1      30.574   7.158  47.349  1.00  0.00     0.298 A 
HETATM   13  C14 UNL     1      29.960   7.768  46.133  1.00  0.00     0.030 C 
HETATM   14  C15 UNL     1      29.132   8.801  45.828  1.00  0.00     0.092 C 
HETATM   15  N4  UNL     1      28.386   9.859  46.518  1.00  0.00    -0.327 N 
HETATM   16  C16 UNL     1      26.994   9.626  46.146  1.00  0.00     0.131 C 
HETATM   17  C17 UNL     1      26.154   8.773  46.966  1.00  0.00     0.021 C 
HETATM   18  C18 UNL     1      26.307   7.404  47.347  1.00  0.00     0.009 C 
HETATM   19  C19 UNL     1      27.149   6.796  48.367  1.00  0.00     0.082 C 
ENDROOT
BRANCH  10  20
HETATM   20  C6  UNL     1      32.021   5.570  48.143  1.00  0.00     0.167 A 
HETATM   21  C7  UNL     1      33.251   6.076  48.496  1.00  0.00     0.043 A 
HETATM   22  C8  UNL     1      34.304   5.243  48.296  1.00  0.00     0.046 A 
HETATM   23  C9  UNL     1      34.152   3.980  47.776  1.00  0.00     0.138 A 
HETATM   24  F1  UNL     1      35.229   3.186  47.594  1.00  0.00    -0.204 F 
HETATM   25  C10 UNL     1      32.871   3.550  47.446  1.00  0.00     0.074 A 
HETATM   26 CL1  UNL     1      32.693   1.925  46.779  1.00  0.00    -0.081 Cl
HETATM   27  C11 UNL     1      31.736   4.352  47.624  1.00  0.00     0.067 A 
ENDBRANCH  10  20
TORSDOF 1
ENDMDL
MODEL 9
REMARK VINA RESULT:      -8.0      4.638      6.959
REMARK  1 active torsions:
REMARK  status: ('A' for Active; 'I' for Inactive)
REMARK    1  A    between atoms: N3_10  and  C6_11 
ROOT
HETATM    1  O1  UNL     1      23.084   4.692  49.630  1.00  0.00    -0.271 OA
HETATM    2  C1  UNL     1      21.993   4.120  49.752  1.00  0.00     0.247 C 
HETATM    3  C2  UNL     1      21.472   3.986  48.379  1.00  0.00     0.271 C 
HETATM    4  O2  UNL     1      20.506   2.960  48.322  1.00  0.00    -0.376 OA
HETATM    5  C3  UNL     1      21.031   1.738  48.595  1.00  0.00     0.226 C 
HETATM    6  C4  UNL     1      21.679   1.448  49.879  1.00  0.00     0.083 A 
HETATM    7  N1  UNL     1      22.562   1.349  50.793  1.00  0.00    -0.235 NA
HETATM    8  C5  UNL     1      22.285   0.747  52.056  1.00  0.00     0.154 A 
HETATM    9  N2  UNL     1      21.228   0.174  52.657  1.00  0.00    -0.061 NA
HETATM   10  N3  UNL     1      20.035   0.183  51.754  1.00  0.00     0.097 N 
HETATM   11  C12 UNL     1      20.727   0.822  50.701  1.00  0.00     0.281 A 
HETATM   12  C13 UNL     1      20.118   1.471  51.816  1.00  0.00     0.298 A 
HETATM   13  C14 UNL     1      20.398   2.851  52.314  1.00  0.00     0.030 C 
HETATM   14  C15 UNL     1      21.245   3.875  52.034  1.00  0.00     0.092 C 
HETATM   15  N4  UNL     1      22.345   4.176  51.111  1.00  0.00    -0.327 N 
HETATM   16  C16 UNL     1      23.479   4.478  51.980  1.00  0.00     0.131 C 
HETATM   17  C17 UNL     1      24.380   3.419  52.395  1.00  0.00     0.021 C 
HETATM   18  C18 UNL     1      24.127   2.205  53.104  1.00  0.00     0.009 C 
HETATM   19  C19 UNL     1      23.572   0.939  52.643  1.00  0.00     0.082 C 
ENDROOT
BRANCH  10  20
HETATM   20  C6  UNL     1      18.759  -0.363  51.992  1.00  0.00     0.167 A 
HETATM   21  C7  UNL     1      18.488  -1.082  53.133  1.00  0.00     0.043 A 
HETATM   22  C8  UNL     1      17.218  -1.548  53.241  1.00  0.00     0.046 A 
HETATM   23  C9  UNL     1      16.267  -1.319  52.276  1.00  0.00     0.138 A 
HETATM   24  F1  UNL     1      15.016  -1.803  52.427  1.00  0.00    -0.204 F 
HETATM   25  C10 UNL     1      16.629  -0.582  51.153  1.00  0.00     0.074 A 
HETATM   26 CL1  UNL     1      15.395  -0.296  49.922  1.00  0.00    -0.081 Cl
HETATM   27  C11 UNL     1      17.919  -0.068  50.971  1.00  0.00     0.067 A 
ENDBRANCH  10  20
TORSDOF 1
ENDMDL
