MODEL 1
REMARK VINA RESULT:      -7.6      0.000      0.000
REMARK  4 active torsions:
REMARK  status: ('A' for Active; 'I' for Inactive)
REMARK       I    between atoms: C1_2  and  N1_3 
REMARK    1  A    between atoms: C1_2  and  C7_13 
REMARK    2  A    between atoms: N1_3  and  S1_4 
REMARK    3  A    between atoms: S1_4  and  C2_6 
REMARK    4  A    between atoms: C12_19  and  O3_20 
ROOT
HETATM    1  O1  UNL     1      24.897   0.877  51.884  1.00  0.00    -0.271 OA
HETATM    2  C1  UNL     1      25.085   1.681  52.833  1.00  0.00     0.243 C 
HETATM    3  N1  UNL     1      23.962   2.532  53.021  1.00  0.00    -0.273 N 
HETATM    4  H1  UNL     1      23.859   3.284  53.737  1.00  0.00     0.179 HD
ENDROOT
BRANCH   2   5
HETATM    5  C7  UNL     1      26.242   1.877  53.748  1.00  0.00     0.157 C 
HETATM    6  C8  UNL     1      26.445   0.700  54.634  1.00  0.00    -0.009 C 
HETATM    7  C9  UNL     1      27.560   0.067  54.955  1.00  0.00    -0.010 C 
HETATM    8  C10 UNL     1      28.860   0.529  54.392  1.00  0.00     0.105 C 
HETATM    9 BR1  UNL     1      29.798  -0.998  53.662  1.00  0.00    -0.083 Br
HETATM   10  C11 UNL     1      28.664   1.488  53.290  1.00  0.00     0.026 C 
HETATM   11  C12 UNL     1      27.519   2.087  52.996  1.00  0.00     0.057 C 
BRANCH  11  12
HETATM   12  O3  UNL     1      27.529   2.961  51.918  1.00  0.00    -0.364 OA
HETATM   13  H10 UNL     1      28.278   3.637  51.820  1.00  0.00     0.217 HD
ENDBRANCH  11  12
ENDBRANCH   2   5
BRANCH   3  14
HETATM   14  S1  UNL     1      22.603   2.333  51.979  1.00  0.00     0.146 S 
HETATM   15  O2  UNL     1      22.112   3.585  51.321  1.00  0.00    -0.233 OA
BRANCH  14  16
HETATM   16  C2  UNL     1      21.277   1.393  52.671  1.00  0.00     0.246 C 
HETATM   17  C3  UNL     1      21.697   0.353  53.617  1.00  0.00     0.018 C 
HETATM   18  C4  UNL     1      20.834  -0.606  53.927  1.00  0.00     0.043 C 
HETATM   19  C5  UNL     1      19.531  -0.520  53.277  1.00  0.00     0.146 C 
HETATM   20  F1  UNL     1      18.391  -1.058  53.774  1.00  0.00    -0.204 F 
HETATM   21  C6  UNL     1      19.429   0.122  52.125  1.00  0.00     0.122 C 
HETATM   22  N2  UNL     1      20.431   0.784  51.667  1.00  0.00    -0.260 NA
ENDBRANCH  14  16
ENDBRANCH   3  14
TORSDOF 4
ENDMDL
MODEL 2
REMARK VINA RESULT:      -7.3      5.216      7.110
REMARK  4 active torsions:
REMARK  status: ('A' for Active; 'I' for Inactive)
REMARK       I    between atoms: C1_2  and  N1_3 
REMARK    1  A    between atoms: C1_2  and  C7_13 
REMARK    2  A    between atoms: N1_3  and  S1_4 
REMARK    3  A    between atoms: S1_4  and  C2_6 
REMARK    4  A    between atoms: C12_19  and  O3_20 
ROOT
HETATM    1  O1  UNL     1      24.024   2.667  50.337  1.00  0.00    -0.271 OA
HETATM    2  C1  UNL     1      24.916   3.533  50.151  1.00  0.00     0.243 C 
HETATM    3  N1  UNL     1      25.908   3.482  51.168  1.00  0.00    -0.273 N 
HETATM    4  H1  UNL     1      26.753   4.088  51.250  1.00  0.00     0.179 HD
ENDROOT
BRANCH   2   5
HETATM    5  C7  UNL     1      25.093   4.558  49.086  1.00  0.00     0.157 C 
HETATM    6  C8  UNL     1      24.298   5.783  49.368  1.00  0.00    -0.009 C 
HETATM    7  C9  UNL     1      24.647   7.054  49.279  1.00  0.00    -0.010 C 
HETATM    8  C10 UNL     1      26.025   7.414  48.840  1.00  0.00     0.105 C 
HETATM    9 BR1  UNL     1      26.758   8.698  50.088  1.00  0.00    -0.083 Br
HETATM   10  C11 UNL     1      26.919   6.242  48.844  1.00  0.00     0.026 C 
HETATM   11  C12 UNL     1      26.522   4.982  48.952  1.00  0.00     0.057 C 
BRANCH  11  12
HETATM   12  O3  UNL     1      27.514   4.011  48.937  1.00  0.00    -0.364 OA
HETATM   13  H10 UNL     1      27.265   3.031  49.007  1.00  0.00     0.217 HD
ENDBRANCH  11  12
ENDBRANCH   2   5
BRANCH   3  14
HETATM   14  S1  UNL     1      25.735   2.307  52.418  1.00  0.00     0.146 S 
HETATM   15  O2  UNL     1      25.116   2.808  53.686  1.00  0.00    -0.233 OA
BRANCH  14  16
HETATM   16  C2  UNL     1      27.186   1.348  52.732  1.00  0.00     0.246 C 
HETATM   17  C3  UNL     1      27.013  -0.097  52.545  1.00  0.00     0.018 C 
HETATM   18  C4  UNL     1      27.917  -0.915  53.067  1.00  0.00     0.043 C 
HETATM   19  C5  UNL     1      29.011  -0.273  53.788  1.00  0.00     0.146 C 
HETATM   20  F1  UNL     1      30.235  -0.825  53.970  1.00  0.00    -0.204 F 
HETATM   21  C6  UNL     1      28.820   0.929  54.307  1.00  0.00     0.122 C 
HETATM   22  N2  UNL     1      27.740   1.576  54.049  1.00  0.00    -0.260 NA
ENDBRANCH  14  16
ENDBRANCH   3  14
TORSDOF 4
ENDMDL
MODEL 3
REMARK VINA RESULT:      -7.1      3.176      3.451
REMARK  4 active torsions:
REMARK  status: ('A' for Active; 'I' for Inactive)
REMARK       I    between atoms: C1_2  and  N1_3 
REMARK    1  A    between atoms: C1_2  and  C7_13 
REMARK    2  A    between atoms: N1_3  and  S1_4 
REMARK    3  A    between atoms: S1_4  and  C2_6 
REMARK    4  A    between atoms: C12_19  and  O3_20 
ROOT
HETATM    1  O1  UNL     1      26.928   2.439  50.762  1.00  0.00    -0.271 OA
HETATM    2  C1  UNL     1      26.461   2.564  51.923  1.00  0.00     0.243 C 
HETATM    3  N1  UNL     1      25.311   3.400  51.932  1.00  0.00    -0.273 N 
HETATM    4  H1  UNL     1      24.736   3.665  52.761  1.00  0.00     0.179 HD
ENDROOT
BRANCH   2   5
HETATM    5  C7  UNL     1      26.899   2.003  53.231  1.00  0.00     0.157 C 
HETATM    6  C8  UNL     1      26.445   0.598  53.404  1.00  0.00    -0.009 C 
HETATM    7  C9  UNL     1      27.109  -0.455  53.846  1.00  0.00    -0.010 C 
HETATM    8  C10 UNL     1      28.534  -0.311  54.257  1.00  0.00     0.105 C 
HETATM    9 BR1  UNL     1      29.570  -1.705  53.403  1.00  0.00    -0.083 Br
HETATM   10  C11 UNL     1      29.097   0.979  53.820  1.00  0.00     0.026 C 
HETATM   11  C12 UNL     1      28.389   2.004  53.367  1.00  0.00     0.057 C 
BRANCH  11  12
HETATM   12  O3  UNL     1      29.098   3.140  53.001  1.00  0.00    -0.364 OA
HETATM   13  H10 UNL     1      29.474   3.224  52.063  1.00  0.00     0.217 HD
ENDBRANCH  11  12
ENDBRANCH   2   5
BRANCH   3  14
HETATM   14  S1  UNL     1      24.776   4.067  50.435  1.00  0.00     0.146 S 
HETATM   15  O2  UNL     1      24.881   5.556  50.323  1.00  0.00    -0.233 OA
BRANCH  14  16
HETATM   16  C2  UNL     1      23.201   3.479  49.890  1.00  0.00     0.246 C 
HETATM   17  C3  UNL     1      22.933   2.072  50.207  1.00  0.00     0.018 C 
HETATM   18  C4  UNL     1      21.952   1.453  49.564  1.00  0.00     0.043 C 
HETATM   19  C5  UNL     1      21.227   2.261  48.588  1.00  0.00     0.146 C 
HETATM   20  F1  UNL     1      19.954   2.021  48.192  1.00  0.00    -0.204 F 
HETATM   21  C6  UNL     1      21.832   3.301  48.041  1.00  0.00     0.122 C 
HETATM   22  N2  UNL     1      22.982   3.679  48.474  1.00  0.00    -0.260 NA
ENDBRANCH  14  16
ENDBRANCH   3  14
TORSDOF 4
ENDMDL
MODEL 4
REMARK VINA RESULT:      -7.1      4.791      6.995
REMARK  4 active torsions:
REMARK  status: ('A' for Active; 'I' for Inactive)
REMARK       I    between atoms: C1_2  and  N1_3 
REMARK    1  A    between atoms: C1_2  and  C7_13 
REMARK    2  A    between atoms: N1_3  and  S1_4 
REMARK    3  A    between atoms: S1_4  and  C2_6 
REMARK    4  A    between atoms: C12_19  and  O3_20 
ROOT
HETATM    1  O1  UNL     1      24.657   2.334  53.219  1.00  0.00    -0.271 OA
HETATM    2  C1  UNL     1      25.134   2.545  52.075  1.00  0.00     0.243 C 
HETATM    3  N1  UNL     1      26.546   2.378  52.064  1.00  0.00    -0.273 N 
HETATM    4  H1  UNL     1      27.184   2.493  51.246  1.00  0.00     0.179 HD
ENDROOT
BRANCH   2   5
HETATM    5  C7  UNL     1      24.489   2.926  50.788  1.00  0.00     0.157 C 
HETATM    6  C8  UNL     1      23.008   2.820  50.867  1.00  0.00    -0.009 C 
HETATM    7  C9  UNL     1      22.078   3.660  50.447  1.00  0.00    -0.010 C 
HETATM    8  C10 UNL     1      22.477   4.933  49.784  1.00  0.00     0.105 C 
HETATM    9 BR1  UNL     1      21.511   6.392  50.610  1.00  0.00    -0.083 Br
HETATM   10  C11 UNL     1      23.914   5.209  49.959  1.00  0.00     0.026 C 
HETATM   11  C12 UNL     1      24.809   4.335  50.400  1.00  0.00     0.057 C 
BRANCH  11  12
HETATM   12  O3  UNL     1      26.120   4.779  50.499  1.00  0.00    -0.364 OA
HETATM   13  H10 UNL     1      26.322   5.772  50.481  1.00  0.00     0.217 HD
ENDBRANCH  11  12
ENDBRANCH   2   5
BRANCH   3  14
HETATM   14  S1  UNL     1      27.327   1.937  53.536  1.00  0.00     0.146 S 
HETATM   15  O2  UNL     1      28.440   2.842  53.966  1.00  0.00    -0.233 OA
BRANCH  14  16
HETATM   16  C2  UNL     1      27.789   0.235  53.642  1.00  0.00     0.246 C 
HETATM   17  C3  UNL     1      29.237  -0.004  53.635  1.00  0.00     0.018 C 
HETATM   18  C4  UNL     1      29.675  -1.229  53.375  1.00  0.00     0.043 C 
HETATM   19  C5  UNL     1      28.644  -2.229  53.119  1.00  0.00     0.146 C 
HETATM   20  F1  UNL     1      28.806  -3.560  53.308  1.00  0.00    -0.204 F 
HETATM   21  C6  UNL     1      27.463  -1.833  52.672  1.00  0.00     0.122 C 
HETATM   22  N2  UNL     1      27.186  -0.580  52.610  1.00  0.00    -0.260 NA
ENDBRANCH  14  16
ENDBRANCH   3  14
TORSDOF 4
ENDMDL
MODEL 5
REMARK VINA RESULT:      -7.1      4.568      6.990
REMARK  4 active torsions:
REMARK  status: ('A' for Active; 'I' for Inactive)
REMARK       I    between atoms: C1_2  and  N1_3 
REMARK    1  A    between atoms: C1_2  and  C7_13 
REMARK    2  A    between atoms: N1_3  and  S1_4 
REMARK    3  A    between atoms: S1_4  and  C2_6 
REMARK    4  A    between atoms: C12_19  and  O3_20 
ROOT
HETATM    1  O1  UNL     1      24.666   1.698  53.368  1.00  0.00    -0.271 OA
HETATM    2  C1  UNL     1      25.052   2.167  52.268  1.00  0.00     0.243 C 
HETATM    3  N1  UNL     1      26.461   2.356  52.251  1.00  0.00    -0.273 N 
HETATM    4  H1  UNL     1      27.033   2.731  51.463  1.00  0.00     0.179 HD
ENDROOT
BRANCH   2   5
HETATM    5  C7  UNL     1      24.305   2.542  51.035  1.00  0.00     0.157 C 
HETATM    6  C8  UNL     1      23.095   1.698  50.851  1.00  0.00    -0.009 C 
HETATM    7  C9  UNL     1      21.866   2.047  50.518  1.00  0.00    -0.010 C 
HETATM    8  C10 UNL     1      21.546   3.482  50.271  1.00  0.00     0.105 C 
HETATM    9 BR1  UNL     1      19.960   3.946  51.278  1.00  0.00    -0.083 Br
HETATM   10  C11 UNL     1      22.630   4.366  50.733  1.00  0.00     0.026 C 
HETATM   11  C12 UNL     1      23.847   3.966  51.072  1.00  0.00     0.057 C 
BRANCH  11  12
HETATM   12  O3  UNL     1      24.736   4.949  51.485  1.00  0.00    -0.364 OA
HETATM   13  H10 UNL     1      24.630   5.900  51.153  1.00  0.00     0.217 HD
ENDBRANCH  11  12
ENDBRANCH   2   5
BRANCH   3  14
HETATM   14  S1  UNL     1      27.358   1.933  53.661  1.00  0.00     0.146 S 
HETATM   15  O2  UNL     1      28.492   2.852  53.998  1.00  0.00    -0.233 OA
BRANCH  14  16
HETATM   16  C2  UNL     1      27.843   0.236  53.742  1.00  0.00     0.246 C 
HETATM   17  C3  UNL     1      29.294   0.019  53.764  1.00  0.00     0.018 C 
HETATM   18  C4  UNL     1      29.757  -1.194  53.488  1.00  0.00     0.043 C 
HETATM   19  C5  UNL     1      28.746  -2.203  53.188  1.00  0.00     0.146 C 
HETATM   20  F1  UNL     1      28.925  -3.536  53.352  1.00  0.00    -0.204 F 
HETATM   21  C6  UNL     1      27.571  -1.815  52.722  1.00  0.00     0.122 C 
HETATM   22  N2  UNL     1      27.276  -0.565  52.680  1.00  0.00    -0.260 NA
ENDBRANCH  14  16
ENDBRANCH   3  14
TORSDOF 4
ENDMDL
MODEL 6
REMARK VINA RESULT:      -7.1      5.629      7.496
REMARK  4 active torsions:
REMARK  status: ('A' for Active; 'I' for Inactive)
REMARK       I    between atoms: C1_2  and  N1_3 
REMARK    1  A    between atoms: C1_2  and  C7_13 
REMARK    2  A    between atoms: N1_3  and  S1_4 
REMARK    3  A    between atoms: S1_4  and  C2_6 
REMARK    4  A    between atoms: C12_19  and  O3_20 
ROOT
HETATM    1  O1  UNL     1      23.804   3.591  50.209  1.00  0.00    -0.271 OA
HETATM    2  C1  UNL     1      24.753   4.353  50.525  1.00  0.00     0.243 C 
HETATM    3  N1  UNL     1      25.647   3.720  51.432  1.00  0.00    -0.273 N 
HETATM    4  H1  UNL     1      26.511   4.130  51.848  1.00  0.00     0.179 HD
ENDROOT
BRANCH   2   5
HETATM    5  C7  UNL     1      25.076   5.750  50.123  1.00  0.00     0.157 C 
HETATM    6  C8  UNL     1      24.626   6.037  48.735  1.00  0.00    -0.009 C 
HETATM    7  C9  UNL     1      23.990   7.091  48.256  1.00  0.00    -0.010 C 
HETATM    8  C10 UNL     1      23.624   8.212  49.167  1.00  0.00     0.105 C 
HETATM    9 BR1  UNL     1      21.759   8.650  48.897  1.00  0.00    -0.083 Br
HETATM   10  C11 UNL     1      23.782   7.833  50.583  1.00  0.00     0.026 C 
HETATM   11  C12 UNL     1      24.417   6.754  51.016  1.00  0.00     0.057 C 
BRANCH  11  12
HETATM   12  O3  UNL     1      24.462   6.564  52.390  1.00  0.00    -0.364 OA
HETATM   13  H10 UNL     1      25.355   6.515  52.867  1.00  0.00     0.217 HD
ENDBRANCH  11  12
ENDBRANCH   2   5
BRANCH   3  14
HETATM   14  S1  UNL     1      25.304   2.103  51.920  1.00  0.00     0.146 S 
HETATM   15  O2  UNL     1      24.285   1.965  53.009  1.00  0.00    -0.233 OA
BRANCH  14  16
HETATM   16  C2  UNL     1      26.732   1.110  52.230  1.00  0.00     0.246 C 
HETATM   17  C3  UNL     1      26.471  -0.333  52.276  1.00  0.00     0.018 C 
HETATM   18  C4  UNL     1      27.385  -1.125  52.824  1.00  0.00     0.043 C 
HETATM   19  C5  UNL     1      28.578  -0.456  53.333  1.00  0.00     0.146 C 
HETATM   20  F1  UNL     1      29.786  -1.052  53.475  1.00  0.00    -0.204 F 
HETATM   21  C6  UNL     1      28.500   0.816  53.684  1.00  0.00     0.122 C 
HETATM   22  N2  UNL     1      27.431   1.487  53.439  1.00  0.00    -0.260 NA
ENDBRANCH  14  16
ENDBRANCH   3  14
TORSDOF 4
ENDMDL
MODEL 7
REMARK VINA RESULT:      -7.0      4.313      5.823
REMARK  4 active torsions:
REMARK  status: ('A' for Active; 'I' for Inactive)
REMARK       I    between atoms: C1_2  and  N1_3 
REMARK    1  A    between atoms: C1_2  and  C7_13 
REMARK    2  A    between atoms: N1_3  and  S1_4 
REMARK    3  A    between atoms: S1_4  and  C2_6 
REMARK    4  A    between atoms: C12_19  and  O3_20 
ROOT
HETATM    1  O1  UNL     1      24.053   4.126  52.646  1.00  0.00    -0.271 OA
HETATM    2  C1  UNL     1      24.086   2.870  52.588  1.00  0.00     0.243 C 
HETATM    3  N1  UNL     1      23.726   2.402  51.295  1.00  0.00    -0.273 N 
HETATM    4  H1  UNL     1      23.674   1.408  50.981  1.00  0.00     0.179 HD
ENDROOT
BRANCH   2   5
HETATM    5  C7  UNL     1      24.425   1.841  53.609  1.00  0.00     0.157 C 
HETATM    6  C8  UNL     1      23.900   0.502  53.232  1.00  0.00    -0.009 C 
HETATM    7  C9  UNL     1      24.492  -0.678  53.275  1.00  0.00    -0.010 C 
HETATM    8  C10 UNL     1      25.897  -0.784  53.760  1.00  0.00     0.105 C 
HETATM    9 BR1  UNL     1      26.916  -1.826  52.487  1.00  0.00    -0.083 Br
HETATM   10  C11 UNL     1      26.539   0.538  53.854  1.00  0.00     0.026 C 
HETATM   11  C12 UNL     1      25.904   1.700  53.789  1.00  0.00     0.057 C 
BRANCH  11  12
HETATM   12  O3  UNL     1      26.681   2.845  53.898  1.00  0.00    -0.364 OA
HETATM   13  H10 UNL     1      26.628   3.563  53.185  1.00  0.00     0.217 HD
ENDBRANCH  11  12
ENDBRANCH   2   5
BRANCH   3  14
HETATM   14  S1  UNL     1      23.327   3.566  50.087  1.00  0.00     0.146 S 
HETATM   15  O2  UNL     1      22.260   3.148  49.124  1.00  0.00    -0.233 OA
BRANCH  14  16
HETATM   16  C2  UNL     1      24.719   4.271  49.258  1.00  0.00     0.246 C 
HETATM   17  C3  UNL     1      25.980   3.549  49.463  1.00  0.00     0.018 C 
HETATM   18  C4  UNL     1      27.117   4.166  49.172  1.00  0.00     0.043 C 
HETATM   19  C5  UNL     1      26.987   5.528  48.666  1.00  0.00     0.146 C 
HETATM   20  F1  UNL     1      27.905   6.145  47.884  1.00  0.00    -0.204 F 
HETATM   21  C6  UNL     1      25.909   6.228  48.979  1.00  0.00     0.122 C 
HETATM   22  N2  UNL     1      24.930   5.663  49.589  1.00  0.00    -0.260 NA
ENDBRANCH  14  16
ENDBRANCH   3  14
TORSDOF 4
ENDMDL
MODEL 8
REMARK VINA RESULT:      -6.9      3.922      4.948
REMARK  4 active torsions:
REMARK  status: ('A' for Active; 'I' for Inactive)
REMARK       I    between atoms: C1_2  and  N1_3 
REMARK    1  A    between atoms: C1_2  and  C7_13 
REMARK    2  A    between atoms: N1_3  and  S1_4 
REMARK    3  A    between atoms: S1_4  and  C2_6 
REMARK    4  A    between atoms: C12_19  and  O3_20 
ROOT
HETATM    1  O1  UNL     1      23.932   3.330  52.298  1.00  0.00    -0.271 OA
HETATM    2  C1  UNL     1      24.502   2.784  51.319  1.00  0.00     0.243 C 
HETATM    3  N1  UNL     1      24.877   1.446  51.617  1.00  0.00    -0.273 N 
HETATM    4  H1  UNL     1      25.362   0.775  50.982  1.00  0.00     0.179 HD
ENDROOT
BRANCH   2   5
HETATM    5  C7  UNL     1      24.833   3.292  49.959  1.00  0.00     0.157 C 
HETATM    6  C8  UNL     1      23.757   4.169  49.426  1.00  0.00    -0.009 C 
HETATM    7  C9  UNL     1      23.847   5.334  48.809  1.00  0.00    -0.010 C 
HETATM    8  C10 UNL     1      25.186   5.942  48.567  1.00  0.00     0.105 C 
HETATM    9 BR1  UNL     1      25.149   7.784  49.159  1.00  0.00    -0.083 Br
HETATM   10  C11 UNL     1      26.239   5.257  49.338  1.00  0.00     0.026 C 
HETATM   11  C12 UNL     1      26.097   4.093  49.955  1.00  0.00     0.057 C 
BRANCH  11  12
HETATM   12  O3  UNL     1      27.205   3.605  50.634  1.00  0.00    -0.364 OA
HETATM   13  H10 UNL     1      27.179   2.679  51.046  1.00  0.00     0.217 HD
ENDBRANCH  11  12
ENDBRANCH   2   5
BRANCH   3  14
HETATM   14  S1  UNL     1      24.510   0.825  53.183  1.00  0.00     0.146 S 
HETATM   15  O2  UNL     1      25.635   0.114  53.870  1.00  0.00    -0.233 OA
BRANCH  14  16
HETATM   16  C2  UNL     1      23.002  -0.092  53.275  1.00  0.00     0.246 C 
HETATM   17  C3  UNL     1      21.787   0.726  53.190  1.00  0.00     0.018 C 
HETATM   18  C4  UNL     1      20.636   0.192  53.579  1.00  0.00     0.043 C 
HETATM   19  C5  UNL     1      20.708  -1.184  54.060  1.00  0.00     0.146 C 
HETATM   20  F1  UNL     1      19.670  -2.055  54.045  1.00  0.00    -0.204 F 
HETATM   21  C6  UNL     1      21.852  -1.635  54.548  1.00  0.00     0.122 C 
HETATM   22  N2  UNL     1      22.916  -0.920  54.459  1.00  0.00    -0.260 NA
ENDBRANCH  14  16
ENDBRANCH   3  14
TORSDOF 4
ENDMDL
MODEL 9
REMARK VINA RESULT:      -6.8      3.821      6.952
REMARK  4 active torsions:
REMARK  status: ('A' for Active; 'I' for Inactive)
REMARK       I    between atoms: C1_2  and  N1_3 
REMARK    1  A    between atoms: C1_2  and  C7_13 
REMARK    2  A    between atoms: N1_3  and  S1_4 
REMARK    3  A    between atoms: S1_4  and  C2_6 
REMARK    4  A    between atoms: C12_19  and  O3_20 
ROOT
HETATM    1  O1  UNL     1      24.003   4.299  50.694  1.00  0.00    -0.271 OA
HETATM    2  C1  UNL     1      23.468   3.163  50.752  1.00  0.00     0.243 C 
HETATM    3  N1  UNL     1      24.427   2.150  51.026  1.00  0.00    -0.273 N 
HETATM    4  H1  UNL     1      24.247   1.128  51.125  1.00  0.00     0.179 HD
ENDROOT
BRANCH   2   5
HETATM    5  C7  UNL     1      22.054   2.727  50.586  1.00  0.00     0.157 C 
HETATM    6  C8  UNL     1      21.957   1.260  50.364  1.00  0.00    -0.009 C 
HETATM    7  C9  UNL     1      21.134   0.378  50.903  1.00  0.00    -0.010 C 
HETATM    8  C10 UNL     1      20.114   0.826  51.894  1.00  0.00     0.105 C 
HETATM    9 BR1  UNL     1      20.206  -0.329  53.444  1.00  0.00    -0.083 Br
HETATM   10  C11 UNL     1      20.377   2.200  52.358  1.00  0.00     0.026 C 
HETATM   11  C12 UNL     1      21.227   3.045  51.792  1.00  0.00     0.057 C 
BRANCH  11  12
HETATM   12  O3  UNL     1      21.340   4.301  52.373  1.00  0.00    -0.364 OA
HETATM   13  H10 UNL     1      22.109   4.501  53.002  1.00  0.00     0.217 HD
ENDBRANCH  11  12
ENDBRANCH   2   5
BRANCH   3  14
HETATM   14  S1  UNL     1      26.074   2.620  51.223  1.00  0.00     0.146 S 
HETATM   15  O2  UNL     1      26.815   2.905  49.954  1.00  0.00    -0.233 OA
BRANCH  14  16
HETATM   16  C2  UNL     1      27.009   1.585  52.309  1.00  0.00     0.246 C 
HETATM   17  C3  UNL     1      26.241   1.025  53.427  1.00  0.00     0.018 C 
HETATM   18  C4  UNL     1      26.903   0.524  54.461  1.00  0.00     0.043 C 
HETATM   19  C5  UNL     1      28.358   0.586  54.371  1.00  0.00     0.146 C 
HETATM   20  F1  UNL     1      29.201  -0.249  55.026  1.00  0.00    -0.204 F 
HETATM   21  C6  UNL     1      28.915   1.510  53.607  1.00  0.00     0.122 C 
HETATM   22  N2  UNL     1      28.183   2.239  52.842  1.00  0.00    -0.260 NA
ENDBRANCH  14  16
ENDBRANCH   3  14
TORSDOF 4
ENDMDL
