MODEL 1
REMARK VINA RESULT:      -8.1      0.000      0.000
REMARK  2 active torsions:
REMARK  status: ('A' for Active; 'I' for Inactive)
REMARK    1  A    between atoms: C3_3  and  N1_4 
REMARK    2  A    between atoms: C12_17  and  C13_18 
ROOT
HETATM    1  N1  UNL     1      20.081   5.614  47.755  1.00  0.00    -0.330 N 
HETATM    2  C4  UNL     1      19.601   6.887  47.780  1.00  0.00     0.475 C 
HETATM    3  O1  UNL     1      19.218   8.046  47.902  1.00  0.00    -0.392 OA
HETATM    4  H4  UNL     1      19.619   5.511  46.800  1.00  0.00     0.168 HD
ENDROOT
BRANCH   1   5
HETATM    5  C3  UNL     1      20.860   4.862  48.659  1.00  0.00     0.126 C 
HETATM    6  C2  UNL     1      21.575   3.843  48.314  1.00  0.00     0.048 C 
HETATM    7  C1  UNL     1      21.559   3.476  46.882  1.00  0.00     0.072 C 
HETATM    8  N4  UNL     1      22.425   2.831  48.877  1.00  0.00    -0.376 N 
HETATM    9  C9  UNL     1      23.775   3.185  49.329  1.00  0.00     0.153 C 
HETATM   10  C10 UNL     1      21.891   1.496  48.939  1.00  0.00     0.150 C 
HETATM   11  C8  UNL     1      23.493   3.809  50.756  1.00  0.00     0.291 C 
HETATM   12  N3  UNL     1      22.830   5.090  50.413  1.00  0.00     0.089 N 
HETATM   13  C6  UNL     1      21.899   5.590  51.347  1.00  0.00     0.318 C 
HETATM   14  C7  UNL     1      24.015   6.051  50.576  1.00  0.00     0.310 C 
HETATM   15  C5  UNL     1      20.422   5.235  50.899  1.00  0.00     0.213 C 
HETATM   16  N2  UNL     1      20.346   5.773  49.606  1.00  0.00    -0.352 N 
HETATM   17  N5  UNL     1      20.235   3.811  50.902  1.00  0.00    -0.338 N 
HETATM   18  H6  UNL     1      19.942   6.696  49.761  1.00  0.00     0.163 HD
HETATM   19  C20 UNL     1      20.196   2.541  51.486  1.00  0.00     0.223 C 
HETATM   20  H26 UNL     1      19.943   3.436  49.971  1.00  0.00     0.164 HD
HETATM   21  C19 UNL     1      19.977   1.085  50.982  1.00  0.00     0.142 C 
HETATM   22  O2  UNL     1      20.444   3.113  52.571  1.00  0.00    -0.273 OA
HETATM   23  C12 UNL     1      21.279   0.462  51.388  1.00  0.00    -0.041 C 
HETATM   24  C11 UNL     1      21.878   0.913  50.266  1.00  0.00     0.001 C 
BRANCH  23  25
HETATM   25  C13 UNL     1      21.674  -0.137  52.643  1.00  0.00    -0.027 A 
HETATM   26  C14 UNL     1      20.637  -0.580  53.402  1.00  0.00     0.012 A 
HETATM   27  C15 UNL     1      21.131  -1.107  54.605  1.00  0.00     0.004 A 
HETATM   28  C16 UNL     1      22.457  -1.184  54.994  1.00  0.00     0.042 A 
HETATM   29  C17 UNL     1      23.388  -0.690  54.107  1.00  0.00     0.117 A 
HETATM   30  F1  UNL     1      24.683  -0.761  54.496  1.00  0.00    -0.206 F 
HETATM   31  C18 UNL     1      23.018  -0.159  52.920  1.00  0.00     0.054 A 
ENDBRANCH  23  25
ENDBRANCH   1   5
TORSDOF 2
ENDMDL
MODEL 2
REMARK VINA RESULT:      -7.9      2.309      3.562
REMARK  2 active torsions:
REMARK  status: ('A' for Active; 'I' for Inactive)
REMARK    1  A    between atoms: C3_3  and  N1_4 
REMARK    2  A    between atoms: C12_17  and  C13_18 
ROOT
HETATM    1  N1  UNL     1      17.882   3.631  50.342  1.00  0.00    -0.330 N 
HETATM    2  C4  UNL     1      17.131   4.021  51.407  1.00  0.00     0.475 C 
HETATM    3  O1  UNL     1      16.545   4.358  52.431  1.00  0.00    -0.392 OA
HETATM    4  H4  UNL     1      17.016   3.782  49.739  1.00  0.00     0.168 HD
ENDROOT
BRANCH   1   5
HETATM    5  C3  UNL     1      19.229   3.233  50.209  1.00  0.00     0.126 C 
HETATM    6  C2  UNL     1      19.597   2.020  49.963  1.00  0.00     0.048 C 
HETATM    7  C1  UNL     1      18.521   1.017  49.812  1.00  0.00     0.072 C 
HETATM    8  N4  UNL     1      20.780   1.220  49.806  1.00  0.00    -0.376 N 
HETATM    9  C9  UNL     1      21.582   1.341  48.583  1.00  0.00     0.153 C 
HETATM   10  C10 UNL     1      21.096   0.311  50.876  1.00  0.00     0.150 C 
HETATM   11  C8  UNL     1      22.440   2.638  48.877  1.00  0.00     0.291 C 
HETATM   12  N3  UNL     1      21.421   3.712  48.803  1.00  0.00     0.089 N 
HETATM   13  C6  UNL     1      21.645   4.853  49.601  1.00  0.00     0.318 C 
HETATM   14  C7  UNL     1      21.694   4.236  47.387  1.00  0.00     0.310 C 
HETATM   15  C5  UNL     1      20.796   4.770  50.935  1.00  0.00     0.213 C 
HETATM   16  N2  UNL     1      19.486   4.596  50.465  1.00  0.00    -0.352 N 
HETATM   17  N5  UNL     1      21.236   3.658  51.731  1.00  0.00    -0.338 N 
HETATM   18  H6  UNL     1      19.119   5.547  50.441  1.00  0.00     0.163 HD
HETATM   19  C20 UNL     1      22.168   2.916  52.463  1.00  0.00     0.223 C 
HETATM   20  H26 UNL     1      20.471   2.977  51.937  1.00  0.00     0.164 HD
HETATM   21  C19 UNL     1      22.180   1.537  53.185  1.00  0.00     0.142 C 
HETATM   22  O2  UNL     1      22.973   3.848  52.243  1.00  0.00    -0.273 OA
HETATM   23  C12 UNL     1      23.275   0.848  52.426  1.00  0.00    -0.041 C 
HETATM   24  C11 UNL     1      22.415   0.491  51.451  1.00  0.00     0.001 C 
BRANCH  23  25
HETATM   25  C13 UNL     1      24.705   0.861  52.638  1.00  0.00    -0.027 A 
HETATM   26  C14 UNL     1      25.421   1.357  51.594  1.00  0.00     0.012 A 
HETATM   27  C15 UNL     1      26.790   1.290  51.893  1.00  0.00     0.004 A 
HETATM   28  C16 UNL     1      27.362   0.805  53.056  1.00  0.00     0.042 A 
HETATM   29  C17 UNL     1      26.495   0.339  54.020  1.00  0.00     0.117 A 
HETATM   30  F1  UNL     1      27.060  -0.141  55.153  1.00  0.00    -0.206 F 
HETATM   31  C18 UNL     1      25.156   0.357  53.832  1.00  0.00     0.054 A 
ENDBRANCH  23  25
ENDBRANCH   1   5
TORSDOF 2
ENDMDL
MODEL 3
REMARK VINA RESULT:      -7.8      2.488      3.811
REMARK  2 active torsions:
REMARK  status: ('A' for Active; 'I' for Inactive)
REMARK    1  A    between atoms: C3_3  and  N1_4 
REMARK    2  A    between atoms: C12_17  and  C13_18 
ROOT
HETATM    1  N1  UNL     1      19.950   6.211  49.798  1.00  0.00    -0.330 N 
HETATM    2  C4  UNL     1      20.172   7.552  49.756  1.00  0.00     0.475 C 
HETATM    3  O1  UNL     1      20.482   8.738  49.726  1.00  0.00    -0.392 OA
HETATM    4  H4  UNL     1      18.910   6.430  49.710  1.00  0.00     0.168 HD
ENDROOT
BRANCH   1   5
HETATM    5  C3  UNL     1      20.809   5.096  49.901  1.00  0.00     0.126 C 
HETATM    6  C2  UNL     1      20.498   4.007  50.523  1.00  0.00     0.048 C 
HETATM    7  C1  UNL     1      19.158   3.956  51.145  1.00  0.00     0.072 C 
HETATM    8  N4  UNL     1      21.050   2.732  50.890  1.00  0.00    -0.376 N 
HETATM    9  C9  UNL     1      21.213   1.691  49.869  1.00  0.00     0.153 C 
HETATM   10  C10 UNL     1      21.393   2.547  52.275  1.00  0.00     0.150 C 
HETATM   11  C8  UNL     1      22.562   2.126  49.165  1.00  0.00     0.291 C 
HETATM   12  N3  UNL     1      22.155   3.350  48.435  1.00  0.00     0.089 N 
HETATM   13  C6  UNL     1      23.149   4.330  48.238  1.00  0.00     0.318 C 
HETATM   14  C7  UNL     1      21.975   2.769  47.026  1.00  0.00     0.310 C 
HETATM   15  C5  UNL     1      23.013   5.481  49.318  1.00  0.00     0.213 C 
HETATM   16  N2  UNL     1      21.687   5.909  49.156  1.00  0.00    -0.352 N 
HETATM   17  N5  UNL     1      23.252   4.955  50.632  1.00  0.00    -0.338 N 
HETATM   18  H6  UNL     1      21.773   6.696  48.513  1.00  0.00     0.163 HD
HETATM   19  C20 UNL     1      24.012   4.328  51.625  1.00  0.00     0.223 C 
HETATM   20  H26 UNL     1      22.448   5.102  51.283  1.00  0.00     0.164 HD
HETATM   21  C19 UNL     1      23.767   3.855  53.088  1.00  0.00     0.142 C 
HETATM   22  O2  UNL     1      24.945   4.303  50.793  1.00  0.00    -0.273 OA
HETATM   23  C12 UNL     1      24.033   2.387  52.942  1.00  0.00    -0.041 C 
HETATM   24  C11 UNL     1      22.773   2.171  52.510  1.00  0.00     0.001 C 
BRANCH  23  25
HETATM   25  C13 UNL     1      25.277   1.653  53.017  1.00  0.00    -0.027 A 
HETATM   26  C14 UNL     1      26.220   2.231  53.809  1.00  0.00     0.012 A 
HETATM   27  C15 UNL     1      27.389   1.458  53.781  1.00  0.00     0.004 A 
HETATM   28  C16 UNL     1      27.593   0.285  53.074  1.00  0.00     0.042 A 
HETATM   29  C17 UNL     1      26.533  -0.168  52.318  1.00  0.00     0.117 A 
HETATM   30  F1  UNL     1      26.739  -1.311  51.622  1.00  0.00    -0.206 F 
HETATM   31  C18 UNL     1      25.360   0.503  52.274  1.00  0.00     0.054 A 
ENDBRANCH  23  25
ENDBRANCH   1   5
TORSDOF 2
ENDMDL
MODEL 4
REMARK VINA RESULT:      -7.7      2.092      2.675
REMARK  2 active torsions:
REMARK  status: ('A' for Active; 'I' for Inactive)
REMARK    1  A    between atoms: C3_3  and  N1_4 
REMARK    2  A    between atoms: C12_17  and  C13_18 
ROOT
HETATM    1  N1  UNL     1      19.446   7.528  49.651  1.00  0.00    -0.330 N 
HETATM    2  C4  UNL     1      19.458   8.888  49.671  1.00  0.00     0.475 C 
HETATM    3  O1  UNL     1      19.582  10.108  49.691  1.00  0.00    -0.392 OA
HETATM    4  H4  UNL     1      18.382   7.587  49.624  1.00  0.00     0.168 HD
ENDROOT
BRANCH   1   5
HETATM    5  C3  UNL     1      20.469   6.557  49.652  1.00  0.00     0.126 C 
HETATM    6  C2  UNL     1      20.361   5.402  49.082  1.00  0.00     0.048 C 
HETATM    7  C1  UNL     1      19.085   5.118  48.393  1.00  0.00     0.072 C 
HETATM    8  N4  UNL     1      21.087   4.177  48.893  1.00  0.00    -0.376 N 
HETATM    9  C9  UNL     1      22.223   4.141  47.963  1.00  0.00     0.153 C 
HETATM   10  C10 UNL     1      20.625   3.028  49.627  1.00  0.00     0.150 C 
HETATM   11  C8  UNL     1      23.388   4.751  48.843  1.00  0.00     0.291 C 
HETATM   12  N3  UNL     1      22.992   6.175  48.945  1.00  0.00     0.089 N 
HETATM   13  C6  UNL     1      23.389   6.861  50.112  1.00  0.00     0.318 C 
HETATM   14  C7  UNL     1      23.909   6.782  47.874  1.00  0.00     0.310 C 
HETATM   15  C5  UNL     1      22.192   6.929  51.148  1.00  0.00     0.213 C 
HETATM   16  N2  UNL     1      21.165   7.526  50.403  1.00  0.00    -0.352 N 
HETATM   17  N5  UNL     1      21.842   5.606  51.584  1.00  0.00    -0.338 N 
HETATM   18  H6  UNL     1      21.254   8.515  50.635  1.00  0.00     0.163 HD
HETATM   19  C20 UNL     1      22.085   4.366  52.184  1.00  0.00     0.223 C 
HETATM   20  H26 UNL     1      20.844   5.364  51.394  1.00  0.00     0.164 HD
HETATM   21  C19 UNL     1      21.286   3.044  52.379  1.00  0.00     0.142 C 
HETATM   22  O2  UNL     1      23.226   4.802  52.455  1.00  0.00    -0.273 OA
HETATM   23  C12 UNL     1      22.182   2.082  51.657  1.00  0.00    -0.041 C 
HETATM   24  C11 UNL     1      21.628   2.409  50.471  1.00  0.00     0.001 C 
BRANCH  23  25
HETATM   25  C13 UNL     1      23.331   1.343  52.132  1.00  0.00    -0.027 A 
HETATM   26  C14 UNL     1      23.053   0.452  53.122  1.00  0.00     0.012 A 
HETATM   27  C15 UNL     1      24.238  -0.178  53.527  1.00  0.00     0.004 A 
HETATM   28  C16 UNL     1      25.509   0.041  53.025  1.00  0.00     0.042 A 
HETATM   29  C17 UNL     1      25.620   0.978  52.020  1.00  0.00     0.117 A 
HETATM   30  F1  UNL     1      26.866   1.193  51.536  1.00  0.00    -0.206 F 
HETATM   31  C18 UNL     1      24.539   1.645  51.556  1.00  0.00     0.054 A 
ENDBRANCH  23  25
ENDBRANCH   1   5
TORSDOF 2
ENDMDL
MODEL 5
REMARK VINA RESULT:      -7.3      2.256      2.772
REMARK  2 active torsions:
REMARK  status: ('A' for Active; 'I' for Inactive)
REMARK    1  A    between atoms: C3_3  and  N1_4 
REMARK    2  A    between atoms: C12_17  and  C13_18 
ROOT
HETATM    1  N1  UNL     1      21.885   6.664  48.951  1.00  0.00    -0.330 N 
HETATM    2  C4  UNL     1      22.863   7.609  48.958  1.00  0.00     0.475 C 
HETATM    3  O1  UNL     1      23.809   8.388  49.019  1.00  0.00    -0.392 OA
HETATM    4  H4  UNL     1      21.279   7.366  48.425  1.00  0.00     0.168 HD
ENDROOT
BRANCH   1   5
HETATM    5  C3  UNL     1      21.819   5.345  49.447  1.00  0.00     0.126 C 
HETATM    6  C2  UNL     1      21.603   4.310  48.704  1.00  0.00     0.048 C 
HETATM    7  C1  UNL     1      21.427   4.556  47.257  1.00  0.00     0.072 C 
HETATM    8  N4  UNL     1      21.421   2.888  48.794  1.00  0.00    -0.376 N 
HETATM    9  C9  UNL     1      22.577   2.023  49.059  1.00  0.00     0.153 C 
HETATM   10  C10 UNL     1      20.087   2.389  48.588  1.00  0.00     0.150 C 
HETATM   11  C8  UNL     1      22.732   2.150  50.629  1.00  0.00     0.291 C 
HETATM   12  N3  UNL     1      23.221   3.540  50.785  1.00  0.00     0.089 N 
HETATM   13  C6  UNL     1      22.874   4.203  51.980  1.00  0.00     0.318 C 
HETATM   14  C7  UNL     1      24.720   3.273  50.975  1.00  0.00     0.310 C 
HETATM   15  C5  UNL     1      21.629   5.154  51.744  1.00  0.00     0.213 C 
HETATM   16  N2  UNL     1      22.054   5.973  50.688  1.00  0.00    -0.352 N 
HETATM   17  N5  UNL     1      20.475   4.376  51.391  1.00  0.00    -0.338 N 
HETATM   18  H6  UNL     1      22.429   6.793  51.165  1.00  0.00     0.163 HD
HETATM   19  C20 UNL     1      19.493   3.402  51.600  1.00  0.00     0.223 C 
HETATM   20  H26 UNL     1      20.068   4.646  50.468  1.00  0.00     0.164 HD
HETATM   21  C19 UNL     1      18.328   2.793  50.767  1.00  0.00     0.142 C 
HETATM   22  O2  UNL     1      20.000   3.239  52.732  1.00  0.00    -0.273 OA
HETATM   23  C12 UNL     1      18.750   1.355  50.729  1.00  0.00    -0.041 C 
HETATM   24  C11 UNL     1      19.566   1.592  49.681  1.00  0.00     0.001 C 
BRANCH  23  25
HETATM   25  C13 UNL     1      18.504   0.286  51.671  1.00  0.00    -0.027 A 
HETATM   26  C14 UNL     1      17.230  -0.189  51.658  1.00  0.00     0.012 A 
HETATM   27  C15 UNL     1      17.097  -1.192  52.630  1.00  0.00     0.004 A 
HETATM   28  C16 UNL     1      18.081  -1.655  53.485  1.00  0.00     0.042 A 
HETATM   29  C17 UNL     1      19.323  -1.067  53.369  1.00  0.00     0.117 A 
HETATM   30  F1  UNL     1      20.281  -1.520  54.212  1.00  0.00    -0.206 F 
HETATM   31  C18 UNL     1      19.559  -0.091  52.465  1.00  0.00     0.054 A 
ENDBRANCH  23  25
ENDBRANCH   1   5
TORSDOF 2
ENDMDL
MODEL 6
REMARK VINA RESULT:      -7.3      1.483      1.955
REMARK  2 active torsions:
REMARK  status: ('A' for Active; 'I' for Inactive)
REMARK    1  A    between atoms: C3_3  and  N1_4 
REMARK    2  A    between atoms: C12_17  and  C13_18 
ROOT
HETATM    1  N1  UNL     1      18.655   5.511  48.772  1.00  0.00    -0.330 N 
HETATM    2  C4  UNL     1      18.387   6.577  47.972  1.00  0.00     0.475 C 
HETATM    3  O1  UNL     1      18.255   7.541  47.225  1.00  0.00    -0.392 OA
HETATM    4  H4  UNL     1      17.616   5.490  49.008  1.00  0.00     0.168 HD
ENDROOT
BRANCH   1   5
HETATM    5  C3  UNL     1      19.840   4.807  49.072  1.00  0.00     0.126 C 
HETATM    6  C2  UNL     1      20.112   3.631  48.612  1.00  0.00     0.048 C 
HETATM    7  C1  UNL     1      19.106   3.019  47.718  1.00  0.00     0.072 C 
HETATM    8  N4  UNL     1      21.110   2.601  48.694  1.00  0.00    -0.376 N 
HETATM    9  C9  UNL     1      22.398   2.783  48.015  1.00  0.00     0.153 C 
HETATM   10  C10 UNL     1      20.763   1.417  49.435  1.00  0.00     0.150 C 
HETATM   11  C8  UNL     1      23.187   3.695  49.041  1.00  0.00     0.291 C 
HETATM   12  N3  UNL     1      22.478   4.990  48.919  1.00  0.00     0.089 N 
HETATM   13  C6  UNL     1      22.456   5.810  50.066  1.00  0.00     0.318 C 
HETATM   14  C7  UNL     1      23.448   5.736  47.993  1.00  0.00     0.310 C 
HETATM   15  C5  UNL     1      21.079   5.651  50.833  1.00  0.00     0.213 C 
HETATM   16  N2  UNL     1      20.130   5.951  49.844  1.00  0.00    -0.352 N 
HETATM   17  N5  UNL     1      20.940   4.308  51.323  1.00  0.00    -0.338 N 
HETATM   18  H6  UNL     1      19.951   6.944  49.988  1.00  0.00     0.163 HD
HETATM   19  C20 UNL     1      21.312   3.193  52.081  1.00  0.00     0.223 C 
HETATM   20  H26 UNL     1      20.083   3.830  50.965  1.00  0.00     0.164 HD
HETATM   21  C19 UNL     1      20.798   1.734  52.247  1.00  0.00     0.142 C 
HETATM   22  O2  UNL     1      22.245   3.898  52.526  1.00  0.00    -0.273 OA
HETATM   23  C12 UNL     1      22.016   0.970  51.817  1.00  0.00    -0.041 C 
HETATM   24  C11 UNL     1      21.671   1.096  50.518  1.00  0.00     0.001 C 
BRANCH  23  25
HETATM   25  C13 UNL     1      23.168   0.547  52.580  1.00  0.00    -0.027 A 
HETATM   26  C14 UNL     1      24.357   0.992  52.092  1.00  0.00     0.012 A 
HETATM   27  C15 UNL     1      25.402   0.495  52.885  1.00  0.00     0.004 A 
HETATM   28  C16 UNL     1      25.284  -0.318  53.999  1.00  0.00     0.042 A 
HETATM   29  C17 UNL     1      24.005  -0.678  54.364  1.00  0.00     0.117 A 
HETATM   30  F1  UNL     1      23.896  -1.480  55.450  1.00  0.00    -0.206 F 
HETATM   31  C18 UNL     1      22.927  -0.255  53.667  1.00  0.00     0.054 A 
ENDBRANCH  23  25
ENDBRANCH   1   5
TORSDOF 2
ENDMDL
MODEL 7
REMARK VINA RESULT:      -7.1      3.139      6.430
REMARK  2 active torsions:
REMARK  status: ('A' for Active; 'I' for Inactive)
REMARK    1  A    between atoms: C3_3  and  N1_4 
REMARK    2  A    between atoms: C12_17  and  C13_18 
ROOT
HETATM    1  N1  UNL     1      20.134   1.442  52.190  1.00  0.00    -0.330 N 
HETATM    2  C4  UNL     1      20.425   0.940  53.421  1.00  0.00     0.475 C 
HETATM    3  O1  UNL     1      20.780   0.550  54.528  1.00  0.00    -0.392 OA
HETATM    4  H4  UNL     1      19.247   0.851  52.213  1.00  0.00     0.168 HD
ENDROOT
BRANCH   1   5
HETATM    5  C3  UNL     1      20.792   2.360  51.346  1.00  0.00     0.126 C 
HETATM    6  C2  UNL     1      21.176   2.081  50.144  1.00  0.00     0.048 C 
HETATM    7  C1  UNL     1      20.889   0.716  49.656  1.00  0.00     0.072 C 
HETATM    8  N4  UNL     1      21.875   2.661  49.031  1.00  0.00    -0.376 N 
HETATM    9  C9  UNL     1      21.213   3.680  48.209  1.00  0.00     0.153 C 
HETATM   10  C10 UNL     1      23.204   2.172  48.773  1.00  0.00     0.150 C 
HETATM   11  C8  UNL     1      21.415   4.987  49.077  1.00  0.00     0.291 C 
HETATM   12  N3  UNL     1      20.512   4.744  50.227  1.00  0.00     0.089 N 
HETATM   13  C6  UNL     1      20.881   5.329  51.456  1.00  0.00     0.318 C 
HETATM   14  C7  UNL     1      19.308   5.593  49.801  1.00  0.00     0.310 C 
HETATM   15  C5  UNL     1      21.598   4.263  52.382  1.00  0.00     0.213 C 
HETATM   16  N2  UNL     1      20.660   3.224  52.453  1.00  0.00    -0.352 N 
HETATM   17  N5  UNL     1      22.830   3.837  51.780  1.00  0.00    -0.338 N 
HETATM   18  H6  UNL     1      20.145   3.432  53.308  1.00  0.00     0.163 HD
HETATM   19  C20 UNL     1      24.117   4.022  51.263  1.00  0.00     0.223 C 
HETATM   20  H26 UNL     1      22.871   2.805  51.621  1.00  0.00     0.164 HD
HETATM   21  C19 UNL     1      25.179   3.126  50.562  1.00  0.00     0.142 C 
HETATM   22  O2  UNL     1      23.999   5.222  51.596  1.00  0.00    -0.273 OA
HETATM   23  C12 UNL     1      25.308   3.841  49.250  1.00  0.00    -0.041 C 
HETATM   24  C11 UNL     1      24.230   3.196  48.758  1.00  0.00     0.001 C 
BRANCH  23  25
HETATM   25  C13 UNL     1      26.148   4.958  48.877  1.00  0.00    -0.027 A 
HETATM   26  C14 UNL     1      27.471   4.658  48.790  1.00  0.00     0.012 A 
HETATM   27  C15 UNL     1      28.190   5.815  48.458  1.00  0.00     0.004 A 
HETATM   28  C16 UNL     1      27.673   7.081  48.243  1.00  0.00     0.042 A 
HETATM   29  C17 UNL     1      26.307   7.216  48.370  1.00  0.00     0.117 A 
HETATM   30  F1  UNL     1      25.807   8.458  48.166  1.00  0.00    -0.206 F 
HETATM   31  C18 UNL     1      25.521   6.164  48.688  1.00  0.00     0.054 A 
ENDBRANCH  23  25
ENDBRANCH   1   5
TORSDOF 2
ENDMDL
MODEL 8
REMARK VINA RESULT:      -7.1     10.893     13.151
REMARK  2 active torsions:
REMARK  status: ('A' for Active; 'I' for Inactive)
REMARK    1  A    between atoms: C3_3  and  N1_4 
REMARK    2  A    between atoms: C12_17  and  C13_18 
ROOT
HETATM    1  N1  UNL     1      33.312   4.539  44.959  1.00  0.00    -0.330 N 
HETATM    2  C4  UNL     1      33.516   4.535  43.614  1.00  0.00     0.475 C 
HETATM    3  O1  UNL     1      33.676   4.641  42.402  1.00  0.00    -0.392 OA
HETATM    4  H4  UNL     1      33.546   3.499  44.948  1.00  0.00     0.168 HD
ENDROOT
BRANCH   1   5
HETATM    5  C3  UNL     1      32.958   5.552  45.875  1.00  0.00     0.126 C 
HETATM    6  C2  UNL     1      32.202   5.355  46.904  1.00  0.00     0.048 C 
HETATM    7  C1  UNL     1      31.701   3.979  47.107  1.00  0.00     0.072 C 
HETATM    8  N4  UNL     1      31.591   6.063  47.994  1.00  0.00    -0.376 N 
HETATM    9  C9  UNL     1      32.416   6.510  49.123  1.00  0.00     0.153 C 
HETATM   10  C10 UNL     1      30.169   6.271  47.919  1.00  0.00     0.150 C 
HETATM   11  C8  UNL     1      33.058   7.841  48.555  1.00  0.00     0.291 C 
HETATM   12  N3  UNL     1      34.005   7.325  47.539  1.00  0.00     0.089 N 
HETATM   13  C6  UNL     1      34.266   8.161  46.434  1.00  0.00     0.318 C 
HETATM   14  C7  UNL     1      35.315   7.406  48.335  1.00  0.00     0.310 C 
HETATM   15  C5  UNL     1      33.398   7.714  45.186  1.00  0.00     0.213 C 
HETATM   16  N2  UNL     1      33.743   6.364  45.030  1.00  0.00    -0.352 N 
HETATM   17  N5  UNL     1      32.001   7.885  45.471  1.00  0.00    -0.338 N 
HETATM   18  H6  UNL     1      34.491   6.393  44.339  1.00  0.00     0.163 HD
HETATM   19  C20 UNL     1      30.858   8.618  45.805  1.00  0.00     0.223 C 
HETATM   20  H26 UNL     1      31.456   6.999  45.381  1.00  0.00     0.164 HD
HETATM   21  C19 UNL     1      29.367   8.289  46.104  1.00  0.00     0.142 C 
HETATM   22  O2  UNL     1      31.590   9.632  45.778  1.00  0.00    -0.273 OA
HETATM   23  C12 UNL     1      29.254   8.807  47.507  1.00  0.00    -0.041 C 
HETATM   24  C11 UNL     1      29.757   7.658  48.003  1.00  0.00     0.001 C 
BRANCH  23  25
HETATM   25  C13 UNL     1      28.955  10.138  47.987  1.00  0.00    -0.027 A 
HETATM   26  C14 UNL     1      27.685  10.553  47.728  1.00  0.00     0.012 A 
HETATM   27  C15 UNL     1      27.517  11.862  48.204  1.00  0.00     0.004 A 
HETATM   28  C16 UNL     1      28.466  12.641  48.842  1.00  0.00     0.042 A 
HETATM   29  C17 UNL     1      29.706  12.070  49.028  1.00  0.00     0.117 A 
HETATM   30  F1  UNL     1      30.633  12.840  49.647  1.00  0.00    -0.206 F 
HETATM   31  C18 UNL     1      29.975  10.814  48.607  1.00  0.00     0.054 A 
ENDBRANCH  23  25
ENDBRANCH   1   5
TORSDOF 2
ENDMDL
MODEL 9
REMARK VINA RESULT:      -7.1      3.905      7.429
REMARK  2 active torsions:
REMARK  status: ('A' for Active; 'I' for Inactive)
REMARK    1  A    between atoms: C3_3  and  N1_4 
REMARK    2  A    between atoms: C12_17  and  C13_18 
ROOT
HETATM    1  N1  UNL     1      26.651   2.047  52.071  1.00  0.00    -0.330 N 
HETATM    2  C4  UNL     1      27.353   2.347  53.197  1.00  0.00     0.475 C 
HETATM    3  O1  UNL     1      27.913   2.700  54.229  1.00  0.00    -0.392 OA
HETATM    4  H4  UNL     1      27.340   1.249  51.913  1.00  0.00     0.168 HD
ENDROOT
BRANCH   1   5
HETATM    5  C3  UNL     1      25.505   2.612  51.473  1.00  0.00     0.126 C 
HETATM    6  C2  UNL     1      25.451   2.985  50.237  1.00  0.00     0.048 C 
HETATM    7  C1  UNL     1      26.674   2.788  49.430  1.00  0.00     0.072 C 
HETATM    8  N4  UNL     1      24.564   3.609  49.296  1.00  0.00    -0.376 N 
HETATM    9  C9  UNL     1      23.430   2.851  48.753  1.00  0.00     0.153 C 
HETATM   10  C10 UNL     1      24.868   4.964  48.916  1.00  0.00     0.150 C 
HETATM   11  C8  UNL     1      22.363   2.977  49.915  1.00  0.00     0.291 C 
HETATM   12  N3  UNL     1      22.950   2.125  50.975  1.00  0.00     0.089 N 
HETATM   13  C6  UNL     1      22.656   2.481  52.308  1.00  0.00     0.318 C 
HETATM   14  C7  UNL     1      22.121   0.849  50.779  1.00  0.00     0.310 C 
HETATM   15  C5  UNL     1      23.855   3.300  52.940  1.00  0.00     0.213 C 
HETATM   16  N2  UNL     1      24.951   2.444  52.760  1.00  0.00    -0.352 N 
HETATM   17  N5  UNL     1      24.023   4.545  52.243  1.00  0.00    -0.338 N 
HETATM   18  H6  UNL     1      24.999   1.938  53.643  1.00  0.00     0.163 HD
HETATM   19  C20 UNL     1      23.615   5.799  51.778  1.00  0.00     0.223 C 
HETATM   20  H26 UNL     1      24.978   4.658  51.835  1.00  0.00     0.164 HD
HETATM   21  C19 UNL     1      24.227   6.907  50.871  1.00  0.00     0.142 C 
HETATM   22  O2  UNL     1      22.546   5.600  52.396  1.00  0.00    -0.273 OA
HETATM   23  C12 UNL     1      23.204   6.948  49.774  1.00  0.00    -0.041 C 
HETATM   24  C11 UNL     1      23.793   5.909  49.146  1.00  0.00     0.001 C 
BRANCH  23  25
HETATM   25  C13 UNL     1      21.968   7.691  49.681  1.00  0.00    -0.027 A 
HETATM   26  C14 UNL     1      20.848   6.933  49.822  1.00  0.00     0.012 A 
HETATM   27  C15 UNL     1      19.714   7.747  49.680  1.00  0.00     0.004 A 
HETATM   28  C16 UNL     1      19.694   9.109  49.437  1.00  0.00     0.042 A 
HETATM   29  C17 UNL     1      20.919   9.730  49.321  1.00  0.00     0.117 A 
HETATM   30  F1  UNL     1      20.895  11.061  49.077  1.00  0.00    -0.206 F 
HETATM   31  C18 UNL     1      22.074   9.038  49.440  1.00  0.00     0.054 A 
ENDBRANCH  23  25
ENDBRANCH   1   5
TORSDOF 2
ENDMDL
