MODEL 1
REMARK VINA RESULT:      -7.4      0.000      0.000
REMARK  5 active torsions:
REMARK  status: ('A' for Active; 'I' for Inactive)
REMARK    1  A    between atoms: P1_2  and  C2_3 
REMARK    2  A    between atoms: C2_3  and  C3_4 
REMARK    3  A    between atoms: C3_4  and  N2_15 
REMARK    4  A    between atoms: C4_5  and  N1_6 
REMARK    5  A    between atoms: C5_7  and  C6_8 
REMARK       I    between atoms: N2_15  and  C12_16 
ROOT
HETATM    1  C3  UNL     1      26.189   0.841  52.078  1.00  0.00     0.046 C 
HETATM    2  C4  UNL     1      26.775   1.783  51.361  1.00  0.00     0.142 C 
ENDROOT
BRANCH   1   3
HETATM    3  C2  UNL     1      24.823   1.054  52.637  1.00  0.00     0.044 A 
HETATM    4  C14 UNL     1      24.593   2.317  53.296  1.00  0.00    -0.010 A 
HETATM    5  C15 UNL     1      23.702   2.709  52.446  1.00  0.00    -0.027 A 
HETATM    6  C16 UNL     1      23.797   1.492  51.646  1.00  0.00     0.051 A 
BRANCH   3   7
HETATM    7  P1  UNL     1      24.184  -0.402  53.606  1.00  0.00    -0.100 P 
HETATM    8  C1  UNL     1      22.583  -0.825  53.442  1.00  0.00     0.086 C 
ENDBRANCH   3   7
ENDBRANCH   1   3
BRANCH   1   9
HETATM    9  N2  UNL     1      26.922  -0.359  52.276  1.00  0.00    -0.328 N 
HETATM   10  C12 UNL     1      27.945  -0.784  53.169  1.00  0.00     0.217 C 
HETATM   11  C13 UNL     1      28.478  -2.166  53.059  1.00  0.00     0.117 C 
HETATM   12  O1  UNL     1      28.368   0.021  54.027  1.00  0.00    -0.274 OA
HETATM   13  H9  UNL     1      26.590  -1.076  51.563  1.00  0.00     0.168 HD
ENDBRANCH   1   9
BRANCH   2  14
HETATM   14  N1  UNL     1      26.950   3.009  50.710  1.00  0.00    -0.270 NA
HETATM   15  C5  UNL     1      26.432   3.294  49.539  1.00  0.00     0.129 C 
BRANCH  15  16
HETATM   16  C6  UNL     1      26.782   4.642  49.111  1.00  0.00     0.003 A 
HETATM   17  C7  UNL     1      27.991   4.975  48.542  1.00  0.00     0.014 A 
HETATM   18  C8  UNL     1      28.321   6.256  48.136  1.00  0.00     0.001 A 
HETATM   19  C9  UNL     1      27.413   7.278  48.298  1.00  0.00     0.002 A 
HETATM   20  C10 UNL     1      26.186   7.009  48.862  1.00  0.00     0.024 A 
HETATM   21  C11 UNL     1      25.919   5.711  49.245  1.00  0.00     0.045 A 
HETATM   22 CL1  UNL     1      24.329   5.442  49.958  1.00  0.00    -0.083 Cl
ENDBRANCH  15  16
ENDBRANCH   2  14
TORSDOF 5
ENDMDL
MODEL 2
REMARK VINA RESULT:      -7.3      3.762      6.241
REMARK  5 active torsions:
REMARK  status: ('A' for Active; 'I' for Inactive)
REMARK    1  A    between atoms: P1_2  and  C2_3 
REMARK    2  A    between atoms: C2_3  and  C3_4 
REMARK    3  A    between atoms: C3_4  and  N2_15 
REMARK    4  A    between atoms: C4_5  and  N1_6 
REMARK    5  A    between atoms: C5_7  and  C6_8 
REMARK       I    between atoms: N2_15  and  C12_16 
ROOT
HETATM    1  C3  UNL     1      22.803   1.064  52.606  1.00  0.00     0.046 C 
HETATM    2  C4  UNL     1      23.859   0.341  52.934  1.00  0.00     0.142 C 
ENDROOT
BRANCH   1   3
HETATM    3  C2  UNL     1      22.962   2.479  52.165  1.00  0.00     0.044 A 
HETATM    4  C14 UNL     1      24.007   3.236  52.811  1.00  0.00    -0.010 A 
HETATM    5  C15 UNL     1      24.689   3.405  51.727  1.00  0.00    -0.027 A 
HETATM    6  C16 UNL     1      23.737   2.665  50.905  1.00  0.00     0.051 A 
BRANCH   3   7
HETATM    7  P1  UNL     1      21.350   3.406  52.057  1.00  0.00    -0.100 P 
HETATM    8  C1  UNL     1      21.334   4.886  51.296  1.00  0.00     0.086 C 
ENDBRANCH   3   7
ENDBRANCH   1   3
BRANCH   1   9
HETATM    9  N2  UNL     1      21.539   0.423  52.695  1.00  0.00    -0.328 N 
HETATM   10  C12 UNL     1      20.716  -0.048  53.756  1.00  0.00     0.217 C 
HETATM   11  C13 UNL     1      19.414  -0.687  53.436  1.00  0.00     0.117 C 
HETATM   12  O1  UNL     1      21.113   0.090  54.933  1.00  0.00    -0.274 OA
HETATM   13  H9  UNL     1      21.162   0.287  51.709  1.00  0.00     0.168 HD
ENDBRANCH   1   9
BRANCH   2  14
HETATM   14  N1  UNL     1      25.202   0.020  53.158  1.00  0.00    -0.270 NA
HETATM   15  C5  UNL     1      26.137   0.109  52.241  1.00  0.00     0.129 C 
BRANCH  15  16
HETATM   16  C6  UNL     1      27.438  -0.291  52.762  1.00  0.00     0.003 A 
HETATM   17  C7  UNL     1      27.880  -1.594  52.797  1.00  0.00     0.014 A 
HETATM   18  C8  UNL     1      29.116  -1.972  53.291  1.00  0.00     0.001 A 
HETATM   19  C9  UNL     1      29.975  -1.015  53.783  1.00  0.00     0.002 A 
HETATM   20  C10 UNL     1      29.591   0.306  53.775  1.00  0.00     0.024 A 
HETATM   21  C11 UNL     1      28.345   0.617  53.269  1.00  0.00     0.045 A 
HETATM   22 CL1  UNL     1      27.922   2.329  53.291  1.00  0.00    -0.083 Cl
ENDBRANCH  15  16
ENDBRANCH   2  14
TORSDOF 5
ENDMDL
MODEL 3
REMARK VINA RESULT:      -7.2      3.237      6.607
REMARK  5 active torsions:
REMARK  status: ('A' for Active; 'I' for Inactive)
REMARK    1  A    between atoms: P1_2  and  C2_3 
REMARK    2  A    between atoms: C2_3  and  C3_4 
REMARK    3  A    between atoms: C3_4  and  N2_15 
REMARK    4  A    between atoms: C4_5  and  N1_6 
REMARK    5  A    between atoms: C5_7  and  C6_8 
REMARK       I    between atoms: N2_15  and  C12_16 
ROOT
HETATM    1  C3  UNL     1      25.612   4.556  49.457  1.00  0.00     0.046 C 
HETATM    2  C4  UNL     1      26.444   3.679  49.990  1.00  0.00     0.142 C 
ENDROOT
BRANCH   1   3
HETATM    3  C2  UNL     1      24.141   4.430  49.670  1.00  0.00     0.044 A 
HETATM    4  C14 UNL     1      23.304   4.730  48.534  1.00  0.00    -0.010 A 
HETATM    5  C15 UNL     1      22.832   3.531  48.442  1.00  0.00    -0.027 A 
HETATM    6  C16 UNL     1      23.607   3.040  49.577  1.00  0.00     0.051 A 
BRANCH   3   7
HETATM    7  P1  UNL     1      23.550   5.229  51.244  1.00  0.00    -0.100 P 
HETATM    8  C1  UNL     1      23.430   4.293  52.615  1.00  0.00     0.086 C 
ENDBRANCH   3   7
ENDBRANCH   1   3
BRANCH   1   9
HETATM    9  N2  UNL     1      26.192   5.602  48.692  1.00  0.00    -0.328 N 
HETATM   10  C12 UNL     1      26.524   6.964  48.927  1.00  0.00     0.217 C 
HETATM   11  C13 UNL     1      27.139   7.762  47.836  1.00  0.00     0.117 C 
HETATM   12  O1  UNL     1      26.289   7.455  50.053  1.00  0.00    -0.274 OA
HETATM   13  H9  UNL     1      26.410   5.224  47.720  1.00  0.00     0.168 HD
ENDBRANCH   1   9
BRANCH   2  14
HETATM   14  N1  UNL     1      26.876   2.566  50.719  1.00  0.00    -0.270 NA
HETATM   15  C5  UNL     1      26.400   2.236  51.897  1.00  0.00     0.129 C 
BRANCH  15  16
HETATM   16  C6  UNL     1      27.038   1.032  52.414  1.00  0.00     0.003 A 
HETATM   17  C7  UNL     1      26.594  -0.244  52.147  1.00  0.00     0.014 A 
HETATM   18  C8  UNL     1      27.202  -1.386  52.639  1.00  0.00     0.001 A 
HETATM   19  C9  UNL     1      28.312  -1.275  53.444  1.00  0.00     0.002 A 
HETATM   20  C10 UNL     1      28.805  -0.026  53.748  1.00  0.00     0.024 A 
HETATM   21  C11 UNL     1      28.153   1.073  53.225  1.00  0.00     0.045 A 
HETATM   22 CL1  UNL     1      28.841   2.638  53.656  1.00  0.00    -0.083 Cl
ENDBRANCH  15  16
ENDBRANCH   2  14
TORSDOF 5
ENDMDL
MODEL 4
REMARK VINA RESULT:      -7.2      3.389      6.353
REMARK  5 active torsions:
REMARK  status: ('A' for Active; 'I' for Inactive)
REMARK    1  A    between atoms: P1_2  and  C2_3 
REMARK    2  A    between atoms: C2_3  and  C3_4 
REMARK    3  A    between atoms: C3_4  and  N2_15 
REMARK    4  A    between atoms: C4_5  and  N1_6 
REMARK    5  A    between atoms: C5_7  and  C6_8 
REMARK       I    between atoms: N2_15  and  C12_16 
ROOT
HETATM    1  C3  UNL     1      22.883   1.546  52.474  1.00  0.00     0.046 C 
HETATM    2  C4  UNL     1      23.872   0.753  52.848  1.00  0.00     0.142 C 
ENDROOT
BRANCH   1   3
HETATM    3  C2  UNL     1      23.168   2.904  51.927  1.00  0.00     0.044 A 
HETATM    4  C14 UNL     1      22.155   3.908  52.149  1.00  0.00    -0.010 A 
HETATM    5  C15 UNL     1      22.915   4.652  52.882  1.00  0.00    -0.027 A 
HETATM    6  C16 UNL     1      24.058   3.751  52.772  1.00  0.00     0.051 A 
BRANCH   3   7
HETATM    7  P1  UNL     1      23.798   2.878  50.175  1.00  0.00    -0.100 P 
HETATM    8  C1  UNL     1      25.373   3.334  49.890  1.00  0.00     0.086 C 
ENDBRANCH   3   7
ENDBRANCH   1   3
BRANCH   1   9
HETATM    9  N2  UNL     1      21.566   1.036  52.620  1.00  0.00    -0.328 N 
HETATM   10  C12 UNL     1      20.598   0.470  51.745  1.00  0.00     0.217 C 
HETATM   11  C13 UNL     1      19.286   0.042  52.293  1.00  0.00     0.117 C 
HETATM   12  O1  UNL     1      20.879   0.348  50.533  1.00  0.00    -0.274 OA
HETATM   13  H9  UNL     1      21.286   1.121  53.644  1.00  0.00     0.168 HD
ENDBRANCH   1   9
BRANCH   2  14
HETATM   14  N1  UNL     1      25.182   0.325  53.087  1.00  0.00    -0.270 NA
HETATM   15  C5  UNL     1      26.143   0.383  52.195  1.00  0.00     0.129 C 
BRANCH  15  16
HETATM   16  C6  UNL     1      27.398  -0.133  52.725  1.00  0.00     0.003 A 
HETATM   17  C7  UNL     1      27.723  -1.471  52.757  1.00  0.00     0.014 A 
HETATM   18  C8  UNL     1      28.916  -1.959  53.260  1.00  0.00     0.001 A 
HETATM   19  C9  UNL     1      29.851  -1.085  53.766  1.00  0.00     0.002 A 
HETATM   20  C10 UNL     1      29.585   0.265  53.763  1.00  0.00     0.024 A 
HETATM   21  C11 UNL     1      28.377   0.687  53.246  1.00  0.00     0.045 A 
HETATM   22 CL1  UNL     1      28.107   2.430  53.275  1.00  0.00    -0.083 Cl
ENDBRANCH  15  16
ENDBRANCH   2  14
TORSDOF 5
ENDMDL
MODEL 5
REMARK VINA RESULT:      -7.1      4.464      6.487
REMARK  5 active torsions:
REMARK  status: ('A' for Active; 'I' for Inactive)
REMARK    1  A    between atoms: P1_2  and  C2_3 
REMARK    2  A    between atoms: C2_3  and  C3_4 
REMARK    3  A    between atoms: C3_4  and  N2_15 
REMARK    4  A    between atoms: C4_5  and  N1_6 
REMARK    5  A    between atoms: C5_7  and  C6_8 
REMARK       I    between atoms: N2_15  and  C12_16 
ROOT
HETATM    1  C3  UNL     1      22.418   1.410  52.729  1.00  0.00     0.046 C 
HETATM    2  C4  UNL     1      23.732   1.275  52.706  1.00  0.00     0.142 C 
ENDROOT
BRANCH   1   3
HETATM    3  C2  UNL     1      21.545   0.263  53.110  1.00  0.00     0.044 A 
HETATM    4  C14 UNL     1      22.182  -1.029  53.183  1.00  0.00    -0.010 A 
HETATM    5  C15 UNL     1      21.975  -1.168  54.450  1.00  0.00    -0.027 A 
HETATM    6  C16 UNL     1      21.297   0.118  54.574  1.00  0.00     0.051 A 
BRANCH   3   7
HETATM    7  P1  UNL     1      19.926   0.228  52.189  1.00  0.00    -0.100 P 
HETATM    8  C1  UNL     1      18.666  -0.650  52.831  1.00  0.00     0.086 C 
ENDBRANCH   3   7
ENDBRANCH   1   3
BRANCH   1   9
HETATM    9  N2  UNL     1      21.903   2.686  52.378  1.00  0.00    -0.328 N 
HETATM   10  C12 UNL     1      21.726   3.407  51.164  1.00  0.00     0.217 C 
HETATM   11  C13 UNL     1      21.131   4.767  51.207  1.00  0.00     0.117 C 
HETATM   12  O1  UNL     1      22.077   2.873  50.090  1.00  0.00    -0.274 OA
HETATM   13  H9  UNL     1      21.589   3.177  53.269  1.00  0.00     0.168 HD
ENDBRANCH   1   9
BRANCH   2  14
HETATM   14  N1  UNL     1      24.982   0.659  52.829  1.00  0.00    -0.270 NA
HETATM   15  C5  UNL     1      26.061   1.276  53.251  1.00  0.00     0.129 C 
BRANCH  15  16
HETATM   16  C6  UNL     1      27.214   0.385  53.275  1.00  0.00     0.003 A 
HETATM   17  C7  UNL     1      27.132  -0.976  53.082  1.00  0.00     0.014 A 
HETATM   18  C8  UNL     1      28.229  -1.820  53.103  1.00  0.00     0.001 A 
HETATM   19  C9  UNL     1      29.484  -1.303  53.329  1.00  0.00     0.002 A 
HETATM   20  C10 UNL     1      29.631   0.051  53.529  1.00  0.00     0.024 A 
HETATM   21  C11 UNL     1      28.498   0.838  53.495  1.00  0.00     0.045 A 
HETATM   22 CL1  UNL     1      28.764   2.562  53.759  1.00  0.00    -0.083 Cl
ENDBRANCH  15  16
ENDBRANCH   2  14
TORSDOF 5
ENDMDL
MODEL 6
REMARK VINA RESULT:      -6.9      1.264      1.874
REMARK  5 active torsions:
REMARK  status: ('A' for Active; 'I' for Inactive)
REMARK    1  A    between atoms: P1_2  and  C2_3 
REMARK    2  A    between atoms: C2_3  and  C3_4 
REMARK    3  A    between atoms: C3_4  and  N2_15 
REMARK    4  A    between atoms: C4_5  and  N1_6 
REMARK    5  A    between atoms: C5_7  and  C6_8 
REMARK       I    between atoms: N2_15  and  C12_16 
ROOT
HETATM    1  C3  UNL     1      25.657   1.365  51.698  1.00  0.00     0.046 C 
HETATM    2  C4  UNL     1      26.443   2.170  51.003  1.00  0.00     0.142 C 
ENDROOT
BRANCH   1   3
HETATM    3  C2  UNL     1      24.282   1.795  52.081  1.00  0.00     0.044 A 
HETATM    4  C14 UNL     1      23.270   1.686  51.058  1.00  0.00    -0.010 A 
HETATM    5  C15 UNL     1      22.575   0.808  51.703  1.00  0.00    -0.027 A 
HETATM    6  C16 UNL     1      23.492   0.782  52.838  1.00  0.00     0.051 A 
BRANCH   3   7
HETATM    7  P1  UNL     1      24.240   3.426  52.978  1.00  0.00    -0.100 P 
HETATM    8  C1  UNL     1      23.455   4.707  52.262  1.00  0.00     0.086 C 
ENDBRANCH   3   7
ENDBRANCH   1   3
BRANCH   1   9
HETATM    9  N2  UNL     1      26.192   0.097  52.045  1.00  0.00    -0.328 N 
HETATM   10  C12 UNL     1      27.264  -0.361  52.861  1.00  0.00     0.217 C 
HETATM   11  C13 UNL     1      27.518  -1.820  52.976  1.00  0.00     0.117 C 
HETATM   12  O1  UNL     1      27.965   0.482  53.461  1.00  0.00    -0.274 OA
HETATM   13  H9  UNL     1      25.619  -0.654  51.553  1.00  0.00     0.168 HD
ENDBRANCH   1   9
BRANCH   2  14
HETATM   14  N1  UNL     1      26.854   3.314  50.311  1.00  0.00    -0.270 NA
HETATM   15  C5  UNL     1      26.124   3.923  49.408  1.00  0.00     0.129 C 
BRANCH  15  16
HETATM   16  C6  UNL     1      26.810   5.084  48.857  1.00  0.00     0.003 A 
HETATM   17  C7  UNL     1      28.145   5.095  48.519  1.00  0.00     0.014 A 
HETATM   18  C8  UNL     1      28.795   6.198  47.995  1.00  0.00     0.001 A 
HETATM   19  C9  UNL     1      28.097   7.367  47.789  1.00  0.00     0.002 A 
HETATM   20  C10 UNL     1      26.759   7.420  48.107  1.00  0.00     0.024 A 
HETATM   21  C11 UNL     1      26.170   6.285  48.626  1.00  0.00     0.045 A 
HETATM   22 CL1  UNL     1      24.454   6.427  49.008  1.00  0.00    -0.083 Cl
ENDBRANCH  15  16
ENDBRANCH   2  14
TORSDOF 5
ENDMDL
MODEL 7
REMARK VINA RESULT:      -6.8      3.343      6.986
REMARK  5 active torsions:
REMARK  status: ('A' for Active; 'I' for Inactive)
REMARK    1  A    between atoms: P1_2  and  C2_3 
REMARK    2  A    between atoms: C2_3  and  C3_4 
REMARK    3  A    between atoms: C3_4  and  N2_15 
REMARK    4  A    between atoms: C4_5  and  N1_6 
REMARK    5  A    between atoms: C5_7  and  C6_8 
REMARK       I    between atoms: N2_15  and  C12_16 
ROOT
HETATM    1  C3  UNL     1      25.785   1.758  51.713  1.00  0.00     0.046 C 
HETATM    2  C4  UNL     1      24.487   1.605  51.518  1.00  0.00     0.142 C 
ENDROOT
BRANCH   1   3
HETATM    3  C2  UNL     1      26.492   0.960  52.755  1.00  0.00     0.044 A 
HETATM    4  C14 UNL     1      25.672   0.416  53.810  1.00  0.00    -0.010 A 
HETATM    5  C15 UNL     1      25.912  -0.813  53.497  1.00  0.00    -0.027 A 
HETATM    6  C16 UNL     1      26.780  -0.455  52.379  1.00  0.00     0.051 A 
BRANCH   3   7
HETATM    7  P1  UNL     1      28.045   1.774  53.383  1.00  0.00    -0.100 P 
HETATM    8  C1  UNL     1      29.053   0.902  54.379  1.00  0.00     0.086 C 
ENDBRANCH   3   7
ENDBRANCH   1   3
BRANCH   1   9
HETATM    9  N2  UNL     1      26.447   2.703  50.886  1.00  0.00    -0.328 N 
HETATM   10  C12 UNL     1      26.103   3.448  49.724  1.00  0.00     0.217 C 
HETATM   11  C13 UNL     1      27.105   4.369  49.128  1.00  0.00     0.117 C 
HETATM   12  O1  UNL     1      24.962   3.306  49.234  1.00  0.00    -0.274 OA
HETATM   13  H9  UNL     1      27.428   2.855  51.271  1.00  0.00     0.168 HD
ENDBRANCH   1   9
BRANCH   2  14
HETATM   14  N1  UNL     1      23.191   1.108  51.690  1.00  0.00    -0.270 NA
HETATM   15  C5  UNL     1      22.458   1.334  52.755  1.00  0.00     0.129 C 
BRANCH  15  16
HETATM   16  C6  UNL     1      21.155   0.690  52.656  1.00  0.00     0.003 A 
HETATM   17  C7  UNL     1      20.249   0.946  51.651  1.00  0.00     0.014 A 
HETATM   18  C8  UNL     1      19.012   0.332  51.558  1.00  0.00     0.001 A 
HETATM   19  C9  UNL     1      18.635  -0.589  52.508  1.00  0.00     0.002 A 
HETATM   20  C10 UNL     1      19.497  -0.889  53.538  1.00  0.00     0.024 A 
HETATM   21  C11 UNL     1      20.716  -0.242  53.573  1.00  0.00     0.045 A 
HETATM   22 CL1  UNL     1      21.767  -0.677  54.921  1.00  0.00    -0.083 Cl
ENDBRANCH  15  16
ENDBRANCH   2  14
TORSDOF 5
ENDMDL
MODEL 8
REMARK VINA RESULT:      -6.6      3.571      7.077
REMARK  5 active torsions:
REMARK  status: ('A' for Active; 'I' for Inactive)
REMARK    1  A    between atoms: P1_2  and  C2_3 
REMARK    2  A    between atoms: C2_3  and  C3_4 
REMARK    3  A    between atoms: C3_4  and  N2_15 
REMARK    4  A    between atoms: C4_5  and  N1_6 
REMARK    5  A    between atoms: C5_7  and  C6_8 
REMARK       I    between atoms: N2_15  and  C12_16 
ROOT
HETATM    1  C3  UNL     1      24.695   1.947  51.730  1.00  0.00     0.046 C 
HETATM    2  C4  UNL     1      23.702   1.118  52.003  1.00  0.00     0.142 C 
ENDROOT
BRANCH   1   3
HETATM    3  C2  UNL     1      24.426   3.261  51.080  1.00  0.00     0.044 A 
HETATM    4  C14 UNL     1      25.551   3.902  50.443  1.00  0.00    -0.010 A 
HETATM    5  C15 UNL     1      25.041   3.840  49.258  1.00  0.00    -0.027 A 
HETATM    6  C16 UNL     1      23.823   3.181  49.718  1.00  0.00     0.051 A 
BRANCH   3   7
HETATM    7  P1  UNL     1      23.431   4.422  52.143  1.00  0.00    -0.100 P 
HETATM    8  C1  UNL     1      21.821   4.643  51.788  1.00  0.00     0.086 C 
ENDBRANCH   3   7
ENDBRANCH   1   3
BRANCH   1   9
HETATM    9  N2  UNL     1      26.000   1.518  52.087  1.00  0.00    -0.328 N 
HETATM   10  C12 UNL     1      26.814   1.613  53.250  1.00  0.00     0.217 C 
HETATM   11  C13 UNL     1      28.175   1.018  53.235  1.00  0.00     0.117 C 
HETATM   12  O1  UNL     1      26.359   2.196  54.257  1.00  0.00    -0.274 OA
HETATM   13  H9  UNL     1      26.427   1.011  51.252  1.00  0.00     0.168 HD
ENDBRANCH   1   9
BRANCH   2  14
HETATM   14  N1  UNL     1      22.394   0.630  52.079  1.00  0.00    -0.270 NA
HETATM   15  C5  UNL     1      21.500   1.067  52.934  1.00  0.00     0.129 C 
BRANCH  15  16
HETATM   16  C6  UNL     1      20.227   0.374  52.781  1.00  0.00     0.003 A 
HETATM   17  C7  UNL     1      19.235   0.779  51.916  1.00  0.00     0.014 A 
HETATM   18  C8  UNL     1      18.027   0.118  51.772  1.00  0.00     0.001 A 
HETATM   19  C9  UNL     1      17.772  -1.007  52.522  1.00  0.00     0.002 A 
HETATM   20  C10 UNL     1      18.724  -1.461  53.405  1.00  0.00     0.024 A 
HETATM   21  C11 UNL     1      19.908  -0.758  53.501  1.00  0.00     0.045 A 
HETATM   22 CL1  UNL     1      21.080  -1.400  54.652  1.00  0.00    -0.083 Cl
ENDBRANCH  15  16
ENDBRANCH   2  14
TORSDOF 5
ENDMDL
MODEL 9
REMARK VINA RESULT:      -6.5      3.686      6.509
REMARK  5 active torsions:
REMARK  status: ('A' for Active; 'I' for Inactive)
REMARK    1  A    between atoms: P1_2  and  C2_3 
REMARK    2  A    between atoms: C2_3  and  C3_4 
REMARK    3  A    between atoms: C3_4  and  N2_15 
REMARK    4  A    between atoms: C4_5  and  N1_6 
REMARK    5  A    between atoms: C5_7  and  C6_8 
REMARK       I    between atoms: N2_15  and  C12_16 
ROOT
HETATM    1  C3  UNL     1      23.326   3.940  51.641  1.00  0.00     0.046 C 
HETATM    2  C4  UNL     1      24.431   3.334  52.039  1.00  0.00     0.142 C 
ENDROOT
BRANCH   1   3
HETATM    3  C2  UNL     1      22.106   3.150  51.310  1.00  0.00     0.044 A 
HETATM    4  C14 UNL     1      21.503   2.420  52.398  1.00  0.00    -0.010 A 
HETATM    5  C15 UNL     1      20.400   3.092  52.366  1.00  0.00    -0.027 A 
HETATM    6  C16 UNL     1      20.839   3.936  51.259  1.00  0.00     0.051 A 
BRANCH   3   7
HETATM    7  P1  UNL     1      22.281   2.135  49.759  1.00  0.00    -0.100 P 
HETATM    8  C1  UNL     1      22.623   2.918  48.330  1.00  0.00     0.086 C 
ENDBRANCH   3   7
ENDBRANCH   1   3
BRANCH   1   9
HETATM    9  N2  UNL     1      23.373   5.356  51.553  1.00  0.00    -0.328 N 
HETATM   10  C12 UNL     1      23.765   6.296  50.559  1.00  0.00     0.217 C 
HETATM   11  C13 UNL     1      23.666   7.749  50.853  1.00  0.00     0.117 C 
HETATM   12  O1  UNL     1      24.183   5.871  49.461  1.00  0.00    -0.274 OA
HETATM   13  H9  UNL     1      23.022   5.761  52.473  1.00  0.00     0.168 HD
ENDBRANCH   1   9
BRANCH   2  14
HETATM   14  N1  UNL     1      25.291   2.288  52.392  1.00  0.00    -0.270 NA
HETATM   15  C5  UNL     1      26.404   2.013  51.755  1.00  0.00     0.129 C 
BRANCH  15  16
HETATM   16  C6  UNL     1      27.091   0.871  52.346  1.00  0.00     0.003 A 
HETATM   17  C7  UNL     1      26.730  -0.438  52.124  1.00  0.00     0.014 A 
HETATM   18  C8  UNL     1      27.384  -1.521  52.685  1.00  0.00     0.001 A 
HETATM   19  C9  UNL     1      28.460  -1.310  53.518  1.00  0.00     0.002 A 
HETATM   20  C10 UNL     1      28.870  -0.023  53.780  1.00  0.00     0.024 A 
HETATM   21  C11 UNL     1      28.175   1.012  53.189  1.00  0.00     0.045 A 
HETATM   22 CL1  UNL     1      28.758   2.633  53.570  1.00  0.00    -0.083 Cl
ENDBRANCH  15  16
ENDBRANCH   2  14
TORSDOF 5
ENDMDL
