MODEL 1
REMARK VINA RESULT:      -9.2      0.000      0.000
REMARK  4 active torsions:
REMARK  status: ('A' for Active; 'I' for Inactive)
REMARK    1  A    between atoms: C2_2  and  S1_3 
REMARK    2  A    between atoms: S1_3  and  C3_5 
REMARK    3  A    between atoms: C6_8  and  C7_9 
REMARK    4  A    between atoms: C12_15  and  C13_16 
ROOT
HETATM    1  C7  UNL     1      24.070   1.034  52.232  1.00  0.00     0.006 A 
HETATM    2  C8  UNL     1      22.776   0.492  52.150  1.00  0.00     0.155 A 
HETATM    3  O2  UNL     1      22.104   1.038  51.169  1.00  0.00    -0.321 OA
HETATM    4  C9  UNL     1      22.824   1.933  50.540  1.00  0.00     0.086 A 
HETATM    5  C10 UNL     1      22.592   2.766  49.470  1.00  0.00     0.039 A 
HETATM    6  C11 UNL     1      23.572   3.643  49.003  1.00  0.00     0.017 A 
HETATM    7  C12 UNL     1      24.797   3.632  49.674  1.00  0.00    -0.001 A 
HETATM    8  C18 UNL     1      24.978   2.784  50.735  1.00  0.00     0.029 A 
HETATM    9  C19 UNL     1      24.020   1.916  51.203  1.00  0.00     0.011 A 
ENDROOT
BRANCH   1  10
HETATM   10  C6  UNL     1      25.070   0.643  53.214  1.00  0.00    -0.040 A 
HETATM   11  C5  UNL     1      25.042  -0.131  54.274  1.00  0.00     0.009 A 
HETATM   12  C4  UNL     1      26.309  -0.239  54.983  1.00  0.00     0.017 A 
HETATM   13  C3  UNL     1      27.131   0.525  54.290  1.00  0.00     0.013 A 
HETATM   14  C20 UNL     1      26.465   1.148  53.132  1.00  0.00     0.087 A 
BRANCH  13  15
HETATM   15  S1  UNL     1      28.836   0.902  54.524  1.00  0.00     0.045 S 
HETATM   16  O1  UNL     1      29.159   2.365  54.521  1.00  0.00    -0.253 OA
BRANCH  15  17
HETATM   17  C2  UNL     1      29.925  -0.058  53.471  1.00  0.00     0.109 C 
HETATM   18  C1  UNL     1      29.313  -1.447  53.347  1.00  0.00     0.019 C 
ENDBRANCH  15  17
ENDBRANCH  13  15
ENDBRANCH   1  10
BRANCH   7  19
HETATM   19  C13 UNL     1      25.846   4.536  49.214  1.00  0.00     0.086 A 
HETATM   20  C14 UNL     1      25.732   5.872  48.945  1.00  0.00     0.040 A 
HETATM   21  C15 UNL     1      26.983   6.293  48.544  1.00  0.00     0.035 A 
HETATM   22  C16 UNL     1      27.801   5.189  48.588  1.00  0.00     0.050 A 
HETATM   23  C17 UNL     1      29.232   5.335  48.202  1.00  0.00     0.076 C 
HETATM   24  O3  UNL     1      27.084   4.162  48.992  1.00  0.00    -0.315 OA
ENDBRANCH   7  19
TORSDOF 4
ENDMDL
MODEL 2
REMARK VINA RESULT:      -9.1      3.708      5.243
REMARK  4 active torsions:
REMARK  status: ('A' for Active; 'I' for Inactive)
REMARK    1  A    between atoms: C2_2  and  S1_3 
REMARK    2  A    between atoms: S1_3  and  C3_5 
REMARK    3  A    between atoms: C6_8  and  C7_9 
REMARK    4  A    between atoms: C12_15  and  C13_16 
ROOT
HETATM    1  C7  UNL     1      23.424  -0.522  53.893  1.00  0.00     0.006 A 
HETATM    2  C8  UNL     1      23.060  -1.253  55.037  1.00  0.00     0.155 A 
HETATM    3  O2  UNL     1      21.765  -1.431  55.084  1.00  0.00    -0.321 OA
HETATM    4  C9  UNL     1      21.172  -0.880  54.054  1.00  0.00     0.086 A 
HETATM    5  C10 UNL     1      19.863  -0.784  53.643  1.00  0.00     0.039 A 
HETATM    6  C11 UNL     1      19.514  -0.117  52.468  1.00  0.00     0.017 A 
HETATM    7  C12 UNL     1      20.558   0.446  51.732  1.00  0.00    -0.001 A 
HETATM    8  C18 UNL     1      21.846   0.325  52.184  1.00  0.00     0.029 A 
HETATM    9  C19 UNL     1      22.200  -0.331  53.339  1.00  0.00     0.011 A 
ENDROOT
BRANCH   1  10
HETATM   10  C6  UNL     1      24.788  -0.155  53.545  1.00  0.00    -0.040 A 
HETATM   11  C5  UNL     1      25.346   0.327  52.458  1.00  0.00     0.009 A 
HETATM   12  C4  UNL     1      26.781   0.550  52.559  1.00  0.00     0.017 A 
HETATM   13  C3  UNL     1      27.080   0.173  53.787  1.00  0.00     0.013 A 
HETATM   14  C20 UNL     1      25.896  -0.299  54.526  1.00  0.00     0.087 A 
BRANCH  13  15
HETATM   15  S1  UNL     1      28.616   0.147  54.648  1.00  0.00     0.045 S 
HETATM   16  O1  UNL     1      29.069   1.480  55.159  1.00  0.00    -0.253 OA
BRANCH  15  17
HETATM   17  C2  UNL     1      29.904  -0.743  53.775  1.00  0.00     0.109 C 
HETATM   18  C1  UNL     1      29.280  -2.030  53.253  1.00  0.00     0.019 C 
ENDBRANCH  15  17
ENDBRANCH  13  15
ENDBRANCH   1  10
BRANCH   7  19
HETATM   19  C13 UNL     1      20.232   1.152  50.497  1.00  0.00     0.086 A 
HETATM   20  C14 UNL     1      21.017   1.286  49.385  1.00  0.00     0.040 A 
HETATM   21  C15 UNL     1      20.285   2.030  48.483  1.00  0.00     0.035 A 
HETATM   22  C16 UNL     1      19.085   2.316  49.092  1.00  0.00     0.050 A 
HETATM   23  C17 UNL     1      18.072   3.119  48.352  1.00  0.00     0.076 C 
HETATM   24  O3  UNL     1      19.094   1.774  50.292  1.00  0.00    -0.315 OA
ENDBRANCH   7  19
TORSDOF 4
ENDMDL
MODEL 3
REMARK VINA RESULT:      -8.9      3.015      6.718
REMARK  4 active torsions:
REMARK  status: ('A' for Active; 'I' for Inactive)
REMARK    1  A    between atoms: C2_2  and  S1_3 
REMARK    2  A    between atoms: S1_3  and  C3_5 
REMARK    3  A    between atoms: C6_8  and  C7_9 
REMARK    4  A    between atoms: C12_15  and  C13_16 
ROOT
HETATM    1  C7  UNL     1      21.579  -0.291  52.994  1.00  0.00     0.006 A 
HETATM    2  C8  UNL     1      20.622  -0.885  53.834  1.00  0.00     0.155 A 
HETATM    3  O2  UNL     1      21.186  -1.378  54.907  1.00  0.00    -0.321 OA
HETATM    4  C9  UNL     1      22.480  -1.179  54.897  1.00  0.00     0.086 A 
HETATM    5  C10 UNL     1      23.502  -1.492  55.763  1.00  0.00     0.039 A 
HETATM    6  C11 UNL     1      24.825  -1.146  55.486  1.00  0.00     0.017 A 
HETATM    7  C12 UNL     1      25.059  -0.467  54.289  1.00  0.00    -0.001 A 
HETATM    8  C18 UNL     1      24.008  -0.179  53.458  1.00  0.00     0.029 A 
HETATM    9  C19 UNL     1      22.701  -0.515  53.722  1.00  0.00     0.011 A 
ENDROOT
BRANCH   1  10
HETATM   10  C6  UNL     1      21.280   0.347  51.721  1.00  0.00    -0.040 A 
HETATM   11  C5  UNL     1      20.204   0.408  50.971  1.00  0.00     0.009 A 
HETATM   12  C4  UNL     1      20.360   1.178  49.745  1.00  0.00     0.017 A 
HETATM   13  C3  UNL     1      21.611   1.594  49.784  1.00  0.00     0.013 A 
HETATM   14  C20 UNL     1      22.311   1.133  50.995  1.00  0.00     0.087 A 
BRANCH  13  15
HETATM   15  S1  UNL     1      22.540   2.577  48.655  1.00  0.00     0.045 S 
HETATM   16  O1  UNL     1      22.734   1.962  47.303  1.00  0.00    -0.253 OA
BRANCH  15  17
HETATM   17  C2  UNL     1      24.059   3.220  49.358  1.00  0.00     0.109 C 
HETATM   18  C1  UNL     1      24.030   4.731  49.173  1.00  0.00     0.019 C 
ENDBRANCH  15  17
ENDBRANCH  13  15
ENDBRANCH   1  10
BRANCH   7  19
HETATM   19  C13 UNL     1      26.431  -0.089  53.965  1.00  0.00     0.086 A 
HETATM   20  C14 UNL     1      26.888   1.149  53.607  1.00  0.00     0.040 A 
HETATM   21  C15 UNL     1      28.246   1.014  53.401  1.00  0.00     0.035 A 
HETATM   22  C16 UNL     1      28.551  -0.305  53.644  1.00  0.00     0.050 A 
HETATM   23  C17 UNL     1      29.962  -0.758  53.500  1.00  0.00     0.076 C 
HETATM   24  O3  UNL     1      27.440  -0.928  53.978  1.00  0.00    -0.315 OA
ENDBRANCH   7  19
TORSDOF 4
ENDMDL
MODEL 4
REMARK VINA RESULT:      -8.8      2.440      6.451
REMARK  4 active torsions:
REMARK  status: ('A' for Active; 'I' for Inactive)
REMARK    1  A    between atoms: C2_2  and  S1_3 
REMARK    2  A    between atoms: S1_3  and  C3_5 
REMARK    3  A    between atoms: C6_8  and  C7_9 
REMARK    4  A    between atoms: C12_15  and  C13_16 
ROOT
HETATM    1  C7  UNL     1      25.258   4.319  49.470  1.00  0.00     0.006 A 
HETATM    2  C8  UNL     1      23.902   4.250  49.110  1.00  0.00     0.155 A 
HETATM    3  O2  UNL     1      23.296   3.289  49.758  1.00  0.00    -0.321 OA
HETATM    4  C9  UNL     1      24.121   2.663  50.560  1.00  0.00     0.086 A 
HETATM    5  C10 UNL     1      23.989   1.610  51.435  1.00  0.00     0.039 A 
HETATM    6  C11 UNL     1      25.072   1.140  52.180  1.00  0.00     0.017 A 
HETATM    7  C12 UNL     1      26.293   1.791  51.992  1.00  0.00    -0.001 A 
HETATM    8  C18 UNL     1      26.374   2.835  51.108  1.00  0.00     0.029 A 
HETATM    9  C19 UNL     1      25.313   3.305  50.370  1.00  0.00     0.011 A 
ENDROOT
BRANCH   1  10
HETATM   10  C6  UNL     1      26.210   5.278  48.930  1.00  0.00    -0.040 A 
HETATM   11  C5  UNL     1      26.108   6.523  48.524  1.00  0.00     0.009 A 
HETATM   12  C4  UNL     1      27.351   7.111  48.047  1.00  0.00     0.017 A 
HETATM   13  C3  UNL     1      28.237   6.143  48.183  1.00  0.00     0.013 A 
HETATM   14  C20 UNL     1      27.639   4.917  48.738  1.00  0.00     0.087 A 
BRANCH  13  15
HETATM   15  S1  UNL     1      29.960   6.091  47.818  1.00  0.00     0.045 S 
HETATM   16  O1  UNL     1      30.552   4.715  47.790  1.00  0.00    -0.253 OA
BRANCH  15  17
HETATM   17  C2  UNL     1      30.926   7.250  48.787  1.00  0.00     0.109 C 
HETATM   18  C1  UNL     1      31.888   6.427  49.634  1.00  0.00     0.019 C 
ENDBRANCH  15  17
ENDBRANCH  13  15
ENDBRANCH   1  10
BRANCH   7  19
HETATM   19  C13 UNL     1      27.448   1.328  52.753  1.00  0.00     0.086 A 
HETATM   20  C14 UNL     1      28.243   2.065  53.588  1.00  0.00     0.040 A 
HETATM   21  C15 UNL     1      29.199   1.198  54.076  1.00  0.00     0.035 A 
HETATM   22  C16 UNL     1      28.939  -0.030  53.513  1.00  0.00     0.050 A 
HETATM   23  C17 UNL     1      29.818  -1.182  53.857  1.00  0.00     0.076 C 
HETATM   24  O3  UNL     1      27.887   0.091  52.731  1.00  0.00    -0.315 OA
ENDBRANCH   7  19
TORSDOF 4
ENDMDL
MODEL 5
REMARK VINA RESULT:      -8.7      2.850      6.707
REMARK  4 active torsions:
REMARK  status: ('A' for Active; 'I' for Inactive)
REMARK    1  A    between atoms: C2_2  and  S1_3 
REMARK    2  A    between atoms: S1_3  and  C3_5 
REMARK    3  A    between atoms: C6_8  and  C7_9 
REMARK    4  A    between atoms: C12_15  and  C13_16 
ROOT
HETATM    1  C7  UNL     1      21.683   0.313  52.192  1.00  0.00     0.006 A 
HETATM    2  C8  UNL     1      20.479  -0.143  52.755  1.00  0.00     0.155 A 
HETATM    3  O2  UNL     1      20.700  -0.772  53.880  1.00  0.00    -0.321 OA
HETATM    4  C9  UNL     1      21.977  -0.800  54.167  1.00  0.00     0.086 A 
HETATM    5  C10 UNL     1      22.713  -1.322  55.205  1.00  0.00     0.039 A 
HETATM    6  C11 UNL     1      24.102  -1.198  55.249  1.00  0.00     0.017 A 
HETATM    7  C12 UNL     1      24.706  -0.519  54.190  1.00  0.00    -0.001 A 
HETATM    8  C18 UNL     1      23.930  -0.018  53.178  1.00  0.00     0.029 A 
HETATM    9  C19 UNL     1      22.561  -0.134  53.125  1.00  0.00     0.011 A 
ENDROOT
BRANCH   1  10
HETATM   10  C6  UNL     1      21.786   1.048  50.941  1.00  0.00    -0.040 A 
HETATM   11  C5  UNL     1      21.490   0.758  49.695  1.00  0.00     0.009 A 
HETATM   12  C4  UNL     1      21.764   1.823  48.741  1.00  0.00     0.017 A 
HETATM   13  C3  UNL     1      22.254   2.799  49.481  1.00  0.00     0.013 A 
HETATM   14  C20 UNL     1      22.320   2.434  50.907  1.00  0.00     0.087 A 
BRANCH  13  15
HETATM   15  S1  UNL     1      22.818   4.410  49.046  1.00  0.00     0.045 S 
HETATM   16  O1  UNL     1      22.766   4.717  47.580  1.00  0.00    -0.253 OA
BRANCH  15  17
HETATM   17  C2  UNL     1      24.390   4.838  49.796  1.00  0.00     0.109 C 
HETATM   18  C1  UNL     1      25.348   3.692  49.503  1.00  0.00     0.019 C 
ENDBRANCH  15  17
ENDBRANCH  13  15
ENDBRANCH   1  10
BRANCH   7  19
HETATM   19  C13 UNL     1      26.158  -0.370  54.201  1.00  0.00     0.086 A 
HETATM   20  C14 UNL     1      26.887   0.612  54.813  1.00  0.00     0.040 A 
HETATM   21  C15 UNL     1      28.212   0.332  54.547  1.00  0.00     0.035 A 
HETATM   22  C16 UNL     1      28.225  -0.811  53.782  1.00  0.00     0.050 A 
HETATM   23  C17 UNL     1      29.533  -1.364  53.334  1.00  0.00     0.076 C 
HETATM   24  O3  UNL     1      26.980  -1.198  53.599  1.00  0.00    -0.315 OA
ENDBRANCH   7  19
TORSDOF 4
ENDMDL
MODEL 6
REMARK VINA RESULT:      -8.7      2.837      5.692
REMARK  4 active torsions:
REMARK  status: ('A' for Active; 'I' for Inactive)
REMARK    1  A    between atoms: C2_2  and  S1_3 
REMARK    2  A    between atoms: S1_3  and  C3_5 
REMARK    3  A    between atoms: C6_8  and  C7_9 
REMARK    4  A    between atoms: C12_15  and  C13_16 
ROOT
HETATM    1  C7  UNL     1      23.973  -0.408  54.100  1.00  0.00     0.006 A 
HETATM    2  C8  UNL     1      24.664  -1.111  55.101  1.00  0.00     0.155 A 
HETATM    3  O2  UNL     1      25.937  -0.811  55.087  1.00  0.00    -0.321 OA
HETATM    4  C9  UNL     1      26.210   0.059  54.148  1.00  0.00     0.086 A 
HETATM    5  C10 UNL     1      27.362   0.683  53.727  1.00  0.00     0.039 A 
HETATM    6  C11 UNL     1      27.355   1.591  52.668  1.00  0.00     0.017 A 
HETATM    7  C12 UNL     1      26.123   1.836  52.059  1.00  0.00    -0.001 A 
HETATM    8  C18 UNL     1      25.004   1.189  52.513  1.00  0.00     0.029 A 
HETATM    9  C19 UNL     1      25.000   0.293  53.556  1.00  0.00     0.011 A 
ENDROOT
BRANCH   1  10
HETATM   10  C6  UNL     1      22.545  -0.517  53.848  1.00  0.00    -0.040 A 
HETATM   11  C5  UNL     1      21.592  -1.268  54.351  1.00  0.00     0.009 A 
HETATM   12  C4  UNL     1      20.270  -1.034  53.787  1.00  0.00     0.017 A 
HETATM   13  C3  UNL     1      20.466  -0.083  52.893  1.00  0.00     0.013 A 
HETATM   14  C20 UNL     1      21.876   0.338  52.832  1.00  0.00     0.087 A 
BRANCH  13  15
HETATM   15  S1  UNL     1      19.346   0.730  51.804  1.00  0.00     0.045 S 
HETATM   16  O1  UNL     1      18.372  -0.178  51.117  1.00  0.00    -0.253 OA
BRANCH  15  17
HETATM   17  C2  UNL     1      20.151   1.872  50.681  1.00  0.00     0.109 C 
HETATM   18  C1  UNL     1      20.767   1.038  49.565  1.00  0.00     0.019 C 
ENDBRANCH  15  17
ENDBRANCH  13  15
ENDBRANCH   1  10
BRANCH   7  19
HETATM   19  C13 UNL     1      26.076   2.780  50.947  1.00  0.00     0.086 A 
HETATM   20  C14 UNL     1      24.974   3.177  50.241  1.00  0.00     0.040 A 
HETATM   21  C15 UNL     1      25.425   4.075  49.295  1.00  0.00     0.035 A 
HETATM   22  C16 UNL     1      26.785   4.181  49.471  1.00  0.00     0.050 A 
HETATM   23  C17 UNL     1      27.559   5.091  48.582  1.00  0.00     0.076 C 
HETATM   24  O3  UNL     1      27.133   3.393  50.466  1.00  0.00    -0.315 OA
ENDBRANCH   7  19
TORSDOF 4
ENDMDL
MODEL 7
REMARK VINA RESULT:      -8.6      3.195      7.451
REMARK  4 active torsions:
REMARK  status: ('A' for Active; 'I' for Inactive)
REMARK    1  A    between atoms: C2_2  and  S1_3 
REMARK    2  A    between atoms: S1_3  and  C3_5 
REMARK    3  A    between atoms: C6_8  and  C7_9 
REMARK    4  A    between atoms: C12_15  and  C13_16 
ROOT
HETATM    1  C7  UNL     1      25.145   0.586  53.337  1.00  0.00     0.006 A 
HETATM    2  C8  UNL     1      26.023   0.054  54.297  1.00  0.00     0.155 A 
HETATM    3  O2  UNL     1      25.393  -0.761  55.103  1.00  0.00    -0.321 OA
HETATM    4  C9  UNL     1      24.125  -0.852  54.791  1.00  0.00     0.086 A 
HETATM    5  C10 UNL     1      23.060  -1.553  55.309  1.00  0.00     0.039 A 
HETATM    6  C11 UNL     1      21.783  -1.455  54.756  1.00  0.00     0.017 A 
HETATM    7  C12 UNL     1      21.639  -0.611  53.653  1.00  0.00    -0.001 A 
HETATM    8  C18 UNL     1      22.730   0.068  53.174  1.00  0.00     0.029 A 
HETATM    9  C19 UNL     1      23.992  -0.023  53.711  1.00  0.00     0.011 A 
ENDROOT
BRANCH   1  10
HETATM   10  C6  UNL     1      25.530   1.525  52.295  1.00  0.00    -0.040 A 
HETATM   11  C5  UNL     1      26.507   1.553  51.418  1.00  0.00     0.009 A 
HETATM   12  C4  UNL     1      26.507   2.717  50.543  1.00  0.00     0.017 A 
HETATM   13  C3  UNL     1      25.460   3.415  50.938  1.00  0.00     0.013 A 
HETATM   14  C20 UNL     1      24.746   2.764  52.050  1.00  0.00     0.087 A 
BRANCH  13  15
HETATM   15  S1  UNL     1      24.806   4.946  50.362  1.00  0.00     0.045 S 
HETATM   16  O1  UNL     1      24.028   5.717  51.383  1.00  0.00    -0.253 OA
BRANCH  15  17
HETATM   17  C2  UNL     1      23.954   4.807  48.790  1.00  0.00     0.109 C 
HETATM   18  C1  UNL     1      23.210   3.479  48.804  1.00  0.00     0.019 C 
ENDBRANCH  15  17
ENDBRANCH  13  15
ENDBRANCH   1  10
BRANCH   7  19
HETATM   19  C13 UNL     1      20.318  -0.481  53.048  1.00  0.00     0.086 A 
HETATM   20  C14 UNL     1      19.978   0.251  51.943  1.00  0.00     0.040 A 
HETATM   21  C15 UNL     1      18.625   0.063  51.757  1.00  0.00     0.035 A 
HETATM   22  C16 UNL     1      18.203  -0.777  52.761  1.00  0.00     0.050 A 
HETATM   23  C17 UNL     1      16.767  -1.166  52.822  1.00  0.00     0.076 C 
HETATM   24  O3  UNL     1      19.243  -1.078  53.509  1.00  0.00    -0.315 OA
ENDBRANCH   7  19
TORSDOF 4
ENDMDL
MODEL 8
REMARK VINA RESULT:      -8.5      2.656      6.861
REMARK  4 active torsions:
REMARK  status: ('A' for Active; 'I' for Inactive)
REMARK    1  A    between atoms: C2_2  and  S1_3 
REMARK    2  A    between atoms: S1_3  and  C3_5 
REMARK    3  A    between atoms: C6_8  and  C7_9 
REMARK    4  A    between atoms: C12_15  and  C13_16 
ROOT
HETATM    1  C7  UNL     1      24.640   3.651  50.745  1.00  0.00     0.006 A 
HETATM    2  C8  UNL     1      23.292   4.013  50.899  1.00  0.00     0.155 A 
HETATM    3  O2  UNL     1      22.655   3.139  51.635  1.00  0.00    -0.321 OA
HETATM    4  C9  UNL     1      23.451   2.174  52.021  1.00  0.00     0.086 A 
HETATM    5  C10 UNL     1      23.282   1.043  52.786  1.00  0.00     0.039 A 
HETATM    6  C11 UNL     1      24.340   0.169  53.040  1.00  0.00     0.017 A 
HETATM    7  C12 UNL     1      25.575   0.498  52.480  1.00  0.00    -0.001 A 
HETATM    8  C18 UNL     1      25.693   1.635  51.724  1.00  0.00     0.029 A 
HETATM    9  C19 UNL     1      24.658   2.503  51.468  1.00  0.00     0.011 A 
ENDROOT
BRANCH   1  10
HETATM   10  C6  UNL     1      25.620   4.411  49.983  1.00  0.00    -0.040 A 
HETATM   11  C5  UNL     1      26.676   4.075  49.279  1.00  0.00     0.009 A 
HETATM   12  C4  UNL     1      27.383   5.194  48.671  1.00  0.00     0.017 A 
HETATM   13  C3  UNL     1      26.692   6.253  49.048  1.00  0.00     0.013 A 
HETATM   14  C20 UNL     1      25.538   5.892  49.890  1.00  0.00     0.087 A 
BRANCH  13  15
HETATM   15  S1  UNL     1      26.925   7.966  48.712  1.00  0.00     0.045 S 
HETATM   16  O1  UNL     1      27.500   8.754  49.849  1.00  0.00    -0.253 OA
BRANCH  15  17
HETATM   17  C2  UNL     1      25.489   8.747  47.975  1.00  0.00     0.109 C 
HETATM   18  C1  UNL     1      25.036   7.852  46.829  1.00  0.00     0.019 C 
ENDBRANCH  15  17
ENDBRANCH  13  15
ENDBRANCH   1  10
BRANCH   7  19
HETATM   19  C13 UNL     1      26.705  -0.393  52.723  1.00  0.00     0.086 A 
HETATM   20  C14 UNL     1      26.754  -1.745  52.524  1.00  0.00     0.040 A 
HETATM   21  C15 UNL     1      28.022  -2.144  52.892  1.00  0.00     0.035 A 
HETATM   22  C16 UNL     1      28.687  -1.011  53.299  1.00  0.00     0.050 A 
HETATM   23  C17 UNL     1      30.098  -1.128  53.761  1.00  0.00     0.076 C 
HETATM   24  O3  UNL     1      27.866   0.011  53.183  1.00  0.00    -0.315 OA
ENDBRANCH   7  19
TORSDOF 4
ENDMDL
MODEL 9
REMARK VINA RESULT:      -8.4      3.107      6.190
REMARK  4 active torsions:
REMARK  status: ('A' for Active; 'I' for Inactive)
REMARK    1  A    between atoms: C2_2  and  S1_3 
REMARK    2  A    between atoms: S1_3  and  C3_5 
REMARK    3  A    between atoms: C6_8  and  C7_9 
REMARK    4  A    between atoms: C12_15  and  C13_16 
ROOT
HETATM    1  C7  UNL     1      23.785   2.544  52.692  1.00  0.00     0.006 A 
HETATM    2  C8  UNL     1      24.059   3.901  52.446  1.00  0.00     0.155 A 
HETATM    3  O2  UNL     1      22.966   4.547  52.134  1.00  0.00    -0.321 OA
HETATM    4  C9  UNL     1      21.925   3.752  52.139  1.00  0.00     0.086 A 
HETATM    5  C10 UNL     1      20.584   3.930  51.888  1.00  0.00     0.039 A 
HETATM    6  C11 UNL     1      19.680   2.871  51.970  1.00  0.00     0.017 A 
HETATM    7  C12 UNL     1      20.202   1.624  52.319  1.00  0.00    -0.001 A 
HETATM    8  C18 UNL     1      21.546   1.498  52.559  1.00  0.00     0.029 A 
HETATM    9  C19 UNL     1      22.445   2.535  52.481  1.00  0.00     0.011 A 
ENDROOT
BRANCH   1  10
HETATM   10  C6  UNL     1      24.783   1.553  53.062  1.00  0.00    -0.040 A 
HETATM   11  C5  UNL     1      24.788   0.240  53.085  1.00  0.00     0.009 A 
HETATM   12  C4  UNL     1      26.038  -0.356  53.537  1.00  0.00     0.017 A 
HETATM   13  C3  UNL     1      26.812   0.680  53.796  1.00  0.00     0.013 A 
HETATM   14  C20 UNL     1      26.133   1.960  53.534  1.00  0.00     0.087 A 
BRANCH  13  15
HETATM   15  S1  UNL     1      28.471   0.767  54.383  1.00  0.00     0.045 S 
HETATM   16  O1  UNL     1      28.930   2.143  54.758  1.00  0.00    -0.253 OA
BRANCH  15  17
HETATM   17  C2  UNL     1      29.640  -0.102  53.338  1.00  0.00     0.109 C 
HETATM   18  C1  UNL     1      29.354  -1.589  53.491  1.00  0.00     0.019 C 
ENDBRANCH  15  17
ENDBRANCH  13  15
ENDBRANCH   1  10
BRANCH   7  19
HETATM   19  C13 UNL     1      19.287   0.492  52.415  1.00  0.00     0.086 A 
HETATM   20  C14 UNL     1      18.206   0.229  51.618  1.00  0.00     0.040 A 
HETATM   21  C15 UNL     1      17.655  -0.944  52.091  1.00  0.00     0.035 A 
HETATM   22  C16 UNL     1      18.430  -1.340  53.157  1.00  0.00     0.050 A 
HETATM   23  C17 UNL     1      18.075  -2.592  53.881  1.00  0.00     0.076 C 
HETATM   24  O3  UNL     1      19.391  -0.456  53.316  1.00  0.00    -0.315 OA
ENDBRANCH   7  19
TORSDOF 4
ENDMDL
