MODEL 1
REMARK VINA RESULT:      -7.5      0.000      0.000
REMARK  6 active torsions:
REMARK  status: ('A' for Active; 'I' for Inactive)
REMARK    1  A    between atoms: C1_2  and  C2_3 
REMARK       I    between atoms: C1_2  and  N2_12 
REMARK    2  A    between atoms: C3_4  and  C4_5 
REMARK    3  A    between atoms: C4_5  and  N1_6 
REMARK    4  A    between atoms: N2_12  and  C9_13 
REMARK    5  A    between atoms: C12_16  and  N3_17 
REMARK    6  A    between atoms: N3_17  and  C13_18 
ROOT
HETATM    1  C9  UNL     1      25.932   3.584  49.914  1.00  0.00     0.020 A 
HETATM    2  C10 UNL     1      26.276   3.216  51.148  1.00  0.00     0.058 A 
HETATM    3  C11 UNL     1      25.321   2.547  52.022  1.00  0.00     0.073 A 
HETATM    4  C12 UNL     1      25.675   2.191  53.232  1.00  0.00     0.120 C 
HETATM    5  N4  UNL     1      24.017   2.279  51.578  1.00  0.00    -0.263 NA
HETATM    6  C18 UNL     1      23.711   2.651  50.370  1.00  0.00     0.096 A 
HETATM    7  C19 UNL     1      24.558   3.333  49.366  1.00  0.00     0.104 A 
ENDROOT
BRANCH   1   8
HETATM    8  N2  UNL     1      26.841   4.249  49.014  1.00  0.00    -0.320 N 
HETATM    9  C1  UNL     1      26.836   5.656  49.000  1.00  0.00     0.300 C 
HETATM   10  O1  UNL     1      26.076   6.372  49.736  1.00  0.00    -0.258 OA
HETATM   11  H11 UNL     1      27.499   3.750  48.376  1.00  0.00     0.169 HD
BRANCH   9  12
HETATM   12  C2  UNL     1      27.704   6.405  48.138  1.00  0.00    -0.004 C 
HETATM   13  C3  UNL     1      28.430   7.044  47.386  1.00  0.00    -0.066 C 
BRANCH  13  14
HETATM   14  C4  UNL     1      29.299   7.798  46.462  1.00  0.00     0.366 C 
BRANCH  14  15
HETATM   15  N1  UNL     1      29.781   9.015  47.129  1.00  0.00     0.100 N 
HETATM   16  C5  UNL     1      30.745   8.694  48.125  1.00  0.00     0.283 C 
HETATM   17  C6  UNL     1      30.623   9.447  49.417  1.00  0.00     0.104 C 
HETATM   18  S1  UNL     1      30.469  11.212  49.008  1.00  0.00    -0.166 SA
HETATM   19  C7  UNL     1      29.203  11.288  47.694  1.00  0.00     0.104 C 
HETATM   20  C8  UNL     1      28.704   9.862  47.524  1.00  0.00     0.283 C 
ENDBRANCH  14  15
ENDBRANCH  13  14
ENDBRANCH   9  12
ENDBRANCH   1   8
BRANCH   4  21
HETATM   21  N3  UNL     1      26.973   2.421  53.769  1.00  0.00    -0.363 N 
HETATM   22  H14 UNL     1      27.556   3.198  54.146  1.00  0.00     0.165 HD
BRANCH  21  23
HETATM   23  C13 UNL     1      27.907   1.331  53.904  1.00  0.00     0.044 C 
HETATM   24  C14 UNL     1      29.182   1.169  54.219  1.00  0.00     0.004 C 
HETATM   25  C15 UNL     1      29.746   0.162  53.573  1.00  0.00     0.033 C 
HETATM   26  C16 UNL     1      28.616  -0.785  53.458  1.00  0.00     0.014 C 
HETATM   27 BR1  UNL     1      28.703  -2.658  53.094  1.00  0.00    -0.051 Br
HETATM   28  C17 UNL     1      27.504  -0.062  53.661  1.00  0.00     0.049 C 
ENDBRANCH  21  23
ENDBRANCH   4  21
TORSDOF 6
ENDMDL
MODEL 2
REMARK VINA RESULT:      -7.4      3.251      3.936
REMARK  6 active torsions:
REMARK  status: ('A' for Active; 'I' for Inactive)
REMARK    1  A    between atoms: C1_2  and  C2_3 
REMARK       I    between atoms: C1_2  and  N2_12 
REMARK    2  A    between atoms: C3_4  and  C4_5 
REMARK    3  A    between atoms: C4_5  and  N1_6 
REMARK    4  A    between atoms: N2_12  and  C9_13 
REMARK    5  A    between atoms: C12_16  and  N3_17 
REMARK    6  A    between atoms: N3_17  and  C13_18 
ROOT
HETATM    1  C9  UNL     1      25.221   5.356  49.458  1.00  0.00     0.020 A 
HETATM    2  C10 UNL     1      25.112   4.668  50.595  1.00  0.00     0.058 A 
HETATM    3  C11 UNL     1      23.826   4.140  51.028  1.00  0.00     0.073 A 
HETATM    4  C12 UNL     1      23.736   3.466  52.148  1.00  0.00     0.120 C 
HETATM    5  N4  UNL     1      22.674   4.347  50.254  1.00  0.00    -0.263 NA
HETATM    6  C18 UNL     1      22.812   5.021  49.151  1.00  0.00     0.096 A 
HETATM    7  C19 UNL     1      24.037   5.619  48.574  1.00  0.00     0.104 A 
ENDROOT
BRANCH   1   8
HETATM    8  N2  UNL     1      26.471   5.898  48.988  1.00  0.00    -0.320 N 
HETATM    9  C1  UNL     1      27.525   4.997  48.745  1.00  0.00     0.300 C 
HETATM   10  O1  UNL     1      27.435   3.734  48.917  1.00  0.00    -0.258 OA
HETATM   11  H11 UNL     1      26.640   6.914  48.818  1.00  0.00     0.169 HD
BRANCH   9  12
HETATM   12  C2  UNL     1      28.805   5.443  48.277  1.00  0.00    -0.004 C 
HETATM   13  C3  UNL     1      29.907   5.822  47.897  1.00  0.00    -0.066 C 
BRANCH  13  14
HETATM   14  C4  UNL     1      31.234   6.295  47.459  1.00  0.00     0.366 C 
BRANCH  14  15
HETATM   15  N1  UNL     1      32.226   5.232  47.672  1.00  0.00     0.100 N 
HETATM   16  C5  UNL     1      33.337   5.724  48.411  1.00  0.00     0.283 C 
HETATM   17  C6  UNL     1      34.687   5.270  47.938  1.00  0.00     0.104 C 
HETATM   18  S1  UNL     1      34.614   3.466  47.729  1.00  0.00    -0.166 SA
HETATM   19  C7  UNL     1      33.079   3.156  46.789  1.00  0.00     0.104 C 
HETATM   20  C8  UNL     1      32.514   4.529  46.466  1.00  0.00     0.283 C 
ENDBRANCH  14  15
ENDBRANCH  13  14
ENDBRANCH   9  12
ENDBRANCH   1   8
BRANCH   4  21
HETATM   21  N3  UNL     1      24.847   3.206  52.999  1.00  0.00    -0.363 N 
HETATM   22  H14 UNL     1      25.303   3.583  53.857  1.00  0.00     0.165 HD
BRANCH  21  23
HETATM   23  C13 UNL     1      25.730   2.099  52.725  1.00  0.00     0.044 C 
HETATM   24  C14 UNL     1      25.757   1.044  51.927  1.00  0.00     0.004 C 
HETATM   25  C15 UNL     1      26.363   0.003  52.473  1.00  0.00     0.033 C 
HETATM   26  C16 UNL     1      27.401   0.662  53.295  1.00  0.00     0.014 C 
HETATM   27 BR1  UNL     1      28.987  -0.122  54.012  1.00  0.00    -0.051 Br
HETATM   28  C17 UNL     1      27.003   1.936  53.441  1.00  0.00     0.049 C 
ENDBRANCH  21  23
ENDBRANCH   4  21
TORSDOF 6
ENDMDL
MODEL 3
REMARK VINA RESULT:      -7.4      2.854      3.499
REMARK  6 active torsions:
REMARK  status: ('A' for Active; 'I' for Inactive)
REMARK    1  A    between atoms: C1_2  and  C2_3 
REMARK       I    between atoms: C1_2  and  N2_12 
REMARK    2  A    between atoms: C3_4  and  C4_5 
REMARK    3  A    between atoms: C4_5  and  N1_6 
REMARK    4  A    between atoms: N2_12  and  C9_13 
REMARK    5  A    between atoms: C12_16  and  N3_17 
REMARK    6  A    between atoms: N3_17  and  C13_18 
ROOT
HETATM    1  C9  UNL     1      25.620   5.330  49.440  1.00  0.00     0.020 A 
HETATM    2  C10 UNL     1      25.659   4.473  50.460  1.00  0.00     0.058 A 
HETATM    3  C11 UNL     1      24.483   3.697  50.829  1.00  0.00     0.073 A 
HETATM    4  C12 UNL     1      24.536   2.859  51.834  1.00  0.00     0.120 C 
HETATM    5  N4  UNL     1      23.283   3.839  50.113  1.00  0.00    -0.263 NA
HETATM    6  C18 UNL     1      23.278   4.682  49.123  1.00  0.00     0.096 A 
HETATM    7  C19 UNL     1      24.378   5.538  48.625  1.00  0.00     0.104 A 
ENDROOT
BRANCH   1   8
HETATM    8  N2  UNL     1      26.758   6.120  49.038  1.00  0.00    -0.320 N 
HETATM    9  C1  UNL     1      27.897   5.436  48.570  1.00  0.00     0.300 C 
HETATM   10  O1  UNL     1      27.977   4.164  48.483  1.00  0.00    -0.258 OA
HETATM   11  H11 UNL     1      26.787   7.162  49.074  1.00  0.00     0.169 HD
BRANCH   9  12
HETATM   12  C2  UNL     1      29.076   6.136  48.150  1.00  0.00    -0.004 C 
HETATM   13  C3  UNL     1      30.094   6.722  47.804  1.00  0.00    -0.066 C 
BRANCH  13  14
HETATM   14  C4  UNL     1      31.326   7.434  47.414  1.00  0.00     0.366 C 
BRANCH  14  15
HETATM   15  N1  UNL     1      32.460   6.499  47.442  1.00  0.00     0.100 N 
HETATM   16  C5  UNL     1      32.242   5.420  46.540  1.00  0.00     0.283 C 
HETATM   17  C6  UNL     1      32.626   4.060  47.047  1.00  0.00     0.104 C 
HETATM   18  S1  UNL     1      34.304   4.188  47.736  1.00  0.00    -0.166 SA
HETATM   19  C7  UNL     1      34.270   5.670  48.803  1.00  0.00     0.104 C 
HETATM   20  C8  UNL     1      32.832   6.160  48.776  1.00  0.00     0.283 C 
ENDBRANCH  14  15
ENDBRANCH  13  14
ENDBRANCH   9  12
ENDBRANCH   1   8
BRANCH   4  21
HETATM   21  N3  UNL     1      25.706   2.648  52.618  1.00  0.00    -0.363 N 
HETATM   22  H14 UNL     1      26.273   3.123  53.352  1.00  0.00     0.165 HD
BRANCH  21  23
HETATM   23  C13 UNL     1      26.471   1.435  52.471  1.00  0.00     0.044 C 
HETATM   24  C14 UNL     1      26.310   0.236  51.934  1.00  0.00     0.004 C 
HETATM   25  C15 UNL     1      26.940  -0.715  52.604  1.00  0.00     0.033 C 
HETATM   26  C16 UNL     1      28.131   0.009  53.097  1.00  0.00     0.014 C 
HETATM   27 BR1  UNL     1      29.769  -0.744  53.729  1.00  0.00    -0.051 Br
HETATM   28  C17 UNL     1      27.833   1.315  53.011  1.00  0.00     0.049 C 
ENDBRANCH  21  23
ENDBRANCH   4  21
TORSDOF 6
ENDMDL
MODEL 4
REMARK VINA RESULT:      -7.2      2.725      3.783
REMARK  6 active torsions:
REMARK  status: ('A' for Active; 'I' for Inactive)
REMARK    1  A    between atoms: C1_2  and  C2_3 
REMARK       I    between atoms: C1_2  and  N2_12 
REMARK    2  A    between atoms: C3_4  and  C4_5 
REMARK    3  A    between atoms: C4_5  and  N1_6 
REMARK    4  A    between atoms: N2_12  and  C9_13 
REMARK    5  A    between atoms: C12_16  and  N3_17 
REMARK    6  A    between atoms: N3_17  and  C13_18 
ROOT
HETATM    1  C9  UNL     1      23.032   2.173  51.462  1.00  0.00     0.020 A 
HETATM    2  C10 UNL     1      23.606   1.400  52.384  1.00  0.00     0.058 A 
HETATM    3  C11 UNL     1      22.936   0.205  52.879  1.00  0.00     0.073 A 
HETATM    4  C12 UNL     1      23.513  -0.545  53.785  1.00  0.00     0.120 C 
HETATM    5  N4  UNL     1      21.669  -0.155  52.391  1.00  0.00    -0.263 NA
HETATM    6  C18 UNL     1      21.136   0.619  51.493  1.00  0.00     0.096 A 
HETATM    7  C19 UNL     1      21.681   1.857  50.891  1.00  0.00     0.104 A 
ENDROOT
BRANCH   1   8
HETATM    8  N2  UNL     1      23.655   3.364  50.942  1.00  0.00    -0.320 N 
HETATM    9  C1  UNL     1      23.389   4.581  51.598  1.00  0.00     0.300 C 
HETATM   10  O1  UNL     1      22.631   4.687  52.621  1.00  0.00    -0.258 OA
HETATM   11  H11 UNL     1      24.288   3.378  50.113  1.00  0.00     0.169 HD
BRANCH   9  12
HETATM   12  C2  UNL     1      23.962   5.819  51.154  1.00  0.00    -0.004 C 
HETATM   13  C3  UNL     1      24.455   6.881  50.795  1.00  0.00    -0.066 C 
BRANCH  13  14
HETATM   14  C4  UNL     1      25.031   8.174  50.378  1.00  0.00     0.366 C 
BRANCH  14  15
HETATM   15  N1  UNL     1      26.408   7.966  49.910  1.00  0.00     0.100 N 
HETATM   16  C5  UNL     1      27.215   9.100  50.206  1.00  0.00     0.283 C 
HETATM   17  C6  UNL     1      28.160   9.528  49.121  1.00  0.00     0.104 C 
HETATM   18  S1  UNL     1      29.054   8.047  48.561  1.00  0.00    -0.166 SA
HETATM   19  C7  UNL     1      27.765   6.779  48.308  1.00  0.00     0.104 C 
HETATM   20  C8  UNL     1      26.443   7.482  48.570  1.00  0.00     0.283 C 
ENDBRANCH  14  15
ENDBRANCH  13  14
ENDBRANCH   9  12
ENDBRANCH   1   8
BRANCH   4  21
HETATM   21  N3  UNL     1      24.793  -0.261  54.338  1.00  0.00    -0.363 N 
HETATM   22  H14 UNL     1      25.221   0.164  55.187  1.00  0.00     0.165 HD
BRANCH  21  23
HETATM   23  C13 UNL     1      25.991  -0.612  53.615  1.00  0.00     0.044 C 
HETATM   24  C14 UNL     1      26.325  -1.371  52.584  1.00  0.00     0.004 C 
HETATM   25  C15 UNL     1      27.527  -1.908  52.710  1.00  0.00     0.033 C 
HETATM   26  C16 UNL     1      28.249  -0.848  53.448  1.00  0.00     0.014 C 
HETATM   27 BR1  UNL     1      30.139  -0.621  53.602  1.00  0.00    -0.051 Br
HETATM   28  C17 UNL     1      27.304  -0.067  53.993  1.00  0.00     0.049 C 
ENDBRANCH  21  23
ENDBRANCH   4  21
TORSDOF 6
ENDMDL
MODEL 5
REMARK VINA RESULT:      -7.2      3.892      5.542
REMARK  6 active torsions:
REMARK  status: ('A' for Active; 'I' for Inactive)
REMARK    1  A    between atoms: C1_2  and  C2_3 
REMARK       I    between atoms: C1_2  and  N2_12 
REMARK    2  A    between atoms: C3_4  and  C4_5 
REMARK    3  A    between atoms: C4_5  and  N1_6 
REMARK    4  A    between atoms: N2_12  and  C9_13 
REMARK    5  A    between atoms: C12_16  and  N3_17 
REMARK    6  A    between atoms: N3_17  and  C13_18 
ROOT
HETATM    1  C9  UNL     1      25.558   2.123  51.855  1.00  0.00     0.020 A 
HETATM    2  C10 UNL     1      24.472   1.614  52.436  1.00  0.00     0.058 A 
HETATM    3  C11 UNL     1      24.481   0.264  52.983  1.00  0.00     0.073 A 
HETATM    4  C12 UNL     1      23.405  -0.222  53.552  1.00  0.00     0.120 C 
HETATM    5  N4  UNL     1      25.637  -0.528  52.905  1.00  0.00    -0.263 NA
HETATM    6  C18 UNL     1      26.680  -0.004  52.332  1.00  0.00     0.096 A 
HETATM    7  C19 UNL     1      26.833   1.341  51.733  1.00  0.00     0.104 A 
ENDROOT
BRANCH   1   8
HETATM    8  N2  UNL     1      25.598   3.453  51.300  1.00  0.00    -0.320 N 
HETATM    9  C1  UNL     1      24.896   3.682  50.101  1.00  0.00     0.300 C 
HETATM   10  O1  UNL     1      24.231   2.784  49.483  1.00  0.00    -0.258 OA
HETATM   11  H11 UNL     1      26.113   4.250  51.732  1.00  0.00     0.169 HD
BRANCH   9  12
HETATM   12  C2  UNL     1      24.878   4.972  49.473  1.00  0.00    -0.004 C 
HETATM   13  C3  UNL     1      24.859   6.082  48.956  1.00  0.00    -0.066 C 
BRANCH  13  14
HETATM   14  C4  UNL     1      24.813   7.424  48.345  1.00  0.00     0.366 C 
BRANCH  14  15
HETATM   15  N1  UNL     1      26.111   8.088  48.526  1.00  0.00     0.100 N 
HETATM   16  C5  UNL     1      27.094   7.508  47.677  1.00  0.00     0.283 C 
HETATM   17  C6  UNL     1      28.444   7.290  48.296  1.00  0.00     0.104 C 
HETATM   18  S1  UNL     1      28.924   8.840  49.117  1.00  0.00    -0.166 SA
HETATM   19  C7  UNL     1      27.460   9.341  50.085  1.00  0.00     0.104 C 
HETATM   20  C8  UNL     1      26.448   8.221  49.906  1.00  0.00     0.283 C 
ENDBRANCH  14  15
ENDBRANCH  13  14
ENDBRANCH   9  12
ENDBRANCH   1   8
BRANCH   4  21
HETATM   21  N3  UNL     1      22.188   0.504  53.677  1.00  0.00    -0.363 N 
HETATM   22  H14 UNL     1      21.780   1.293  54.222  1.00  0.00     0.165 HD
BRANCH  21  23
HETATM   23  C13 UNL     1      21.052   0.168  52.855  1.00  0.00     0.044 C 
HETATM   24  C14 UNL     1      20.675   0.322  51.596  1.00  0.00     0.004 C 
HETATM   25  C15 UNL     1      19.368   0.480  51.467  1.00  0.00     0.033 C 
HETATM   26  C16 UNL     1      18.858  -0.368  52.567  1.00  0.00     0.014 C 
HETATM   27 BR1  UNL     1      17.093  -1.068  52.771  1.00  0.00    -0.051 Br
HETATM   28  C17 UNL     1      19.892  -0.550  53.404  1.00  0.00     0.049 C 
ENDBRANCH  21  23
ENDBRANCH   4  21
TORSDOF 6
ENDMDL
MODEL 6
REMARK VINA RESULT:      -7.1      1.637      2.092
REMARK  6 active torsions:
REMARK  status: ('A' for Active; 'I' for Inactive)
REMARK    1  A    between atoms: C1_2  and  C2_3 
REMARK       I    between atoms: C1_2  and  N2_12 
REMARK    2  A    between atoms: C3_4  and  C4_5 
REMARK    3  A    between atoms: C4_5  and  N1_6 
REMARK    4  A    between atoms: N2_12  and  C9_13 
REMARK    5  A    between atoms: C12_16  and  N3_17 
REMARK    6  A    between atoms: N3_17  and  C13_18 
ROOT
HETATM    1  C9  UNL     1      24.865   4.987  49.719  1.00  0.00     0.020 A 
HETATM    2  C10 UNL     1      24.960   4.249  50.826  1.00  0.00     0.058 A 
HETATM    3  C11 UNL     1      23.801   3.539  51.350  1.00  0.00     0.073 A 
HETATM    4  C12 UNL     1      23.910   2.817  52.439  1.00  0.00     0.120 C 
HETATM    5  N4  UNL     1      22.561   3.620  50.698  1.00  0.00    -0.263 NA
HETATM    6  C18 UNL     1      22.501   4.347  49.622  1.00  0.00     0.096 A 
HETATM    7  C19 UNL     1      23.576   5.124  48.965  1.00  0.00     0.104 A 
ENDROOT
BRANCH   1   8
HETATM    8  N2  UNL     1      25.983   5.707  49.162  1.00  0.00    -0.320 N 
HETATM    9  C1  UNL     1      27.154   4.980  48.877  1.00  0.00     0.300 C 
HETATM   10  O1  UNL     1      27.280   3.725  49.082  1.00  0.00    -0.258 OA
HETATM   11  H11 UNL     1      25.975   6.731  48.960  1.00  0.00     0.169 HD
BRANCH   9  12
HETATM   12  C2  UNL     1      28.317   5.610  48.322  1.00  0.00    -0.004 C 
HETATM   13  C3  UNL     1      29.321   6.142  47.865  1.00  0.00    -0.066 C 
BRANCH  13  14
HETATM   14  C4  UNL     1      30.535   6.795  47.338  1.00  0.00     0.366 C 
BRANCH  14  15
HETATM   15  N1  UNL     1      30.473   8.237  47.615  1.00  0.00     0.100 N 
HETATM   16  C5  UNL     1      31.357   8.950  46.758  1.00  0.00     0.283 C 
HETATM   17  C6  UNL     1      32.143  10.053  47.406  1.00  0.00     0.104 C 
HETATM   18  S1  UNL     1      30.975  11.069  48.358  1.00  0.00    -0.166 SA
HETATM   19  C7  UNL     1      29.971   9.877  49.310  1.00  0.00     0.104 C 
HETATM   20  C8  UNL     1      30.566   8.511  49.011  1.00  0.00     0.283 C 
ENDBRANCH  14  15
ENDBRANCH  13  14
ENDBRANCH   9  12
ENDBRANCH   1   8
BRANCH   4  21
HETATM   21  N3  UNL     1      25.124   2.676  53.168  1.00  0.00    -0.363 N 
HETATM   22  H14 UNL     1      25.622   3.095  53.981  1.00  0.00     0.165 HD
BRANCH  21  23
HETATM   23  C13 UNL     1      26.088   1.672  52.788  1.00  0.00     0.044 C 
HETATM   24  C14 UNL     1      26.202   0.722  51.874  1.00  0.00     0.004 C 
HETATM   25  C15 UNL     1      26.873  -0.331  52.311  1.00  0.00     0.033 C 
HETATM   26  C16 UNL     1      27.849   0.299  53.227  1.00  0.00     0.014 C 
HETATM   27 BR1  UNL     1      29.478  -0.452  53.883  1.00  0.00    -0.051 Br
HETATM   28  C17 UNL     1      27.359   1.516  53.509  1.00  0.00     0.049 C 
ENDBRANCH  21  23
ENDBRANCH   4  21
TORSDOF 6
ENDMDL
MODEL 7
REMARK VINA RESULT:      -7.0      3.748      8.405
REMARK  6 active torsions:
REMARK  status: ('A' for Active; 'I' for Inactive)
REMARK    1  A    between atoms: C1_2  and  C2_3 
REMARK       I    between atoms: C1_2  and  N2_12 
REMARK    2  A    between atoms: C3_4  and  C4_5 
REMARK    3  A    between atoms: C4_5  and  N1_6 
REMARK    4  A    between atoms: N2_12  and  C9_13 
REMARK    5  A    between atoms: C12_16  and  N3_17 
REMARK    6  A    between atoms: N3_17  and  C13_18 
ROOT
HETATM    1  C9  UNL     1      25.306   5.702  49.691  1.00  0.00     0.020 A 
HETATM    2  C10 UNL     1      26.436   6.386  49.512  1.00  0.00     0.058 A 
HETATM    3  C11 UNL     1      26.556   7.362  48.437  1.00  0.00     0.073 A 
HETATM    4  C12 UNL     1      27.673   8.027  48.275  1.00  0.00     0.120 C 
HETATM    5  N4  UNL     1      25.480   7.599  47.567  1.00  0.00    -0.263 NA
HETATM    6  C18 UNL     1      24.392   6.915  47.767  1.00  0.00     0.096 A 
HETATM    7  C19 UNL     1      24.111   5.897  48.804  1.00  0.00     0.104 A 
ENDROOT
BRANCH   1   8
HETATM    8  N2  UNL     1      25.140   4.726  50.739  1.00  0.00    -0.320 N 
HETATM    9  C1  UNL     1      25.642   3.431  50.513  1.00  0.00     0.300 C 
HETATM   10  O1  UNL     1      26.233   3.075  49.438  1.00  0.00    -0.258 OA
HETATM   11  H11 UNL     1      24.671   4.923  51.651  1.00  0.00     0.169 HD
BRANCH   9  12
HETATM   12  C2  UNL     1      25.523   2.394  51.497  1.00  0.00    -0.004 C 
HETATM   13  C3  UNL     1      25.410   1.521  52.349  1.00  0.00    -0.066 C 
BRANCH  13  14
HETATM   14  C4  UNL     1      25.281   0.487  53.393  1.00  0.00     0.366 C 
BRANCH  14  15
HETATM   15  N1  UNL     1      26.593  -0.130  53.633  1.00  0.00     0.100 N 
HETATM   16  C5  UNL     1      27.502   0.819  54.177  1.00  0.00     0.283 C 
HETATM   17  C6  UNL     1      28.896   0.778  53.622  1.00  0.00     0.104 C 
HETATM   18  S1  UNL     1      29.447  -0.954  53.658  1.00  0.00    -0.166 SA
HETATM   19  C7  UNL     1      28.067  -1.909  52.939  1.00  0.00     0.104 C 
HETATM   20  C8  UNL     1      27.039  -0.877  52.504  1.00  0.00     0.283 C 
ENDBRANCH  14  15
ENDBRANCH  13  14
ENDBRANCH   9  12
ENDBRANCH   1   8
BRANCH   4  21
HETATM   21  N3  UNL     1      28.815   7.856  49.106  1.00  0.00    -0.363 N 
HETATM   22  H14 UNL     1      29.119   8.012  50.090  1.00  0.00     0.165 HD
BRANCH  21  23
HETATM   23  C13 UNL     1      30.030   7.295  48.566  1.00  0.00     0.044 C 
HETATM   24  C14 UNL     1      31.184   7.735  48.094  1.00  0.00     0.004 C 
HETATM   25  C15 UNL     1      31.669   6.971  47.130  1.00  0.00     0.033 C 
HETATM   26  C16 UNL     1      31.207   5.631  47.554  1.00  0.00     0.014 C 
HETATM   27 BR1  UNL     1      31.880   3.937  46.985  1.00  0.00    -0.051 Br
HETATM   28  C17 UNL     1      30.210   5.843  48.426  1.00  0.00     0.049 C 
ENDBRANCH  21  23
ENDBRANCH   4  21
TORSDOF 6
ENDMDL
MODEL 8
REMARK VINA RESULT:      -7.0      3.096      5.198
REMARK  6 active torsions:
REMARK  status: ('A' for Active; 'I' for Inactive)
REMARK    1  A    between atoms: C1_2  and  C2_3 
REMARK       I    between atoms: C1_2  and  N2_12 
REMARK    2  A    between atoms: C3_4  and  C4_5 
REMARK    3  A    between atoms: C4_5  and  N1_6 
REMARK    4  A    between atoms: N2_12  and  C9_13 
REMARK    5  A    between atoms: C12_16  and  N3_17 
REMARK    6  A    between atoms: N3_17  and  C13_18 
ROOT
HETATM    1  C9  UNL     1      26.206   2.032  51.842  1.00  0.00     0.020 A 
HETATM    2  C10 UNL     1      24.881   1.959  51.971  1.00  0.00     0.058 A 
HETATM    3  C11 UNL     1      24.257   0.813  52.619  1.00  0.00     0.073 A 
HETATM    4  C12 UNL     1      22.953   0.755  52.739  1.00  0.00     0.120 C 
HETATM    5  N4  UNL     1      25.042  -0.238  53.119  1.00  0.00    -0.263 NA
HETATM    6  C18 UNL     1      26.330  -0.137  52.977  1.00  0.00     0.096 A 
HETATM    7  C19 UNL     1      27.114   0.951  52.350  1.00  0.00     0.104 A 
ENDROOT
BRANCH   1   8
HETATM    8  N2  UNL     1      26.870   3.144  51.209  1.00  0.00    -0.320 N 
HETATM    9  C1  UNL     1      26.443   3.513  49.919  1.00  0.00     0.300 C 
HETATM   10  O1  UNL     1      25.506   2.920  49.284  1.00  0.00    -0.258 OA
HETATM   11  H11 UNL     1      27.644   3.689  51.648  1.00  0.00     0.169 HD
BRANCH   9  12
HETATM   12  C2  UNL     1      27.043   4.605  49.210  1.00  0.00    -0.004 C 
HETATM   13  C3  UNL     1      27.550   5.529  48.585  1.00  0.00    -0.066 C 
BRANCH  13  14
HETATM   14  C4  UNL     1      28.173   6.625  47.819  1.00  0.00     0.366 C 
BRANCH  14  15
HETATM   15  N1  UNL     1      29.462   6.978  48.431  1.00  0.00     0.100 N 
HETATM   16  C5  UNL     1      29.826   8.312  48.098  1.00  0.00     0.283 C 
HETATM   17  C6  UNL     1      31.271   8.524  47.748  1.00  0.00     0.104 C 
HETATM   18  S1  UNL     1      32.269   7.733  49.044  1.00  0.00    -0.166 SA
HETATM   19  C7  UNL     1      31.537   6.074  49.264  1.00  0.00     0.104 C 
HETATM   20  C8  UNL     1      30.444   5.967  48.214  1.00  0.00     0.283 C 
ENDBRANCH  14  15
ENDBRANCH  13  14
ENDBRANCH   9  12
ENDBRANCH   1   8
BRANCH   4  21
HETATM   21  N3  UNL     1      22.077   1.771  52.263  1.00  0.00    -0.363 N 
HETATM   22  H14 UNL     1      21.586   2.626  52.601  1.00  0.00     0.165 HD
BRANCH  21  23
HETATM   23  C13 UNL     1      21.627   1.761  50.893  1.00  0.00     0.044 C 
HETATM   24  C14 UNL     1      20.991   0.935  50.079  1.00  0.00     0.004 C 
HETATM   25  C15 UNL     1      21.394   1.041  48.823  1.00  0.00     0.033 C 
HETATM   26  C16 UNL     1      21.715   2.482  48.736  1.00  0.00     0.014 C 
HETATM   27 BR1  UNL     1      21.897   3.538  47.155  1.00  0.00    -0.051 Br
HETATM   28  C17 UNL     1      21.854   2.907  50.001  1.00  0.00     0.049 C 
ENDBRANCH  21  23
ENDBRANCH   4  21
TORSDOF 6
ENDMDL
MODEL 9
REMARK VINA RESULT:      -6.9      3.208      4.103
REMARK  6 active torsions:
REMARK  status: ('A' for Active; 'I' for Inactive)
REMARK    1  A    between atoms: C1_2  and  C2_3 
REMARK       I    between atoms: C1_2  and  N2_12 
REMARK    2  A    between atoms: C3_4  and  C4_5 
REMARK    3  A    between atoms: C4_5  and  N1_6 
REMARK    4  A    between atoms: N2_12  and  C9_13 
REMARK    5  A    between atoms: C12_16  and  N3_17 
REMARK    6  A    between atoms: N3_17  and  C13_18 
ROOT
HETATM    1  C9  UNL     1      24.402   6.427  50.783  1.00  0.00     0.020 A 
HETATM    2  C10 UNL     1      24.190   5.127  50.984  1.00  0.00     0.058 A 
HETATM    3  C11 UNL     1      22.844   4.615  51.205  1.00  0.00     0.073 A 
HETATM    4  C12 UNL     1      22.651   3.334  51.401  1.00  0.00     0.120 C 
HETATM    5  N4  UNL     1      21.743   5.486  51.209  1.00  0.00    -0.263 NA
HETATM    6  C18 UNL     1      21.983   6.749  51.010  1.00  0.00     0.096 A 
HETATM    7  C19 UNL     1      23.279   7.422  50.773  1.00  0.00     0.104 A 
ENDROOT
BRANCH   1   8
HETATM    8  N2  UNL     1      25.715   6.980  50.561  1.00  0.00    -0.320 N 
HETATM    9  C1  UNL     1      26.190   7.026  49.237  1.00  0.00     0.300 C 
HETATM   10  O1  UNL     1      25.527   6.608  48.228  1.00  0.00    -0.258 OA
HETATM   11  H11 UNL     1      26.330   7.346  51.320  1.00  0.00     0.169 HD
BRANCH   9  12
HETATM   12  C2  UNL     1      27.484   7.558  48.918  1.00  0.00    -0.004 C 
HETATM   13  C3  UNL     1      28.581   8.018  48.627  1.00  0.00    -0.066 C 
BRANCH  13  14
HETATM   14  C4  UNL     1      29.901   8.561  48.254  1.00  0.00     0.366 C 
BRANCH  14  15
HETATM   15  N1  UNL     1      30.931   7.538  48.482  1.00  0.00     0.100 N 
HETATM   16  C5  UNL     1      32.074   8.109  49.108  1.00  0.00     0.283 C 
HETATM   17  C6  UNL     1      33.403   7.647  48.583  1.00  0.00     0.104 C 
HETATM   18  S1  UNL     1      33.362   5.831  48.516  1.00  0.00    -0.166 SA
HETATM   19  C7  UNL     1      31.780   5.418  47.705  1.00  0.00     0.104 C 
HETATM   20  C8  UNL     1      31.160   6.750  47.315  1.00  0.00     0.283 C 
ENDBRANCH  14  15
ENDBRANCH  13  14
ENDBRANCH   9  12
ENDBRANCH   1   8
BRANCH   4  21
HETATM   21  N3  UNL     1      23.703   2.376  51.413  1.00  0.00    -0.363 N 
HETATM   22  H14 UNL     1      24.551   2.112  50.868  1.00  0.00     0.165 HD
BRANCH  21  23
HETATM   23  C13 UNL     1      23.764   1.376  52.451  1.00  0.00     0.044 C 
HETATM   24  C14 UNL     1      24.695   0.725  53.128  1.00  0.00     0.004 C 
HETATM   25  C15 UNL     1      24.333  -0.508  53.443  1.00  0.00     0.033 C 
HETATM   26  C16 UNL     1      22.877  -0.345  53.647  1.00  0.00     0.014 C 
HETATM   27 BR1  UNL     1      21.698  -1.520  54.583  1.00  0.00    -0.051 Br
HETATM   28  C17 UNL     1      22.544   0.803  53.039  1.00  0.00     0.049 C 
ENDBRANCH  21  23
ENDBRANCH   4  21
TORSDOF 6
ENDMDL
