MODEL 1
REMARK VINA RESULT:      -8.0      0.000      0.000
REMARK  3 active torsions:
REMARK  status: ('A' for Active; 'I' for Inactive)
REMARK    1  A    between atoms: C2_2  and  C3_3 
REMARK    2  A    between atoms: C2_2  and  C11_13 
REMARK    3  A    between atoms: C10_11  and  O1_12 
ROOT
HETATM    1  C3  UNL     1      25.625  -0.414  53.040  1.00  0.00    -0.028 C 
HETATM    2  C4  UNL     1      25.664  -1.523  52.276  1.00  0.00     0.009 C 
HETATM    3  C5  UNL     1      27.022  -2.070  52.231  1.00  0.00     0.031 C 
HETATM    4  C6  UNL     1      27.802  -1.294  52.958  1.00  0.00     0.076 C 
HETATM    5  N1  UNL     1      29.193  -1.413  53.252  1.00  0.00    -0.262 NA
HETATM    6  C7  UNL     1      29.634  -0.609  54.201  1.00  0.00     0.117 C 
HETATM    7  C8  UNL     1      28.721   0.366  54.834  1.00  0.00     0.019 C 
HETATM    8  C9  UNL     1      27.435   0.605  54.509  1.00  0.00     0.023 C 
HETATM    9  C10 UNL     1      27.002  -0.171  53.389  1.00  0.00     0.144 C 
ENDROOT
BRANCH   1  10
HETATM   10  C2  UNL     1      24.567   0.542  53.456  1.00  0.00     0.051 C 
HETATM   11  C1  UNL     1      24.604   1.755  52.538  1.00  0.00     0.020 C 
BRANCH  10  12
HETATM   12  C11 UNL     1      23.226  -0.041  53.564  1.00  0.00    -0.004 A 
HETATM   13  C12 UNL     1      22.889  -0.879  54.634  1.00  0.00     0.042 A 
HETATM   14 CL1  UNL     1      24.089  -1.241  55.866  1.00  0.00    -0.084 Cl
HETATM   15  C13 UNL     1      21.651  -1.463  54.804  1.00  0.00     0.027 A 
HETATM   16  C14 UNL     1      20.678  -1.210  53.867  1.00  0.00     0.046 A 
HETATM   17  C15 UNL     1      20.936  -0.393  52.784  1.00  0.00     0.138 A 
HETATM   18  F1  UNL     1      19.972  -0.147  51.861  1.00  0.00    -0.204 F 
HETATM   19  C16 UNL     1      22.185   0.168  52.653  1.00  0.00     0.081 A 
HETATM   20 CL2  UNL     1      22.540   1.210  51.286  1.00  0.00    -0.080 Cl
ENDBRANCH  10  12
ENDBRANCH   1  10
BRANCH   9  21
HETATM   21  O1  UNL     1      27.424   0.800  52.248  1.00  0.00    -0.375 OA
HETATM   22  H10 UNL     1      28.093   0.227  51.798  1.00  0.00     0.211 HD
ENDBRANCH   9  21
TORSDOF 3
ENDMDL
MODEL 2
REMARK VINA RESULT:      -7.9      3.325      5.401
REMARK  3 active torsions:
REMARK  status: ('A' for Active; 'I' for Inactive)
REMARK    1  A    between atoms: C2_2  and  C3_3 
REMARK    2  A    between atoms: C2_2  and  C11_13 
REMARK    3  A    between atoms: C10_11  and  O1_12 
ROOT
HETATM    1  C3  UNL     1      24.095   2.560  52.187  1.00  0.00    -0.028 C 
HETATM    2  C4  UNL     1      23.961   3.361  53.262  1.00  0.00     0.009 C 
HETATM    3  C5  UNL     1      23.818   4.758  52.848  1.00  0.00     0.031 C 
HETATM    4  C6  UNL     1      23.872   4.804  51.532  1.00  0.00     0.076 C 
HETATM    5  N1  UNL     1      23.754   5.920  50.649  1.00  0.00    -0.262 NA
HETATM    6  C7  UNL     1      23.615   5.611  49.374  1.00  0.00     0.117 C 
HETATM    7  C8  UNL     1      23.648   4.197  48.942  1.00  0.00     0.019 C 
HETATM    8  C9  UNL     1      23.880   3.117  49.714  1.00  0.00     0.023 C 
HETATM    9  C10 UNL     1      24.167   3.468  51.071  1.00  0.00     0.144 C 
ENDROOT
BRANCH   1  10
HETATM   10  C2  UNL     1      24.261   1.098  51.977  1.00  0.00     0.051 C 
HETATM   11  C1  UNL     1      25.735   0.742  52.103  1.00  0.00     0.020 C 
BRANCH  10  12
HETATM   12  C11 UNL     1      23.405   0.259  52.820  1.00  0.00    -0.004 A 
HETATM   13  C12 UNL     1      22.082  -0.018  52.454  1.00  0.00     0.042 A 
HETATM   14 CL1  UNL     1      21.435   0.649  50.962  1.00  0.00    -0.084 Cl
HETATM   15  C13 UNL     1      21.217  -0.798  53.194  1.00  0.00     0.027 A 
HETATM   16  C14 UNL     1      21.677  -1.343  54.369  1.00  0.00     0.046 A 
HETATM   17  C15 UNL     1      22.970  -1.114  54.796  1.00  0.00     0.138 A 
HETATM   18  F1  UNL     1      23.419  -1.655  55.957  1.00  0.00    -0.204 F 
HETATM   19  C16 UNL     1      23.798  -0.330  54.028  1.00  0.00     0.081 A 
HETATM   20 CL2  UNL     1      25.447  -0.022  54.546  1.00  0.00    -0.080 Cl
ENDBRANCH  10  12
ENDBRANCH   1  10
BRANCH   9  21
HETATM   21  O1  UNL     1      25.708   3.655  50.948  1.00  0.00    -0.375 OA
HETATM   22  H10 UNL     1      25.740   4.643  50.908  1.00  0.00     0.211 HD
ENDBRANCH   9  21
TORSDOF 3
ENDMDL
MODEL 3
REMARK VINA RESULT:      -7.9      3.104      5.003
REMARK  3 active torsions:
REMARK  status: ('A' for Active; 'I' for Inactive)
REMARK    1  A    between atoms: C2_2  and  C3_3 
REMARK    2  A    between atoms: C2_2  and  C11_13 
REMARK    3  A    between atoms: C10_11  and  O1_12 
ROOT
HETATM    1  C3  UNL     1      24.209   2.222  52.322  1.00  0.00    -0.028 C 
HETATM    2  C4  UNL     1      24.262   3.123  53.322  1.00  0.00     0.009 C 
HETATM    3  C5  UNL     1      23.884   4.452  52.839  1.00  0.00     0.031 C 
HETATM    4  C6  UNL     1      23.611   4.360  51.553  1.00  0.00     0.076 C 
HETATM    5  N1  UNL     1      23.172   5.362  50.636  1.00  0.00    -0.262 NA
HETATM    6  C7  UNL     1      22.758   4.908  49.468  1.00  0.00     0.117 C 
HETATM    7  C8  UNL     1      22.827   3.462  49.165  1.00  0.00     0.019 C 
HETATM    8  C9  UNL     1      23.345   2.492  49.944  1.00  0.00     0.023 C 
HETATM    9  C10 UNL     1      23.917   3.008  51.149  1.00  0.00     0.144 C 
ENDROOT
BRANCH   1  10
HETATM   10  C2  UNL     1      24.463   0.763  52.203  1.00  0.00     0.051 C 
HETATM   11  C1  UNL     1      25.964   0.525  52.128  1.00  0.00     0.020 C 
BRANCH  10  12
HETATM   12  C11 UNL     1      23.813  -0.055  53.230  1.00  0.00    -0.004 A 
HETATM   13  C12 UNL     1      24.491  -0.415  54.401  1.00  0.00     0.042 A 
HETATM   14 CL1  UNL     1      26.148   0.120  54.645  1.00  0.00    -0.084 Cl
HETATM   15  C13 UNL     1      23.948  -1.181  55.411  1.00  0.00     0.027 A 
HETATM   16  C14 UNL     1      22.655  -1.624  55.267  1.00  0.00     0.046 A 
HETATM   17  C15 UNL     1      21.921  -1.309  54.140  1.00  0.00     0.138 A 
HETATM   18  F1  UNL     1      20.644  -1.748  54.003  1.00  0.00    -0.204 F 
HETATM   19  C16 UNL     1      22.503  -0.543  53.157  1.00  0.00     0.081 A 
HETATM   20 CL2  UNL     1      21.595  -0.128  51.714  1.00  0.00    -0.080 Cl
ENDBRANCH  10  12
ENDBRANCH   1  10
BRANCH   9  21
HETATM   21  O1  UNL     1      25.355   3.295  50.627  1.00  0.00    -0.375 OA
HETATM   22  H10 UNL     1      25.833   2.555  51.077  1.00  0.00     0.211 HD
ENDBRANCH   9  21
TORSDOF 3
ENDMDL
MODEL 4
REMARK VINA RESULT:      -7.9      3.509      6.164
REMARK  3 active torsions:
REMARK  status: ('A' for Active; 'I' for Inactive)
REMARK    1  A    between atoms: C2_2  and  C3_3 
REMARK    2  A    between atoms: C2_2  and  C11_13 
REMARK    3  A    between atoms: C10_11  and  O1_12 
ROOT
HETATM    1  C3  UNL     1      23.963  -0.234  53.269  1.00  0.00    -0.028 C 
HETATM    2  C4  UNL     1      23.863  -0.765  54.503  1.00  0.00     0.009 C 
HETATM    3  C5  UNL     1      22.459  -0.882  54.901  1.00  0.00     0.031 C 
HETATM    4  C6  UNL     1      21.713  -0.418  53.918  1.00  0.00     0.076 C 
HETATM    5  N1  UNL     1      20.292  -0.341  53.804  1.00  0.00    -0.262 NA
HETATM    6  C7  UNL     1      19.843  -0.044  52.600  1.00  0.00     0.117 C 
HETATM    7  C8  UNL     1      20.791   0.239  51.501  1.00  0.00     0.019 C 
HETATM    8  C9  UNL     1      22.135   0.301  51.583  1.00  0.00     0.023 C 
HETATM    9  C10 UNL     1      22.609   0.115  52.919  1.00  0.00     0.144 C 
ENDROOT
BRANCH   1  10
HETATM   10  C2  UNL     1      25.085   0.108  52.358  1.00  0.00     0.051 C 
HETATM   11  C1  UNL     1      24.842   1.489  51.766  1.00  0.00     0.020 C 
BRANCH  10  12
HETATM   12  C11 UNL     1      26.418  -0.022  52.954  1.00  0.00    -0.004 A 
HETATM   13  C12 UNL     1      26.958   1.002  53.741  1.00  0.00     0.042 A 
HETATM   14 CL1  UNL     1      26.029   2.468  54.019  1.00  0.00    -0.084 Cl
HETATM   15  C13 UNL     1      28.203   0.952  54.335  1.00  0.00     0.027 A 
HETATM   16  C14 UNL     1      28.968  -0.174  54.147  1.00  0.00     0.046 A 
HETATM   17  C15 UNL     1      28.502  -1.226  53.384  1.00  0.00     0.138 A 
HETATM   18  F1  UNL     1      29.262  -2.336  53.201  1.00  0.00    -0.204 F 
HETATM   19  C16 UNL     1      27.256  -1.134  52.809  1.00  0.00     0.081 A 
HETATM   20 CL2  UNL     1      26.639  -2.456  51.834  1.00  0.00    -0.080 Cl
ENDBRANCH  10  12
ENDBRANCH   1  10
BRANCH   9  21
HETATM   21  O1  UNL     1      22.556   1.595  53.399  1.00  0.00    -0.375 OA
HETATM   22  H10 UNL     1      23.318   1.578  54.031  1.00  0.00     0.211 HD
ENDBRANCH   9  21
TORSDOF 3
ENDMDL
MODEL 5
REMARK VINA RESULT:      -7.7      2.434      3.369
REMARK  3 active torsions:
REMARK  status: ('A' for Active; 'I' for Inactive)
REMARK    1  A    between atoms: C2_2  and  C3_3 
REMARK    2  A    between atoms: C2_2  and  C11_13 
REMARK    3  A    between atoms: C10_11  and  O1_12 
ROOT
HETATM    1  C3  UNL     1      24.951   2.487  52.140  1.00  0.00    -0.028 C 
HETATM    2  C4  UNL     1      25.863   2.998  51.290  1.00  0.00     0.009 C 
HETATM    3  C5  UNL     1      27.175   2.388  51.514  1.00  0.00     0.031 C 
HETATM    4  C6  UNL     1      27.061   1.518  52.498  1.00  0.00     0.076 C 
HETATM    5  N1  UNL     1      28.039   0.650  53.071  1.00  0.00    -0.262 NA
HETATM    6  C7  UNL     1      27.560  -0.271  53.884  1.00  0.00     0.117 C 
HETATM    7  C8  UNL     1      26.115  -0.314  54.192  1.00  0.00     0.019 C 
HETATM    8  C9  UNL     1      25.170   0.553  53.778  1.00  0.00     0.023 C 
HETATM    9  C10 UNL     1      25.715   1.628  53.010  1.00  0.00     0.144 C 
ENDROOT
BRANCH   1  10
HETATM   10  C2  UNL     1      23.500   2.697  52.380  1.00  0.00     0.051 C 
HETATM   11  C1  UNL     1      23.205   4.190  52.365  1.00  0.00     0.020 C 
BRANCH  10  12
HETATM   12  C11 UNL     1      22.618   1.940  51.487  1.00  0.00    -0.004 A 
HETATM   13  C12 UNL     1      21.752   0.962  51.990  1.00  0.00     0.042 A 
HETATM   14 CL1  UNL     1      21.719   0.634  53.717  1.00  0.00    -0.084 Cl
HETATM   15  C13 UNL     1      20.894   0.210  51.215  1.00  0.00     0.027 A 
HETATM   16  C14 UNL     1      20.882   0.429  49.858  1.00  0.00     0.046 A 
HETATM   17  C15 UNL     1      21.708   1.378  49.288  1.00  0.00     0.138 A 
HETATM   18  F1  UNL     1      21.693   1.591  47.948  1.00  0.00    -0.204 F 
HETATM   19  C16 UNL     1      22.549   2.105  50.099  1.00  0.00     0.081 A 
HETATM   20 CL2  UNL     1      23.610   3.317  49.402  1.00  0.00    -0.080 Cl
ENDBRANCH  10  12
ENDBRANCH   1  10
BRANCH   9  21
HETATM   21  O1  UNL     1      26.043   2.610  54.173  1.00  0.00    -0.375 OA
HETATM   22  H10 UNL     1      25.129   2.939  54.358  1.00  0.00     0.211 HD
ENDBRANCH   9  21
TORSDOF 3
ENDMDL
MODEL 6
REMARK VINA RESULT:      -7.6      3.192      4.384
REMARK  3 active torsions:
REMARK  status: ('A' for Active; 'I' for Inactive)
REMARK    1  A    between atoms: C2_2  and  C3_3 
REMARK    2  A    between atoms: C2_2  and  C11_13 
REMARK    3  A    between atoms: C10_11  and  O1_12 
ROOT
HETATM    1  C3  UNL     1      24.844   2.548  51.700  1.00  0.00    -0.028 C 
HETATM    2  C4  UNL     1      25.909   3.001  51.013  1.00  0.00     0.009 C 
HETATM    3  C5  UNL     1      27.143   2.390  51.512  1.00  0.00     0.031 C 
HETATM    4  C6  UNL     1      26.828   1.577  52.500  1.00  0.00     0.076 C 
HETATM    5  N1  UNL     1      27.663   0.732  53.292  1.00  0.00    -0.262 NA
HETATM    6  C7  UNL     1      27.020  -0.139  54.047  1.00  0.00     0.117 C 
HETATM    7  C8  UNL     1      25.542  -0.150  54.077  1.00  0.00     0.019 C 
HETATM    8  C9  UNL     1      24.710   0.703  53.448  1.00  0.00     0.023 C 
HETATM    9  C10 UNL     1      25.412   1.730  52.742  1.00  0.00     0.144 C 
ENDROOT
BRANCH   1  10
HETATM   10  C2  UNL     1      23.378   2.786  51.650  1.00  0.00     0.051 C 
HETATM   11  C1  UNL     1      23.090   4.209  52.103  1.00  0.00     0.020 C 
BRANCH  10  12
HETATM   12  C11 UNL     1      22.752   2.466  50.365  1.00  0.00    -0.004 A 
HETATM   13  C12 UNL     1      21.982   1.308  50.206  1.00  0.00     0.042 A 
HETATM   14 CL1  UNL     1      21.762   0.217  51.567  1.00  0.00    -0.084 Cl
HETATM   15  C13 UNL     1      21.361   0.941  49.030  1.00  0.00     0.027 A 
HETATM   16  C14 UNL     1      21.503   1.761  47.936  1.00  0.00     0.046 A 
HETATM   17  C15 UNL     1      22.247   2.922  48.015  1.00  0.00     0.138 A 
HETATM   18  F1  UNL     1      22.384   3.728  46.933  1.00  0.00    -0.204 F 
HETATM   19  C16 UNL     1      22.849   3.249  49.208  1.00  0.00     0.081 A 
HETATM   20 CL2  UNL     1      23.801   4.718  49.337  1.00  0.00    -0.080 Cl
ENDBRANCH  10  12
ENDBRANCH   1  10
BRANCH   9  21
HETATM   21  O1  UNL     1      25.536   2.770  53.894  1.00  0.00    -0.375 OA
HETATM   22  H10 UNL     1      26.193   2.294  54.460  1.00  0.00     0.211 HD
ENDBRANCH   9  21
TORSDOF 3
ENDMDL
MODEL 7
REMARK VINA RESULT:      -7.6      3.555      5.521
REMARK  3 active torsions:
REMARK  status: ('A' for Active; 'I' for Inactive)
REMARK    1  A    between atoms: C2_2  and  C3_3 
REMARK    2  A    between atoms: C2_2  and  C11_13 
REMARK    3  A    between atoms: C10_11  and  O1_12 
ROOT
HETATM    1  C3  UNL     1      21.890   0.782  52.770  1.00  0.00    -0.028 C 
HETATM    2  C4  UNL     1      20.759   0.736  53.500  1.00  0.00     0.009 C 
HETATM    3  C5  UNL     1      20.957  -0.068  54.707  1.00  0.00     0.031 C 
HETATM    4  C6  UNL     1      22.198  -0.513  54.706  1.00  0.00     0.076 C 
HETATM    5  N1  UNL     1      22.886  -1.310  55.670  1.00  0.00    -0.262 NA
HETATM    6  C7  UNL     1      24.192  -1.392  55.498  1.00  0.00     0.117 C 
HETATM    7  C8  UNL     1      24.832  -0.736  54.337  1.00  0.00     0.019 C 
HETATM    8  C9  UNL     1      24.217  -0.078  53.334  1.00  0.00     0.023 C 
HETATM    9  C10 UNL     1      22.793  -0.111  53.453  1.00  0.00     0.144 C 
ENDROOT
BRANCH   1  10
HETATM   10  C2  UNL     1      22.295   1.426  51.494  1.00  0.00     0.051 C 
HETATM   11  C1  UNL     1      21.575   0.743  50.342  1.00  0.00     0.020 C 
BRANCH  10  12
HETATM   12  C11 UNL     1      22.141   2.883  51.470  1.00  0.00    -0.004 A 
HETATM   13  C12 UNL     1      20.925   3.474  51.108  1.00  0.00     0.042 A 
HETATM   14 CL1  UNL     1      19.560   2.455  50.672  1.00  0.00    -0.084 Cl
HETATM   15  C13 UNL     1      20.703   4.835  51.062  1.00  0.00     0.027 A 
HETATM   16  C14 UNL     1      21.739   5.673  51.394  1.00  0.00     0.046 A 
HETATM   17  C15 UNL     1      22.969   5.166  51.763  1.00  0.00     0.138 A 
HETATM   18  F1  UNL     1      23.990   5.999  52.090  1.00  0.00    -0.204 F 
HETATM   19  C16 UNL     1      23.147   3.802  51.794  1.00  0.00     0.081 A 
HETATM   20 CL2  UNL     1      24.700   3.129  52.259  1.00  0.00    -0.080 Cl
ENDBRANCH  10  12
ENDBRANCH   1  10
BRANCH   9  21
HETATM   21  O1  UNL     1      22.520  -1.440  52.689  1.00  0.00    -0.375 OA
HETATM   22  H10 UNL     1      21.670  -1.191  52.248  1.00  0.00     0.211 HD
ENDBRANCH   9  21
TORSDOF 3
ENDMDL
MODEL 8
REMARK VINA RESULT:      -7.6      2.369      3.926
REMARK  3 active torsions:
REMARK  status: ('A' for Active; 'I' for Inactive)
REMARK    1  A    between atoms: C2_2  and  C3_3 
REMARK    2  A    between atoms: C2_2  and  C11_13 
REMARK    3  A    between atoms: C10_11  and  O1_12 
ROOT
HETATM    1  C3  UNL     1      24.609   2.509  51.874  1.00  0.00    -0.028 C 
HETATM    2  C4  UNL     1      25.550   2.933  51.008  1.00  0.00     0.009 C 
HETATM    3  C5  UNL     1      26.791   2.177  51.185  1.00  0.00     0.031 C 
HETATM    4  C6  UNL     1      26.606   1.305  52.156  1.00  0.00     0.076 C 
HETATM    5  N1  UNL     1      27.495   0.322  52.686  1.00  0.00    -0.262 NA
HETATM    6  C7  UNL     1      26.937  -0.558  53.496  1.00  0.00     0.117 C 
HETATM    7  C8  UNL     1      25.504  -0.446  53.842  1.00  0.00     0.019 C 
HETATM    8  C9  UNL     1      24.651   0.529  53.470  1.00  0.00     0.023 C 
HETATM    9  C10 UNL     1      25.294   1.553  52.707  1.00  0.00     0.144 C 
ENDROOT
BRANCH   1  10
HETATM   10  C2  UNL     1      23.197   2.874  52.157  1.00  0.00     0.051 C 
HETATM   11  C1  UNL     1      23.059   4.389  52.127  1.00  0.00     0.020 C 
BRANCH  10  12
HETATM   12  C11 UNL     1      22.211   2.203  51.305  1.00  0.00    -0.004 A 
HETATM   13  C12 UNL     1      22.155   2.455  49.929  1.00  0.00     0.042 A 
HETATM   14 CL1  UNL     1      23.283   3.595  49.209  1.00  0.00    -0.084 Cl
HETATM   15  C13 UNL     1      21.258   1.862  49.065  1.00  0.00     0.027 A 
HETATM   16  C14 UNL     1      20.355   0.964  49.581  1.00  0.00     0.046 A 
HETATM   17  C15 UNL     1      20.349   0.663  50.928  1.00  0.00     0.138 A 
HETATM   18  F1  UNL     1      19.455  -0.226  51.433  1.00  0.00    -0.204 F 
HETATM   19  C16 UNL     1      21.261   1.277  51.754  1.00  0.00     0.081 A 
HETATM   20 CL2  UNL     1      21.275   0.914  53.471  1.00  0.00    -0.080 Cl
ENDBRANCH  10  12
ENDBRANCH   1  10
BRANCH   9  21
HETATM   21  O1  UNL     1      25.759   2.468  53.877  1.00  0.00    -0.375 OA
HETATM   22  H10 UNL     1      24.899   2.545  54.362  1.00  0.00     0.211 HD
ENDBRANCH   9  21
TORSDOF 3
ENDMDL
MODEL 9
REMARK VINA RESULT:      -7.5      4.571      6.799
REMARK  3 active torsions:
REMARK  status: ('A' for Active; 'I' for Inactive)
REMARK    1  A    between atoms: C2_2  and  C3_3 
REMARK    2  A    between atoms: C2_2  and  C11_13 
REMARK    3  A    between atoms: C10_11  and  O1_12 
ROOT
HETATM    1  C3  UNL     1      22.697   2.314  50.284  1.00  0.00    -0.028 C 
HETATM    2  C4  UNL     1      22.012   1.178  50.049  1.00  0.00     0.009 C 
HETATM    3  C5  UNL     1      21.274   1.274  48.788  1.00  0.00     0.031 C 
HETATM    4  C6  UNL     1      21.504   2.462  48.266  1.00  0.00     0.076 C 
HETATM    5  N1  UNL     1      21.044   3.029  47.039  1.00  0.00    -0.262 NA
HETATM    6  C7  UNL     1      21.638   4.152  46.684  1.00  0.00     0.117 C 
HETATM    7  C8  UNL     1      22.657   4.764  47.563  1.00  0.00     0.019 C 
HETATM    8  C9  UNL     1      23.039   4.340  48.784  1.00  0.00     0.023 C 
HETATM    9  C10 UNL     1      22.293   3.202  49.224  1.00  0.00     0.144 C 
ENDROOT
BRANCH   1  10
HETATM   10  C2  UNL     1      23.603   2.794  51.359  1.00  0.00     0.051 C 
HETATM   11  C1  UNL     1      22.769   3.402  52.477  1.00  0.00     0.020 C 
BRANCH  10  12
HETATM   12  C11 UNL     1      24.554   1.792  51.848  1.00  0.00    -0.004 A 
HETATM   13  C12 UNL     1      25.874   1.763  51.382  1.00  0.00     0.042 A 
HETATM   14 CL1  UNL     1      26.401   2.945  50.192  1.00  0.00    -0.084 Cl
HETATM   15  C13 UNL     1      26.826   0.853  51.794  1.00  0.00     0.027 A 
HETATM   16  C14 UNL     1      26.462  -0.091  52.724  1.00  0.00     0.046 A 
HETATM   17  C15 UNL     1      25.178  -0.126  53.231  1.00  0.00     0.138 A 
HETATM   18  F1  UNL     1      24.825  -1.061  54.149  1.00  0.00    -0.204 F 
HETATM   19  C16 UNL     1      24.261   0.800  52.792  1.00  0.00     0.081 A 
HETATM   20 CL2  UNL     1      22.622   0.779  53.418  1.00  0.00    -0.080 Cl
ENDBRANCH  10  12
ENDBRANCH   1  10
BRANCH   9  21
HETATM   21  O1  UNL     1      21.104   3.944  49.902  1.00  0.00    -0.375 OA
HETATM   22  H10 UNL     1      21.359   3.808  50.849  1.00  0.00     0.211 HD
ENDBRANCH   9  21
TORSDOF 3
ENDMDL
