MODEL 1
REMARK VINA RESULT:     -11.7      0.000      0.000
REMARK  2 active torsions:
REMARK  status: ('A' for Active; 'I' for Inactive)
REMARK    1  A    between atoms: N3_15  and  C13_16 
REMARK    2  A    between atoms: C13_16  and  C14_17 
ROOT
HETATM    1  C1  UNL     1      24.049  -0.192  53.507  1.00  0.00    -0.002 C 
HETATM    2  C2  UNL     1      22.869  -0.693  53.667  1.00  0.00    -0.007 C 
HETATM    3  C3  UNL     1      21.789  -1.464  54.280  1.00  0.00     0.147 C 
HETATM    4  N1  UNL     1      20.646  -0.582  54.632  1.00  0.00    -0.386 N 
HETATM    5  C4  UNL     1      20.279   0.120  53.429  1.00  0.00     0.029 A 
HETATM    6  C5  UNL     1      19.206  -0.291  52.627  1.00  0.00     0.029 A 
HETATM    7  C6  UNL     1      18.882   0.299  51.425  1.00  0.00     0.003 A 
HETATM    8  C7  UNL     1      19.625   1.351  50.948  1.00  0.00     0.011 A 
HETATM    9  C8  UNL     1      20.674   1.759  51.722  1.00  0.00    -0.033 A 
HETATM   10  C9  UNL     1      21.017   1.199  52.920  1.00  0.00     0.040 A 
HETATM   11  C10 UNL     1      21.686   2.774  51.321  1.00  0.00     0.030 C 
HETATM   12  C11 UNL     1      22.986   2.796  51.057  1.00  0.00     0.120 C 
HETATM   13  N2  UNL     1      24.361   2.907  50.760  1.00  0.00    -0.241 N 
HETATM   14  C12 UNL     1      25.360   2.533  51.422  1.00  0.00     0.149 A 
HETATM   15  N3  UNL     1      25.282   3.195  50.163  1.00  0.00    -0.241 N 
HETATM   16  C19 UNL     1      26.412   2.028  52.236  1.00  0.00     0.064 C 
HETATM   17  C20 UNL     1      27.031   1.302  53.123  1.00  0.00    -0.022 A 
HETATM   18  C21 UNL     1      28.343   1.709  53.175  1.00  0.00     0.012 A 
HETATM   19  C22 UNL     1      29.138   1.162  54.148  1.00  0.00     0.001 A 
HETATM   20  C23 UNL     1      28.616   0.259  55.009  1.00  0.00     0.001 A 
HETATM   21  C24 UNL     1      27.313  -0.158  54.966  1.00  0.00     0.012 A 
HETATM   22  C25 UNL     1      26.514   0.384  53.991  1.00  0.00    -0.026 A 
HETATM   23  C26 UNL     1      25.333  -0.161  54.076  1.00  0.00     0.012 C 
HETATM   24  H5  UNL     1      19.895  -0.096  55.149  1.00  0.00     0.160 HD
ENDROOT
BRANCH  15  25
HETATM   25  C13 UNL     1      26.374   3.369  49.426  1.00  0.00     0.132 C 
BRANCH  25  26
HETATM   26  C14 UNL     1      26.700   4.716  48.985  1.00  0.00    -0.001 A 
HETATM   27  C15 UNL     1      27.962   5.059  48.538  1.00  0.00     0.016 A 
HETATM   28  C16 UNL     1      28.197   6.357  48.137  1.00  0.00     0.020 A 
HETATM   29  C17 UNL     1      27.238   7.372  48.148  1.00  0.00     0.116 A 
HETATM   30  N4  UNL     1      26.033   6.972  48.593  1.00  0.00    -0.272 NA
HETATM   31  C18 UNL     1      25.755   5.719  48.995  1.00  0.00     0.129 A 
ENDBRANCH  25  26
ENDBRANCH  15  25
TORSDOF 2
ENDMDL
MODEL 2
REMARK VINA RESULT:     -10.2      2.033      5.631
REMARK  2 active torsions:
REMARK  status: ('A' for Active; 'I' for Inactive)
REMARK    1  A    between atoms: N3_15  and  C13_16 
REMARK    2  A    between atoms: C13_16  and  C14_17 
ROOT
HETATM    1  C1  UNL     1      22.645   1.549  51.377  1.00  0.00    -0.002 C 
HETATM    2  C2  UNL     1      22.743   0.816  52.436  1.00  0.00    -0.007 C 
HETATM    3  C3  UNL     1      22.373  -0.175  53.445  1.00  0.00     0.147 C 
HETATM    4  N1  UNL     1      23.379  -1.266  53.505  1.00  0.00    -0.386 N 
HETATM    5  C4  UNL     1      24.659  -0.638  53.717  1.00  0.00     0.029 A 
HETATM    6  C5  UNL     1      25.246  -0.558  54.987  1.00  0.00     0.029 A 
HETATM    7  C6  UNL     1      26.422   0.112  55.244  1.00  0.00     0.003 A 
HETATM    8  C7  UNL     1      27.088   0.753  54.228  1.00  0.00     0.011 A 
HETATM    9  C8  UNL     1      26.524   0.682  52.986  1.00  0.00    -0.033 A 
HETATM   10  C9  UNL     1      25.363   0.021  52.699  1.00  0.00     0.040 A 
HETATM   11  C10 UNL     1      27.001   1.425  51.788  1.00  0.00     0.030 C 
HETATM   12  C11 UNL     1      26.546   2.390  51.000  1.00  0.00     0.120 C 
HETATM   13  N2  UNL     1      26.137   3.410  50.114  1.00  0.00    -0.241 N 
HETATM   14  C12 UNL     1      25.074   3.526  49.457  1.00  0.00     0.149 A 
HETATM   15  N3  UNL     1      26.217   4.375  49.522  1.00  0.00    -0.241 N 
HETATM   16  C19 UNL     1      23.815   3.575  48.797  1.00  0.00     0.064 C 
HETATM   17  C20 UNL     1      22.557   3.349  48.544  1.00  0.00    -0.022 A 
HETATM   18  C21 UNL     1      22.224   4.007  47.384  1.00  0.00     0.012 A 
HETATM   19  C22 UNL     1      20.975   3.786  46.866  1.00  0.00     0.001 A 
HETATM   20  C23 UNL     1      20.126   2.944  47.501  1.00  0.00     0.001 A 
HETATM   21  C24 UNL     1      20.443   2.287  48.659  1.00  0.00     0.012 A 
HETATM   22  C25 UNL     1      21.691   2.508  49.183  1.00  0.00    -0.026 A 
HETATM   23  C26 UNL     1      21.794   1.840  50.298  1.00  0.00     0.012 C 
HETATM   24  H5  UNL     1      23.832  -2.195  53.505  1.00  0.00     0.160 HD
ENDROOT
BRANCH  15  25
HETATM   25  C13 UNL     1      26.201   5.569  48.941  1.00  0.00     0.132 C 
BRANCH  25  26
HETATM   26  C14 UNL     1      27.472   6.164  48.557  1.00  0.00    -0.001 A 
HETATM   27  C15 UNL     1      28.594   5.401  48.296  1.00  0.00     0.016 A 
HETATM   28  C16 UNL     1      29.764   6.035  47.939  1.00  0.00     0.020 A 
HETATM   29  C17 UNL     1      29.905   7.420  47.816  1.00  0.00     0.116 A 
HETATM   30  N4  UNL     1      28.777   8.103  48.082  1.00  0.00    -0.272 NA
HETATM   31  C18 UNL     1      27.613   7.530  48.435  1.00  0.00     0.129 A 
ENDBRANCH  25  26
ENDBRANCH  15  25
TORSDOF 2
ENDMDL
MODEL 3
REMARK VINA RESULT:     -10.1      2.491      6.091
REMARK  2 active torsions:
REMARK  status: ('A' for Active; 'I' for Inactive)
REMARK    1  A    between atoms: N3_15  and  C13_16 
REMARK    2  A    between atoms: C13_16  and  C14_17 
ROOT
HETATM    1  C1  UNL     1      20.779   1.812  50.614  1.00  0.00    -0.002 C 
HETATM    2  C2  UNL     1      20.185   2.573  49.755  1.00  0.00    -0.007 C 
HETATM    3  C3  UNL     1      19.086   3.218  49.039  1.00  0.00     0.147 C 
HETATM    4  N1  UNL     1      19.167   4.695  49.171  1.00  0.00    -0.386 N 
HETATM    5  C4  UNL     1      20.484   5.078  48.728  1.00  0.00     0.029 A 
HETATM    6  C5  UNL     1      20.720   5.574  47.439  1.00  0.00     0.029 A 
HETATM    7  C6  UNL     1      21.975   5.865  46.950  1.00  0.00     0.003 A 
HETATM    8  C7  UNL     1      23.084   5.673  47.736  1.00  0.00     0.011 A 
HETATM    9  C8  UNL     1      22.866   5.190  48.996  1.00  0.00    -0.033 A 
HETATM   10  C9  UNL     1      21.634   4.898  49.510  1.00  0.00     0.040 A 
HETATM   11  C10 UNL     1      23.932   4.774  49.948  1.00  0.00     0.030 C 
HETATM   12  C11 UNL     1      24.341   3.647  50.513  1.00  0.00     0.120 C 
HETATM   13  N2  UNL     1      24.840   2.494  51.157  1.00  0.00    -0.241 N 
HETATM   14  C12 UNL     1      24.237   1.629  51.838  1.00  0.00     0.149 A 
HETATM   15  N3  UNL     1      25.616   1.739  51.496  1.00  0.00    -0.241 N 
HETATM   16  C19 UNL     1      23.445   0.688  52.553  1.00  0.00     0.064 C 
HETATM   17  C20 UNL     1      22.401   0.011  52.938  1.00  0.00    -0.022 A 
HETATM   18  C21 UNL     1      22.790  -0.859  53.929  1.00  0.00     0.012 A 
HETATM   19  C22 UNL     1      21.810  -1.571  54.569  1.00  0.00     0.001 A 
HETATM   20  C23 UNL     1      20.516  -1.398  54.211  1.00  0.00     0.001 A 
HETATM   21  C24 UNL     1      20.115  -0.539  53.224  1.00  0.00     0.012 A 
HETATM   22  C25 UNL     1      21.093   0.172  52.578  1.00  0.00    -0.026 A 
HETATM   23  C26 UNL     1      20.532   0.895  51.649  1.00  0.00     0.012 C 
HETATM   24  H5  UNL     1      18.940   5.685  49.360  1.00  0.00     0.160 HD
ENDROOT
BRANCH  15  25
HETATM   25  C13 UNL     1      26.459   0.751  51.776  1.00  0.00     0.132 C 
BRANCH  25  26
HETATM   26  C14 UNL     1      27.495   0.991  52.769  1.00  0.00    -0.001 A 
HETATM   27  C15 UNL     1      28.199  -0.040  53.363  1.00  0.00     0.016 A 
HETATM   28  C16 UNL     1      29.165   0.264  54.297  1.00  0.00     0.020 A 
HETATM   29  C17 UNL     1      29.495   1.562  54.698  1.00  0.00     0.116 A 
HETATM   30  N4  UNL     1      28.775   2.517  54.082  1.00  0.00    -0.272 NA
HETATM   31  C18 UNL     1      27.822   2.270  53.166  1.00  0.00     0.129 A 
ENDBRANCH  25  26
ENDBRANCH  15  25
TORSDOF 2
ENDMDL
MODEL 4
REMARK VINA RESULT:      -9.9      2.659      7.171
REMARK  2 active torsions:
REMARK  status: ('A' for Active; 'I' for Inactive)
REMARK    1  A    between atoms: N3_15  and  C13_16 
REMARK    2  A    between atoms: C13_16  and  C14_17 
ROOT
HETATM    1  C1  UNL     1      20.207   2.308  50.930  1.00  0.00    -0.002 C 
HETATM    2  C2  UNL     1      20.123   3.351  50.173  1.00  0.00    -0.007 C 
HETATM    3  C3  UNL     1      19.509   4.380  49.335  1.00  0.00     0.147 C 
HETATM    4  N1  UNL     1      19.745   5.732  49.902  1.00  0.00    -0.386 N 
HETATM    5  C4  UNL     1      21.169   5.866  50.075  1.00  0.00     0.029 A 
HETATM    6  C5  UNL     1      21.970   6.545  49.148  1.00  0.00     0.029 A 
HETATM    7  C6  UNL     1      23.343   6.616  49.233  1.00  0.00     0.003 A 
HETATM    8  C7  UNL     1      24.005   6.001  50.267  1.00  0.00     0.011 A 
HETATM    9  C8  UNL     1      23.233   5.335  51.177  1.00  0.00    -0.033 A 
HETATM   10  C9  UNL     1      21.870   5.252  51.123  1.00  0.00     0.040 A 
HETATM   11  C10 UNL     1      23.757   4.484  52.280  1.00  0.00     0.030 C 
HETATM   12  C11 UNL     1      23.737   3.199  52.606  1.00  0.00     0.120 C 
HETATM   13  N2  UNL     1      23.763   1.851  53.026  1.00  0.00    -0.241 N 
HETATM   14  C12 UNL     1      22.820   1.037  53.177  1.00  0.00     0.149 A 
HETATM   15  N3  UNL     1      24.220   0.876  53.384  1.00  0.00    -0.241 N 
HETATM   16  C19 UNL     1      21.680   0.191  53.270  1.00  0.00     0.064 C 
HETATM   17  C20 UNL     1      20.483  -0.276  53.056  1.00  0.00    -0.022 A 
HETATM   18  C21 UNL     1      20.312  -1.401  53.828  1.00  0.00     0.012 A 
HETATM   19  C22 UNL     1      19.066  -1.969  53.855  1.00  0.00     0.001 A 
HETATM   20  C23 UNL     1      18.063  -1.415  53.134  1.00  0.00     0.001 A 
HETATM   21  C24 UNL     1      18.220  -0.299  52.357  1.00  0.00     0.012 A 
HETATM   22  C25 UNL     1      19.467   0.271  52.325  1.00  0.00    -0.026 A 
HETATM   23  C26 UNL     1      19.436   1.284  51.506  1.00  0.00     0.012 C 
HETATM   24  H5  UNL     1      19.606   6.686  50.274  1.00  0.00     0.160 HD
ENDROOT
BRANCH  15  25
HETATM   25  C13 UNL     1      24.727  -0.323  53.647  1.00  0.00     0.132 C 
BRANCH  25  26
HETATM   26  C14 UNL     1      26.171  -0.447  53.778  1.00  0.00    -0.001 A 
HETATM   27  C15 UNL     1      26.935  -1.158  52.873  1.00  0.00     0.016 A 
HETATM   28  C16 UNL     1      28.298  -1.233  53.064  1.00  0.00     0.020 A 
HETATM   29  C17 UNL     1      28.980  -0.631  54.124  1.00  0.00     0.116 A 
HETATM   30  N4  UNL     1      28.179   0.045  54.967  1.00  0.00    -0.272 NA
HETATM   31  C18 UNL     1      26.846   0.146  54.823  1.00  0.00     0.129 A 
ENDBRANCH  25  26
ENDBRANCH  15  25
TORSDOF 2
ENDMDL
MODEL 5
REMARK VINA RESULT:      -9.9      3.016      5.913
REMARK  2 active torsions:
REMARK  status: ('A' for Active; 'I' for Inactive)
REMARK    1  A    between atoms: N3_15  and  C13_16 
REMARK    2  A    between atoms: C13_16  and  C14_17 
ROOT
HETATM    1  C1  UNL     1      26.126   3.036  50.262  1.00  0.00    -0.002 C 
HETATM    2  C2  UNL     1      26.206   1.952  50.961  1.00  0.00    -0.007 C 
HETATM    3  C3  UNL     1      26.822   0.834  51.672  1.00  0.00     0.147 C 
HETATM    4  N1  UNL     1      26.431   0.840  53.104  1.00  0.00    -0.386 N 
HETATM    5  C4  UNL     1      24.991   0.858  53.140  1.00  0.00     0.029 A 
HETATM    6  C5  UNL     1      24.238  -0.306  53.345  1.00  0.00     0.029 A 
HETATM    7  C6  UNL     1      22.861  -0.344  53.295  1.00  0.00     0.003 A 
HETATM    8  C7  UNL     1      22.148   0.800  53.033  1.00  0.00     0.011 A 
HETATM    9  C8  UNL     1      22.872   1.940  52.831  1.00  0.00    -0.033 A 
HETATM   10  C9  UNL     1      24.236   2.011  52.879  1.00  0.00     0.040 A 
HETATM   11  C10 UNL     1      22.306   3.244  52.389  1.00  0.00     0.030 C 
HETATM   12  C11 UNL     1      22.389   4.026  51.321  1.00  0.00     0.120 C 
HETATM   13  N2  UNL     1      22.422   4.914  50.225  1.00  0.00    -0.241 N 
HETATM   14  C12 UNL     1      23.403   5.419  49.627  1.00  0.00     0.149 A 
HETATM   15  N3  UNL     1      22.005   5.578  49.404  1.00  0.00    -0.241 N 
HETATM   16  C19 UNL     1      24.588   5.894  49.000  1.00  0.00     0.064 C 
HETATM   17  C20 UNL     1      25.832   5.948  48.617  1.00  0.00    -0.022 A 
HETATM   18  C21 UNL     1      26.008   7.093  47.876  1.00  0.00     0.012 A 
HETATM   19  C22 UNL     1      27.284   7.410  47.492  1.00  0.00     0.001 A 
HETATM   20  C23 UNL     1      28.310   6.602  47.848  1.00  0.00     0.001 A 
HETATM   21  C24 UNL     1      28.149   5.457  48.581  1.00  0.00     0.012 A 
HETATM   22  C25 UNL     1      26.872   5.134  48.964  1.00  0.00    -0.026 A 
HETATM   23  C26 UNL     1      26.909   4.001  49.607  1.00  0.00     0.012 C 
HETATM   24  H5  UNL     1      26.460   0.838  54.137  1.00  0.00     0.160 HD
ENDROOT
BRANCH  15  25
HETATM   25  C13 UNL     1      21.565   6.235  48.337  1.00  0.00     0.132 C 
BRANCH  25  26
HETATM   26  C14 UNL     1      21.362   5.489  47.104  1.00  0.00    -0.001 A 
HETATM   27  C15 UNL     1      22.085   5.753  45.956  1.00  0.00     0.016 A 
HETATM   28  C16 UNL     1      21.836   5.005  44.826  1.00  0.00     0.020 A 
HETATM   29  C17 UNL     1      20.891   3.979  44.750  1.00  0.00     0.116 A 
HETATM   30  N4  UNL     1      20.224   3.773  45.900  1.00  0.00    -0.272 NA
HETATM   31  C18 UNL     1      20.430   4.476  47.028  1.00  0.00     0.129 A 
ENDBRANCH  25  26
ENDBRANCH  15  25
TORSDOF 2
ENDMDL
MODEL 6
REMARK VINA RESULT:      -9.9      2.738      6.530
REMARK  2 active torsions:
REMARK  status: ('A' for Active; 'I' for Inactive)
REMARK    1  A    between atoms: N3_15  and  C13_16 
REMARK    2  A    between atoms: C13_16  and  C14_17 
ROOT
HETATM    1  C1  UNL     1      22.825  -0.187  53.741  1.00  0.00    -0.002 C 
HETATM    2  C2  UNL     1      24.025  -0.348  54.192  1.00  0.00    -0.007 C 
HETATM    3  C3  UNL     1      25.140  -0.971  54.902  1.00  0.00     0.147 C 
HETATM    4  N1  UNL     1      26.252  -1.282  53.968  1.00  0.00    -0.386 N 
HETATM    5  C4  UNL     1      26.579  -0.054  53.289  1.00  0.00     0.029 A 
HETATM    6  C5  UNL     1      27.658   0.748  53.684  1.00  0.00     0.029 A 
HETATM    7  C6  UNL     1      27.947   1.971  53.119  1.00  0.00     0.003 A 
HETATM    8  C7  UNL     1      27.159   2.471  52.112  1.00  0.00     0.011 A 
HETATM    9  C8  UNL     1      26.104   1.697  51.719  1.00  0.00    -0.033 A 
HETATM   10  C9  UNL     1      25.795   0.478  52.255  1.00  0.00     0.040 A 
HETATM   11  C10 UNL     1      25.049   2.116  50.756  1.00  0.00     0.030 C 
HETATM   12  C11 UNL     1      23.747   2.366  50.791  1.00  0.00     0.120 C 
HETATM   13  N2  UNL     1      22.365   2.649  50.742  1.00  0.00    -0.241 N 
HETATM   14  C12 UNL     1      21.389   1.964  51.133  1.00  0.00     0.149 A 
HETATM   15  N3  UNL     1      21.428   3.244  50.507  1.00  0.00    -0.241 N 
HETATM   16  C19 UNL     1      20.366   1.122  51.651  1.00  0.00     0.064 C 
HETATM   17  C20 UNL     1      19.784   0.207  52.373  1.00  0.00    -0.022 A 
HETATM   18  C21 UNL     1      18.458   0.152  52.015  1.00  0.00     0.012 A 
HETATM   19  C22 UNL     1      17.695  -0.847  52.561  1.00  0.00     0.001 A 
HETATM   20  C23 UNL     1      18.261  -1.729  53.417  1.00  0.00     0.001 A 
HETATM   21  C24 UNL     1      19.578  -1.683  53.785  1.00  0.00     0.012 A 
HETATM   22  C25 UNL     1      20.345  -0.682  53.244  1.00  0.00    -0.026 A 
HETATM   23  C26 UNL     1      21.547  -0.770  53.741  1.00  0.00     0.012 C 
HETATM   24  H5  UNL     1      26.989  -1.775  53.438  1.00  0.00     0.160 HD
ENDROOT
BRANCH  15  25
HETATM   25  C13 UNL     1      20.322   3.972  50.397  1.00  0.00     0.132 C 
BRANCH  25  26
HETATM   26  C14 UNL     1      20.458   5.414  50.255  1.00  0.00    -0.001 A 
HETATM   27  C15 UNL     1      21.488   6.118  50.850  1.00  0.00     0.016 A 
HETATM   28  C16 UNL     1      21.552   7.483  50.672  1.00  0.00     0.020 A 
HETATM   29  C17 UNL     1      20.636   8.224  49.922  1.00  0.00     0.116 A 
HETATM   30  N4  UNL     1      19.661   7.479  49.370  1.00  0.00    -0.272 NA
HETATM   31  C18 UNL     1      19.557   6.147  49.515  1.00  0.00     0.129 A 
ENDBRANCH  25  26
ENDBRANCH  15  25
TORSDOF 2
ENDMDL
MODEL 7
REMARK VINA RESULT:      -9.7      1.932      5.937
REMARK  2 active torsions:
REMARK  status: ('A' for Active; 'I' for Inactive)
REMARK    1  A    between atoms: N3_15  and  C13_16 
REMARK    2  A    between atoms: C13_16  and  C14_17 
ROOT
HETATM    1  C1  UNL     1      23.299   0.511  53.056  1.00  0.00    -0.002 C 
HETATM    2  C2  UNL     1      24.235   0.031  53.806  1.00  0.00    -0.007 C 
HETATM    3  C3  UNL     1      24.914  -0.892  54.713  1.00  0.00     0.147 C 
HETATM    4  N1  UNL     1      26.168  -1.404  54.103  1.00  0.00    -0.386 N 
HETATM    5  C4  UNL     1      26.944  -0.250  53.725  1.00  0.00     0.029 A 
HETATM    6  C5  UNL     1      27.991   0.234  54.520  1.00  0.00     0.029 A 
HETATM    7  C6  UNL     1      28.696   1.384  54.237  1.00  0.00     0.003 A 
HETATM    8  C7  UNL     1      28.387   2.128  53.125  1.00  0.00     0.011 A 
HETATM    9  C8  UNL     1      27.367   1.665  52.343  1.00  0.00    -0.033 A 
HETATM   10  C9  UNL     1      26.654   0.526  52.593  1.00  0.00     0.040 A 
HETATM   11  C10 UNL     1      26.780   2.393  51.185  1.00  0.00     0.030 C 
HETATM   12  C11 UNL     1      25.617   2.952  50.879  1.00  0.00     0.120 C 
HETATM   13  N2  UNL     1      24.413   3.568  50.474  1.00  0.00    -0.241 N 
HETATM   14  C12 UNL     1      23.241   3.119  50.469  1.00  0.00     0.149 A 
HETATM   15  N3  UNL     1      23.745   4.389  50.064  1.00  0.00    -0.241 N 
HETATM   16  C19 UNL     1      21.953   2.521  50.550  1.00  0.00     0.064 C 
HETATM   17  C20 UNL     1      20.994   1.729  50.940  1.00  0.00    -0.022 A 
HETATM   18  C21 UNL     1      19.866   2.025  50.212  1.00  0.00     0.012 A 
HETATM   19  C22 UNL     1      18.777   1.210  50.372  1.00  0.00     0.001 A 
HETATM   20  C23 UNL     1      18.845   0.161  51.224  1.00  0.00     0.001 A 
HETATM   21  C24 UNL     1      19.960  -0.142  51.958  1.00  0.00     0.012 A 
HETATM   22  C25 UNL     1      21.052   0.674  51.804  1.00  0.00    -0.026 A 
HETATM   23  C26 UNL     1      21.991   0.261  52.608  1.00  0.00     0.012 C 
HETATM   24  H5  UNL     1      26.911  -2.026  53.745  1.00  0.00     0.160 HD
ENDROOT
BRANCH  15  25
HETATM   25  C13 UNL     1      22.911   5.371  49.744  1.00  0.00     0.132 C 
BRANCH  25  26
HETATM   26  C14 UNL     1      23.466   6.581  49.156  1.00  0.00    -0.001 A 
HETATM   27  C15 UNL     1      24.471   6.545  48.207  1.00  0.00     0.016 A 
HETATM   28  C16 UNL     1      24.947   7.733  47.696  1.00  0.00     0.020 A 
HETATM   29  C17 UNL     1      24.482   8.996  48.070  1.00  0.00     0.116 A 
HETATM   30  N4  UNL     1      23.505   8.960  48.994  1.00  0.00    -0.272 NA
HETATM   31  C18 UNL     1      23.008   7.828  49.523  1.00  0.00     0.129 A 
ENDBRANCH  25  26
ENDBRANCH  15  25
TORSDOF 2
ENDMDL
MODEL 8
REMARK VINA RESULT:      -9.7      3.406      6.149
REMARK  2 active torsions:
REMARK  status: ('A' for Active; 'I' for Inactive)
REMARK    1  A    between atoms: N3_15  and  C13_16 
REMARK    2  A    between atoms: C13_16  and  C14_17 
ROOT
HETATM    1  C1  UNL     1      26.051   2.992  50.226  1.00  0.00    -0.002 C 
HETATM    2  C2  UNL     1      26.154   1.895  50.901  1.00  0.00    -0.007 C 
HETATM    3  C3  UNL     1      26.792   0.771  51.583  1.00  0.00     0.147 C 
HETATM    4  N1  UNL     1      26.412   0.740  53.018  1.00  0.00    -0.386 N 
HETATM    5  C4  UNL     1      24.972   0.736  53.065  1.00  0.00     0.029 A 
HETATM    6  C5  UNL     1      24.239  -0.444  53.251  1.00  0.00     0.029 A 
HETATM    7  C6  UNL     1      22.863  -0.501  53.211  1.00  0.00     0.003 A 
HETATM    8  C7  UNL     1      22.130   0.637  52.979  1.00  0.00     0.011 A 
HETATM    9  C8  UNL     1      22.835   1.792  52.796  1.00  0.00    -0.033 A 
HETATM   10  C9  UNL     1      24.198   1.883  52.835  1.00  0.00     0.040 A 
HETATM   11  C10 UNL     1      22.246   3.097  52.387  1.00  0.00     0.030 C 
HETATM   12  C11 UNL     1      22.308   3.902  51.335  1.00  0.00     0.120 C 
HETATM   13  N2  UNL     1      22.319   4.814  50.258  1.00  0.00    -0.241 N 
HETATM   14  C12 UNL     1      23.288   5.346  49.664  1.00  0.00     0.149 A 
HETATM   15  N3  UNL     1      21.886   5.489  49.455  1.00  0.00    -0.241 N 
HETATM   16  C19 UNL     1      24.461   5.853  49.038  1.00  0.00     0.064 C 
HETATM   17  C20 UNL     1      25.701   5.934  48.646  1.00  0.00    -0.022 A 
HETATM   18  C21 UNL     1      25.853   7.097  47.929  1.00  0.00     0.012 A 
HETATM   19  C22 UNL     1      27.122   7.442  47.543  1.00  0.00     0.001 A 
HETATM   20  C23 UNL     1      28.163   6.642  47.873  1.00  0.00     0.001 A 
HETATM   21  C24 UNL     1      28.024   5.480  48.583  1.00  0.00     0.012 A 
HETATM   22  C25 UNL     1      26.755   5.129  48.968  1.00  0.00    -0.026 A 
HETATM   23  C26 UNL     1      26.815   3.983  49.586  1.00  0.00     0.012 C 
HETATM   24  H5  UNL     1      26.449   0.717  54.050  1.00  0.00     0.160 HD
ENDROOT
BRANCH  15  25
HETATM   25  C13 UNL     1      21.428   6.162  48.406  1.00  0.00     0.132 C 
BRANCH  25  26
HETATM   26  C14 UNL     1      20.573   7.314  48.646  1.00  0.00    -0.001 A 
HETATM   27  C15 UNL     1      20.924   8.322  49.524  1.00  0.00     0.016 A 
HETATM   28  C16 UNL     1      20.062   9.382  49.701  1.00  0.00     0.020 A 
HETATM   29  C17 UNL     1      18.836   9.520  49.047  1.00  0.00     0.116 A 
HETATM   30  N4  UNL     1      18.555   8.507  48.207  1.00  0.00    -0.272 NA
HETATM   31  C18 UNL     1      19.363   7.452  48.001  1.00  0.00     0.129 A 
ENDBRANCH  25  26
ENDBRANCH  15  25
TORSDOF 2
ENDMDL
MODEL 9
REMARK VINA RESULT:      -9.5      3.019      7.701
REMARK  2 active torsions:
REMARK  status: ('A' for Active; 'I' for Inactive)
REMARK    1  A    between atoms: N3_15  and  C13_16 
REMARK    2  A    between atoms: C13_16  and  C14_17 
ROOT
HETATM    1  C1  UNL     1      23.920   1.919  52.091  1.00  0.00    -0.002 C 
HETATM    2  C2  UNL     1      25.002   2.494  51.681  1.00  0.00    -0.007 C 
HETATM    3  C3  UNL     1      26.431   2.701  51.452  1.00  0.00     0.147 C 
HETATM    4  N1  UNL     1      26.726   2.784  49.999  1.00  0.00    -0.386 N 
HETATM    5  C4  UNL     1      25.872   3.813  49.461  1.00  0.00     0.029 A 
HETATM    6  C5  UNL     1      26.335   5.115  49.229  1.00  0.00     0.029 A 
HETATM    7  C6  UNL     1      25.529   6.147  48.802  1.00  0.00     0.003 A 
HETATM    8  C7  UNL     1      24.191   5.933  48.580  1.00  0.00     0.011 A 
HETATM    9  C8  UNL     1      23.729   4.667  48.804  1.00  0.00    -0.033 A 
HETATM   10  C9  UNL     1      24.504   3.621  49.222  1.00  0.00     0.040 A 
HETATM   11  C10 UNL     1      22.297   4.261  48.768  1.00  0.00     0.030 C 
HETATM   12  C11 UNL     1      21.391   3.822  49.631  1.00  0.00     0.120 C 
HETATM   13  N2  UNL     1      20.368   3.351  50.483  1.00  0.00    -0.241 N 
HETATM   14  C12 UNL     1      20.367   2.381  51.279  1.00  0.00     0.149 A 
HETATM   15  N3  UNL     1      19.342   3.320  50.966  1.00  0.00    -0.241 N 
HETATM   16  C19 UNL     1      20.496   1.287  52.179  1.00  0.00     0.064 C 
HETATM   17  C20 UNL     1      21.053   0.400  52.954  1.00  0.00    -0.022 A 
HETATM   18  C21 UNL     1      20.064  -0.396  53.481  1.00  0.00     0.012 A 
HETATM   19  C22 UNL     1      20.451  -1.484  54.218  1.00  0.00     0.001 A 
HETATM   20  C23 UNL     1      21.768  -1.735  54.400  1.00  0.00     0.001 A 
HETATM   21  C24 UNL     1      22.763  -0.948  53.885  1.00  0.00     0.012 A 
HETATM   22  C25 UNL     1      22.380   0.144  53.149  1.00  0.00    -0.026 A 
HETATM   23  C26 UNL     1      23.451   0.791  52.784  1.00  0.00     0.012 C 
HETATM   24  H5  UNL     1      27.126   2.621  49.061  1.00  0.00     0.160 HD
ENDROOT
BRANCH  15  25
HETATM   25  C13 UNL     1      18.217   3.345  51.671  1.00  0.00     0.132 C 
BRANCH  25  26
HETATM   26  C14 UNL     1      16.993   3.758  51.000  1.00  0.00    -0.001 A 
HETATM   27  C15 UNL     1      16.948   4.010  49.641  1.00  0.00     0.016 A 
HETATM   28  C16 UNL     1      15.753   4.399  49.076  1.00  0.00     0.020 A 
HETATM   29  C17 UNL     1      14.560   4.560  49.784  1.00  0.00     0.116 A 
HETATM   30  N4  UNL     1      14.673   4.299  51.099  1.00  0.00    -0.272 NA
HETATM   31  C18 UNL     1      15.815   3.917  51.697  1.00  0.00     0.129 A 
ENDBRANCH  25  26
ENDBRANCH  15  25
TORSDOF 2
ENDMDL
