MODEL 1
REMARK VINA RESULT:      -6.8      0.000      0.000
REMARK  13 active torsions:
REMARK  status: ('A' for Active; 'I' for Inactive)
REMARK    1  A    between atoms: C2_2  and  O1_3 
REMARK    2  A    between atoms: O1_3  and  C3_4 
REMARK    3  A    between atoms: C8_10  and  N2_11 
REMARK    4  A    between atoms: N2_11  and  C9_12 
REMARK    5  A    between atoms: C9_12  and  C10_13 
REMARK    6  A    between atoms: C10_13  and  C11_14 
REMARK    7  A    between atoms: C14_18  and  C15_19 
REMARK    8  A    between atoms: C15_19  and  C16_20 
REMARK    9  A    between atoms: C16_20  and  C17_21 
REMARK   10  A    between atoms: C17_21  and  N3_22 
REMARK   11  A    between atoms: N3_22  and  C19_24 
REMARK   12  A    between atoms: C19_24  and  C20_25 
REMARK   13  A    between atoms: C20_25  and  O2_26 
ROOT
HETATM    1  C3  UNL     1      25.472   5.556  48.910  1.00  0.00     0.080 C 
HETATM    2  C4  UNL     1      25.461   6.739  48.418  1.00  0.00     0.054 C 
HETATM    3  C5  UNL     1      26.079   7.861  47.808  1.00  0.00     0.089 C 
HETATM    4  N1  UNL     1      27.316   7.435  47.610  1.00  0.00    -0.372 N 
HETATM    5  C6  UNL     1      28.230   8.384  46.977  1.00  0.00     0.134 A 
HETATM    6  C7  UNL     1      28.666   7.159  47.491  1.00  0.00     0.146 A 
HETATM    7  C8  UNL     1      29.038   5.833  48.066  1.00  0.00     0.269 C 
HETATM    8  C13 UNL     1      27.926   5.066  48.606  1.00  0.00     0.024 C 
HETATM    9  C14 UNL     1      26.696   4.774  48.978  1.00  0.00    -0.005 C 
ENDROOT
BRANCH   9  10
HETATM   10  C15 UNL     1      26.548   3.468  49.554  1.00  0.00     0.011 C 
BRANCH  10  11
HETATM   11  C16 UNL     1      26.560   2.728  50.602  1.00  0.00     0.004 C 
BRANCH  11  12
HETATM   12  C17 UNL     1      26.820   2.038  51.858  1.00  0.00     0.299 C 
BRANCH  12  13
HETATM   13  N3  UNL     1      26.245   0.684  51.874  1.00  0.00     0.089 N 
HETATM   14  C18 UNL     1      24.883   0.852  52.348  1.00  0.00     0.310 C 
BRANCH  13  15
HETATM   15  C19 UNL     1      27.011  -0.154  52.791  1.00  0.00     0.298 C 
BRANCH  15  16
HETATM   16  C20 UNL     1      26.540  -0.107  54.205  1.00  0.00     0.197 C 
BRANCH  16  17
HETATM   17  O2  UNL     1      27.554  -0.273  55.112  1.00  0.00    -0.394 OA
HETATM   18  C21 UNL     1      28.811   0.023  54.619  1.00  0.00     0.201 C 
ENDBRANCH  16  17
ENDBRANCH  15  16
ENDBRANCH  13  15
ENDBRANCH  12  13
ENDBRANCH  11  12
ENDBRANCH  10  11
ENDBRANCH   9  10
BRANCH   1  19
HETATM   19  O1  UNL     1      24.210   5.198  49.337  1.00  0.00    -0.351 OA
BRANCH  19  20
HETATM   20  C2  UNL     1      23.845   5.780  50.602  1.00  0.00     0.171 C 
HETATM   21  C1  UNL     1      23.528   4.631  51.554  1.00  0.00     0.034 C 
ENDBRANCH  19  20
ENDBRANCH   1  19
BRANCH   7  22
HETATM   22  N2  UNL     1      30.080   5.989  49.082  1.00  0.00     0.097 N 
HETATM   23  H11 UNL     1      30.060   5.248  49.795  1.00  0.00     0.317 HD
BRANCH  22  24
HETATM   24  C9  UNL     1      31.372   6.126  48.427  1.00  0.00     0.299 C 
BRANCH  24  25
HETATM   25  C10 UNL     1      31.920   4.883  47.876  1.00  0.00     0.022 C 
BRANCH  25  26
HETATM   26  C11 UNL     1      32.517   3.845  47.378  1.00  0.00     0.006 C 
HETATM   27  C12 UNL     1      32.189   2.595  46.593  1.00  0.00     0.061 C 
HETATM   28 CL1  UNL     1      34.080   4.337  47.942  1.00  0.00    -0.090 Cl
ENDBRANCH  25  26
ENDBRANCH  24  25
ENDBRANCH  22  24
ENDBRANCH   7  22
TORSDOF 13
ENDMDL
MODEL 2
REMARK VINA RESULT:      -6.5      4.856      9.802
REMARK  13 active torsions:
REMARK  status: ('A' for Active; 'I' for Inactive)
REMARK    1  A    between atoms: C2_2  and  O1_3 
REMARK    2  A    between atoms: O1_3  and  C3_4 
REMARK    3  A    between atoms: C8_10  and  N2_11 
REMARK    4  A    between atoms: N2_11  and  C9_12 
REMARK    5  A    between atoms: C9_12  and  C10_13 
REMARK    6  A    between atoms: C10_13  and  C11_14 
REMARK    7  A    between atoms: C14_18  and  C15_19 
REMARK    8  A    between atoms: C15_19  and  C16_20 
REMARK    9  A    between atoms: C16_20  and  C17_21 
REMARK   10  A    between atoms: C17_21  and  N3_22 
REMARK   11  A    between atoms: N3_22  and  C19_24 
REMARK   12  A    between atoms: C19_24  and  C20_25 
REMARK   13  A    between atoms: C20_25  and  O2_26 
ROOT
HETATM    1  C3  UNL     1      26.521   0.650  54.177  1.00  0.00     0.080 C 
HETATM    2  C4  UNL     1      26.057  -0.067  55.131  1.00  0.00     0.054 C 
HETATM    3  C5  UNL     1      25.041  -0.833  55.759  1.00  0.00     0.089 C 
HETATM    4  N1  UNL     1      24.079  -0.834  54.850  1.00  0.00    -0.372 N 
HETATM    5  C6  UNL     1      22.861  -1.562  55.202  1.00  0.00     0.134 A 
HETATM    6  C7  UNL     1      22.954  -0.777  54.048  1.00  0.00     0.146 A 
HETATM    7  C8  UNL     1      23.145   0.082  52.843  1.00  0.00     0.269 C 
HETATM    8  C13 UNL     1      24.471   0.665  52.711  1.00  0.00     0.024 C 
HETATM    9  C14 UNL     1      25.715   0.979  53.013  1.00  0.00    -0.005 C 
ENDROOT
BRANCH   9  10
HETATM   10  C15 UNL     1      26.374   1.789  52.029  1.00  0.00     0.011 C 
BRANCH  10  11
HETATM   11  C16 UNL     1      26.285   2.525  50.982  1.00  0.00     0.004 C 
BRANCH  11  12
HETATM   12  C17 UNL     1      26.446   3.243  49.725  1.00  0.00     0.299 C 
BRANCH  12  13
HETATM   13  N3  UNL     1      25.258   4.040  49.387  1.00  0.00     0.089 N 
HETATM   14  C18 UNL     1      25.547   5.380  49.865  1.00  0.00     0.310 C 
BRANCH  13  15
HETATM   15  C19 UNL     1      24.095   3.486  50.073  1.00  0.00     0.298 C 
BRANCH  15  16
HETATM   16  C20 UNL     1      23.118   2.806  49.175  1.00  0.00     0.197 C 
BRANCH  16  17
HETATM   17  O2  UNL     1      22.387   1.839  49.814  1.00  0.00    -0.394 OA
HETATM   18  C21 UNL     1      21.558   1.110  48.983  1.00  0.00     0.201 C 
ENDBRANCH  16  17
ENDBRANCH  15  16
ENDBRANCH  13  15
ENDBRANCH  12  13
ENDBRANCH  11  12
ENDBRANCH  10  11
ENDBRANCH   9  10
BRANCH   1  19
HETATM   19  O1  UNL     1      27.820   1.028  54.445  1.00  0.00    -0.351 OA
BRANCH  19  20
HETATM   20  C2  UNL     1      28.697  -0.080  54.720  1.00  0.00     0.171 C 
HETATM   21  C1  UNL     1      29.712  -0.147  53.583  1.00  0.00     0.034 C 
ENDBRANCH  19  20
ENDBRANCH   1  19
BRANCH   7  22
HETATM   22  N2  UNL     1      22.127   1.133  52.795  1.00  0.00     0.097 N 
HETATM   23  H11 UNL     1      21.967   1.493  51.846  1.00  0.00     0.317 HD
BRANCH  22  24
HETATM   24  C9  UNL     1      20.915   0.657  53.445  1.00  0.00     0.299 C 
BRANCH  24  25
HETATM   25  C10 UNL     1      19.790   0.400  52.541  1.00  0.00     0.022 C 
BRANCH  25  26
HETATM   26  C11 UNL     1      18.803   0.049  51.777  1.00  0.00     0.006 C 
HETATM   27  C12 UNL     1      18.214   0.392  50.427  1.00  0.00     0.061 C 
HETATM   28 CL1  UNL     1      18.214  -1.136  52.896  1.00  0.00    -0.090 Cl
ENDBRANCH  25  26
ENDBRANCH  24  25
ENDBRANCH  22  24
ENDBRANCH   7  22
TORSDOF 13
ENDMDL
MODEL 3
REMARK VINA RESULT:      -6.4      4.350      9.766
REMARK  13 active torsions:
REMARK  status: ('A' for Active; 'I' for Inactive)
REMARK    1  A    between atoms: C2_2  and  O1_3 
REMARK    2  A    between atoms: O1_3  and  C3_4 
REMARK    3  A    between atoms: C8_10  and  N2_11 
REMARK    4  A    between atoms: N2_11  and  C9_12 
REMARK    5  A    between atoms: C9_12  and  C10_13 
REMARK    6  A    between atoms: C10_13  and  C11_14 
REMARK    7  A    between atoms: C14_18  and  C15_19 
REMARK    8  A    between atoms: C15_19  and  C16_20 
REMARK    9  A    between atoms: C16_20  and  C17_21 
REMARK   10  A    between atoms: C17_21  and  N3_22 
REMARK   11  A    between atoms: N3_22  and  C19_24 
REMARK   12  A    between atoms: C19_24  and  C20_25 
REMARK   13  A    between atoms: C20_25  and  O2_26 
ROOT
HETATM    1  C3  UNL     1      26.567   0.698  54.156  1.00  0.00     0.080 C 
HETATM    2  C4  UNL     1      26.035  -0.013  55.080  1.00  0.00     0.054 C 
HETATM    3  C5  UNL     1      24.970  -0.762  55.644  1.00  0.00     0.089 C 
HETATM    4  N1  UNL     1      24.064  -0.744  54.680  1.00  0.00    -0.372 N 
HETATM    5  C6  UNL     1      22.815  -1.451  54.957  1.00  0.00     0.134 A 
HETATM    6  C7  UNL     1      22.989  -0.666  53.813  1.00  0.00     0.146 A 
HETATM    7  C8  UNL     1      23.266   0.192  52.624  1.00  0.00     0.269 C 
HETATM    8  C13 UNL     1      24.608   0.752  52.572  1.00  0.00     0.024 C 
HETATM    9  C14 UNL     1      25.837   1.043  52.948  1.00  0.00    -0.005 C 
ENDROOT
BRANCH   9  10
HETATM   10  C15 UNL     1      26.567   1.843  52.007  1.00  0.00     0.011 C 
BRANCH  10  11
HETATM   11  C16 UNL     1      26.545   2.660  51.017  1.00  0.00     0.004 C 
BRANCH  11  12
HETATM   12  C17 UNL     1      26.545   3.343  49.731  1.00  0.00     0.299 C 
BRANCH  12  13
HETATM   13  N3  UNL     1      25.934   4.677  49.813  1.00  0.00     0.089 N 
HETATM   14  C18 UNL     1      24.535   4.479  49.477  1.00  0.00     0.310 C 
BRANCH  13  15
HETATM   15  C19 UNL     1      26.576   5.562  48.846  1.00  0.00     0.298 C 
BRANCH  15  16
HETATM   16  C20 UNL     1      26.121   6.981  48.914  1.00  0.00     0.197 C 
BRANCH  16  17
HETATM   17  O2  UNL     1      26.293   7.538  50.154  1.00  0.00    -0.394 OA
HETATM   18  C21 UNL     1      26.781   8.831  50.133  1.00  0.00     0.201 C 
ENDBRANCH  16  17
ENDBRANCH  15  16
ENDBRANCH  13  15
ENDBRANCH  12  13
ENDBRANCH  11  12
ENDBRANCH  10  11
ENDBRANCH   9  10
BRANCH   1  19
HETATM   19  O1  UNL     1      27.855   1.053  54.502  1.00  0.00    -0.351 OA
BRANCH  19  20
HETATM   20  C2  UNL     1      28.714  -0.074  54.754  1.00  0.00     0.171 C 
HETATM   21  C1  UNL     1      29.489  -0.348  53.469  1.00  0.00     0.034 C 
ENDBRANCH  19  20
ENDBRANCH   1  19
BRANCH   7  22
HETATM   22  N2  UNL     1      22.271   1.261  52.519  1.00  0.00     0.097 N 
HETATM   23  H11 UNL     1      22.677   2.198  52.634  1.00  0.00     0.317 HD
BRANCH  22  24
HETATM   24  C9  UNL     1      21.524   1.101  51.281  1.00  0.00     0.299 C 
BRANCH  24  25
HETATM   25  C10 UNL     1      20.211   0.467  51.430  1.00  0.00     0.022 C 
BRANCH  25  26
HETATM   26  C11 UNL     1      19.010   0.014  51.618  1.00  0.00     0.006 C 
HETATM   27  C12 UNL     1      17.693  -0.095  50.884  1.00  0.00     0.061 C 
HETATM   28 CL1  UNL     1      19.353  -0.540  53.225  1.00  0.00    -0.090 Cl
ENDBRANCH  25  26
ENDBRANCH  24  25
ENDBRANCH  22  24
ENDBRANCH   7  22
TORSDOF 13
ENDMDL
MODEL 4
REMARK VINA RESULT:      -6.4      3.393      7.990
REMARK  13 active torsions:
REMARK  status: ('A' for Active; 'I' for Inactive)
REMARK    1  A    between atoms: C2_2  and  O1_3 
REMARK    2  A    between atoms: O1_3  and  C3_4 
REMARK    3  A    between atoms: C8_10  and  N2_11 
REMARK    4  A    between atoms: N2_11  and  C9_12 
REMARK    5  A    between atoms: C9_12  and  C10_13 
REMARK    6  A    between atoms: C10_13  and  C11_14 
REMARK    7  A    between atoms: C14_18  and  C15_19 
REMARK    8  A    between atoms: C15_19  and  C16_20 
REMARK    9  A    between atoms: C16_20  and  C17_21 
REMARK   10  A    between atoms: C17_21  and  N3_22 
REMARK   11  A    between atoms: N3_22  and  C19_24 
REMARK   12  A    between atoms: C19_24  and  C20_25 
REMARK   13  A    between atoms: C20_25  and  O2_26 
ROOT
HETATM    1  C3  UNL     1      22.059   1.573  50.923  1.00  0.00     0.080 C 
HETATM    2  C4  UNL     1      21.210   0.737  51.392  1.00  0.00     0.054 C 
HETATM    3  C5  UNL     1      20.796  -0.268  52.304  1.00  0.00     0.089 C 
HETATM    4  N1  UNL     1      21.827  -0.349  53.130  1.00  0.00    -0.372 N 
HETATM    5  C6  UNL     1      21.708  -1.321  54.215  1.00  0.00     0.134 A 
HETATM    6  C7  UNL     1      22.896  -0.630  53.960  1.00  0.00     0.146 A 
HETATM    7  C8  UNL     1      24.119   0.152  53.613  1.00  0.00     0.269 C 
HETATM    8  C13 UNL     1      23.958   1.082  52.505  1.00  0.00     0.024 C 
HETATM    9  C14 UNL     1      23.386   1.712  51.499  1.00  0.00    -0.005 C 
ENDROOT
BRANCH   9  10
HETATM   10  C15 UNL     1      24.222   2.690  50.865  1.00  0.00     0.011 C 
BRANCH  10  11
HETATM   11  C16 UNL     1      25.365   2.994  50.367  1.00  0.00     0.004 C 
BRANCH  11  12
HETATM   12  C17 UNL     1      26.647   3.568  49.985  1.00  0.00     0.299 C 
BRANCH  12  13
HETATM   13  N3  UNL     1      26.497   4.651  49.002  1.00  0.00     0.089 N 
HETATM   14  C18 UNL     1      27.847   4.973  48.576  1.00  0.00     0.310 C 
BRANCH  13  15
HETATM   15  C19 UNL     1      25.871   5.803  49.644  1.00  0.00     0.298 C 
BRANCH  15  16
HETATM   16  C20 UNL     1      24.632   6.285  48.968  1.00  0.00     0.197 C 
BRANCH  16  17
HETATM   17  O2  UNL     1      23.595   6.494  49.839  1.00  0.00    -0.394 OA
HETATM   18  C21 UNL     1      23.955   6.451  51.172  1.00  0.00     0.201 C 
ENDBRANCH  16  17
ENDBRANCH  15  16
ENDBRANCH  13  15
ENDBRANCH  12  13
ENDBRANCH  11  12
ENDBRANCH  10  11
ENDBRANCH   9  10
BRANCH   1  19
HETATM   19  O1  UNL     1      21.523   2.254  49.849  1.00  0.00    -0.351 OA
BRANCH  19  20
HETATM   20  C2  UNL     1      21.418   1.455  48.656  1.00  0.00     0.171 C 
HETATM   21  C1  UNL     1      22.452   1.982  47.666  1.00  0.00     0.034 C 
ENDBRANCH  19  20
ENDBRANCH   1  19
BRANCH   7  22
HETATM   22  N2  UNL     1      25.246  -0.746  53.354  1.00  0.00     0.097 N 
HETATM   23  H11 UNL     1      25.632  -0.643  52.407  1.00  0.00     0.317 HD
BRANCH  22  24
HETATM   24  C9  UNL     1      26.241  -0.583  54.405  1.00  0.00     0.299 C 
BRANCH  24  25
HETATM   25  C10 UNL     1      27.323   0.354  54.090  1.00  0.00     0.022 C 
BRANCH  25  26
HETATM   26  C11 UNL     1      28.349   1.081  53.774  1.00  0.00     0.006 C 
HETATM   27  C12 UNL     1      28.721   2.537  53.607  1.00  0.00     0.061 C 
HETATM   28 CL1  UNL     1      29.388  -0.289  53.548  1.00  0.00    -0.090 Cl
ENDBRANCH  25  26
ENDBRANCH  24  25
ENDBRANCH  22  24
ENDBRANCH   7  22
TORSDOF 13
ENDMDL
MODEL 5
REMARK VINA RESULT:      -6.3      1.639      2.014
REMARK  13 active torsions:
REMARK  status: ('A' for Active; 'I' for Inactive)
REMARK    1  A    between atoms: C2_2  and  O1_3 
REMARK    2  A    between atoms: O1_3  and  C3_4 
REMARK    3  A    between atoms: C8_10  and  N2_11 
REMARK    4  A    between atoms: N2_11  and  C9_12 
REMARK    5  A    between atoms: C9_12  and  C10_13 
REMARK    6  A    between atoms: C10_13  and  C11_14 
REMARK    7  A    between atoms: C14_18  and  C15_19 
REMARK    8  A    between atoms: C15_19  and  C16_20 
REMARK    9  A    between atoms: C16_20  and  C17_21 
REMARK   10  A    between atoms: C17_21  and  N3_22 
REMARK   11  A    between atoms: N3_22  and  C19_24 
REMARK   12  A    between atoms: C19_24  and  C20_25 
REMARK   13  A    between atoms: C20_25  and  O2_26 
ROOT
HETATM    1  C3  UNL     1      25.117   5.005  49.514  1.00  0.00     0.080 C 
HETATM    2  C4  UNL     1      24.891   6.183  49.065  1.00  0.00     0.054 C 
HETATM    3  C5  UNL     1      25.272   7.379  48.402  1.00  0.00     0.089 C 
HETATM    4  N1  UNL     1      26.506   7.108  48.007  1.00  0.00    -0.372 N 
HETATM    5  C6  UNL     1      27.193   8.168  47.271  1.00  0.00     0.134 A 
HETATM    6  C7  UNL     1      27.843   6.998  47.677  1.00  0.00     0.146 A 
HETATM    7  C8  UNL     1      28.453   5.721  48.151  1.00  0.00     0.269 C 
HETATM    8  C13 UNL     1      27.535   4.819  48.829  1.00  0.00     0.024 C 
HETATM    9  C14 UNL     1      26.419   4.376  49.373  1.00  0.00    -0.005 C 
ENDROOT
BRANCH   9  10
HETATM   10  C15 UNL     1      26.517   3.056  49.925  1.00  0.00     0.011 C 
BRANCH  10  11
HETATM   11  C16 UNL     1      26.279   2.260  50.904  1.00  0.00     0.004 C 
BRANCH  11  12
HETATM   12  C17 UNL     1      25.726   1.413  51.952  1.00  0.00     0.299 C 
BRANCH  12  13
HETATM   13  N3  UNL     1      26.619   0.295  52.289  1.00  0.00     0.089 N 
HETATM   14  C18 UNL     1      25.792  -0.651  53.016  1.00  0.00     0.310 C 
BRANCH  13  15
HETATM   15  C19 UNL     1      27.707   0.783  53.131  1.00  0.00     0.298 C 
BRANCH  15  16
HETATM   16  C20 UNL     1      27.695   0.245  54.522  1.00  0.00     0.197 C 
BRANCH  16  17
HETATM   17  O2  UNL     1      28.824  -0.469  54.828  1.00  0.00    -0.394 OA
HETATM   18  C21 UNL     1      29.670  -0.681  53.756  1.00  0.00     0.201 C 
ENDBRANCH  16  17
ENDBRANCH  15  16
ENDBRANCH  13  15
ENDBRANCH  12  13
ENDBRANCH  11  12
ENDBRANCH  10  11
ENDBRANCH   9  10
BRANCH   1  19
HETATM   19  O1  UNL     1      23.986   4.493  50.116  1.00  0.00    -0.351 OA
BRANCH  19  20
HETATM   20  C2  UNL     1      23.501   5.297  51.206  1.00  0.00     0.171 C 
HETATM   21  C1  UNL     1      23.476   4.408  52.447  1.00  0.00     0.034 C 
ENDBRANCH  19  20
ENDBRANCH   1  19
BRANCH   7  22
HETATM   22  N2  UNL     1      29.613   5.990  49.002  1.00  0.00     0.097 N 
HETATM   23  H11 UNL     1      29.609   5.441  49.871  1.00  0.00     0.317 HD
BRANCH  22  24
HETATM   24  C9  UNL     1      30.830   5.828  48.220  1.00  0.00     0.299 C 
BRANCH  24  25
HETATM   25  C10 UNL     1      31.860   6.842  48.464  1.00  0.00     0.022 C 
BRANCH  25  26
HETATM   26  C11 UNL     1      32.770   7.762  48.553  1.00  0.00     0.006 C 
HETATM   27  C12 UNL     1      34.276   7.893  48.575  1.00  0.00     0.061 C 
HETATM   28 CL1  UNL     1      31.614   9.050  48.659  1.00  0.00    -0.090 Cl
ENDBRANCH  25  26
ENDBRANCH  24  25
ENDBRANCH  22  24
ENDBRANCH   7  22
TORSDOF 13
ENDMDL
MODEL 6
REMARK VINA RESULT:      -6.3      4.376      7.602
REMARK  13 active torsions:
REMARK  status: ('A' for Active; 'I' for Inactive)
REMARK    1  A    between atoms: C2_2  and  O1_3 
REMARK    2  A    between atoms: O1_3  and  C3_4 
REMARK    3  A    between atoms: C8_10  and  N2_11 
REMARK    4  A    between atoms: N2_11  and  C9_12 
REMARK    5  A    between atoms: C9_12  and  C10_13 
REMARK    6  A    between atoms: C10_13  and  C11_14 
REMARK    7  A    between atoms: C14_18  and  C15_19 
REMARK    8  A    between atoms: C15_19  and  C16_20 
REMARK    9  A    between atoms: C16_20  and  C17_21 
REMARK   10  A    between atoms: C17_21  and  N3_22 
REMARK   11  A    between atoms: N3_22  and  C19_24 
REMARK   12  A    between atoms: C19_24  and  C20_25 
REMARK   13  A    between atoms: C20_25  and  O2_26 
ROOT
HETATM    1  C3  UNL     1      21.247   0.480  53.218  1.00  0.00     0.080 C 
HETATM    2  C4  UNL     1      20.002   0.345  52.951  1.00  0.00     0.054 C 
HETATM    3  C5  UNL     1      18.881   0.406  52.082  1.00  0.00     0.089 C 
HETATM    4  N1  UNL     1      19.431   0.745  50.927  1.00  0.00    -0.372 N 
HETATM    5  C6  UNL     1      18.516   0.890  49.797  1.00  0.00     0.134 A 
HETATM    6  C7  UNL     1      19.866   1.241  49.712  1.00  0.00     0.146 A 
HETATM    7  C8  UNL     1      21.318   1.589  49.716  1.00  0.00     0.269 C 
HETATM    8  C13 UNL     1      22.011   1.312  50.965  1.00  0.00     0.024 C 
HETATM    9  C14 UNL     1      22.192   0.949  52.219  1.00  0.00    -0.005 C 
ENDROOT
BRANCH   9  10
HETATM   10  C15 UNL     1      23.551   1.047  52.670  1.00  0.00     0.011 C 
BRANCH  10  11
HETATM   11  C16 UNL     1      24.747   0.583  52.644  1.00  0.00     0.004 C 
BRANCH  11  12
HETATM   12  C17 UNL     1      26.175   0.326  52.519  1.00  0.00     0.299 C 
BRANCH  12  13
HETATM   13  N3  UNL     1      26.984   1.473  52.960  1.00  0.00     0.089 N 
HETATM   14  C18 UNL     1      27.057   2.355  51.809  1.00  0.00     0.310 C 
BRANCH  13  15
HETATM   15  C19 UNL     1      28.314   1.008  53.339  1.00  0.00     0.298 C 
BRANCH  15  16
HETATM   16  C20 UNL     1      28.365   0.289  54.645  1.00  0.00     0.197 C 
BRANCH  16  17
HETATM   17  O2  UNL     1      29.198  -0.799  54.624  1.00  0.00    -0.394 OA
HETATM   18  C21 UNL     1      29.490  -1.267  53.357  1.00  0.00     0.201 C 
ENDBRANCH  16  17
ENDBRANCH  15  16
ENDBRANCH  13  15
ENDBRANCH  12  13
ENDBRANCH  11  12
ENDBRANCH  10  11
ENDBRANCH   9  10
BRANCH   1  19
HETATM   19  O1  UNL     1      21.499   0.133  54.529  1.00  0.00    -0.351 OA
BRANCH  19  20
HETATM   20  C2  UNL     1      21.695  -1.280  54.723  1.00  0.00     0.171 C 
HETATM   21  C1  UNL     1      23.009  -1.455  55.479  1.00  0.00     0.034 C 
ENDBRANCH  19  20
ENDBRANCH   1  19
BRANCH   7  22
HETATM   22  N2  UNL     1      21.511   2.989  49.335  1.00  0.00     0.097 N 
HETATM   23  H11 UNL     1      21.533   3.625  50.142  1.00  0.00     0.317 HD
BRANCH  22  24
HETATM   24  C9  UNL     1      22.685   3.096  48.481  1.00  0.00     0.299 C 
BRANCH  24  25
HETATM   25  C10 UNL     1      23.837   3.760  49.097  1.00  0.00     0.022 C 
BRANCH  25  26
HETATM   26  C11 UNL     1      24.814   4.457  49.590  1.00  0.00     0.006 C 
HETATM   27  C12 UNL     1      26.115   5.090  49.148  1.00  0.00     0.061 C 
HETATM   28 CL1  UNL     1      24.132   4.491  51.183  1.00  0.00    -0.090 Cl
ENDBRANCH  25  26
ENDBRANCH  24  25
ENDBRANCH  22  24
ENDBRANCH   7  22
TORSDOF 13
ENDMDL
MODEL 7
REMARK VINA RESULT:      -6.3      3.093      6.955
REMARK  13 active torsions:
REMARK  status: ('A' for Active; 'I' for Inactive)
REMARK    1  A    between atoms: C2_2  and  O1_3 
REMARK    2  A    between atoms: O1_3  and  C3_4 
REMARK    3  A    between atoms: C8_10  and  N2_11 
REMARK    4  A    between atoms: N2_11  and  C9_12 
REMARK    5  A    between atoms: C9_12  and  C10_13 
REMARK    6  A    between atoms: C10_13  and  C11_14 
REMARK    7  A    between atoms: C14_18  and  C15_19 
REMARK    8  A    between atoms: C15_19  and  C16_20 
REMARK    9  A    between atoms: C16_20  and  C17_21 
REMARK   10  A    between atoms: C17_21  and  N3_22 
REMARK   11  A    between atoms: N3_22  and  C19_24 
REMARK   12  A    between atoms: C19_24  and  C20_25 
REMARK   13  A    between atoms: C20_25  and  O2_26 
ROOT
HETATM    1  C3  UNL     1      23.783  -0.100  53.130  1.00  0.00     0.080 C 
HETATM    2  C4  UNL     1      24.796  -0.288  53.890  1.00  0.00     0.054 C 
HETATM    3  C5  UNL     1      26.100   0.018  54.358  1.00  0.00     0.089 C 
HETATM    4  N1  UNL     1      26.410   1.099  53.659  1.00  0.00    -0.372 N 
HETATM    5  C6  UNL     1      27.727   1.677  53.919  1.00  0.00     0.134 A 
HETATM    6  C7  UNL     1      26.904   2.132  52.885  1.00  0.00     0.146 A 
HETATM    7  C8  UNL     1      25.958   2.550  51.808  1.00  0.00     0.269 C 
HETATM    8  C13 UNL     1      24.693   1.832  51.791  1.00  0.00     0.024 C 
HETATM    9  C14 UNL     1      23.773   0.949  52.123  1.00  0.00    -0.005 C 
ENDROOT
BRANCH   9  10
HETATM   10  C15 UNL     1      22.567   1.035  51.351  1.00  0.00     0.011 C 
BRANCH  10  11
HETATM   11  C16 UNL     1      21.673   1.772  50.798  1.00  0.00     0.004 C 
BRANCH  11  12
HETATM   12  C17 UNL     1      20.600   2.692  50.448  1.00  0.00     0.299 C 
BRANCH  12  13
HETATM   13  N3  UNL     1      21.112   4.003  50.023  1.00  0.00     0.089 N 
HETATM   14  C18 UNL     1      22.044   3.719  48.945  1.00  0.00     0.310 C 
BRANCH  13  15
HETATM   15  C19 UNL     1      21.798   4.640  51.143  1.00  0.00     0.298 C 
BRANCH  15  16
HETATM   16  C20 UNL     1      23.026   5.396  50.762  1.00  0.00     0.197 C 
BRANCH  16  17
HETATM   17  O2  UNL     1      23.878   5.597  51.816  1.00  0.00    -0.394 OA
HETATM   18  C21 UNL     1      23.467   5.011  52.999  1.00  0.00     0.201 C 
ENDBRANCH  16  17
ENDBRANCH  15  16
ENDBRANCH  13  15
ENDBRANCH  12  13
ENDBRANCH  11  12
ENDBRANCH  10  11
ENDBRANCH   9  10
BRANCH   1  19
HETATM   19  O1  UNL     1      22.788  -1.011  53.417  1.00  0.00    -0.351 OA
BRANCH  19  20
HETATM   20  C2  UNL     1      22.257  -0.882  54.748  1.00  0.00     0.171 C 
HETATM   21  C1  UNL     1      21.065   0.067  54.670  1.00  0.00     0.034 C 
ENDBRANCH  19  20
ENDBRANCH   1  19
BRANCH   7  22
HETATM   22  N2  UNL     1      26.603   2.462  50.496  1.00  0.00     0.097 N 
HETATM   23  H11 UNL     1      26.638   1.502  50.130  1.00  0.00     0.317 HD
BRANCH  22  24
HETATM   24  C9  UNL     1      25.972   3.407  49.587  1.00  0.00     0.299 C 
BRANCH  24  25
HETATM   25  C10 UNL     1      26.881   4.388  48.988  1.00  0.00     0.022 C 
BRANCH  25  26
HETATM   26  C11 UNL     1      27.677   5.321  48.568  1.00  0.00     0.006 C 
HETATM   27  C12 UNL     1      29.142   5.532  48.256  1.00  0.00     0.061 C 
HETATM   28 CL1  UNL     1      26.406   6.492  48.425  1.00  0.00    -0.090 Cl
ENDBRANCH  25  26
ENDBRANCH  24  25
ENDBRANCH  22  24
ENDBRANCH   7  22
TORSDOF 13
ENDMDL
MODEL 8
REMARK VINA RESULT:      -6.3      3.786      6.426
REMARK  13 active torsions:
REMARK  status: ('A' for Active; 'I' for Inactive)
REMARK    1  A    between atoms: C2_2  and  O1_3 
REMARK    2  A    between atoms: O1_3  and  C3_4 
REMARK    3  A    between atoms: C8_10  and  N2_11 
REMARK    4  A    between atoms: N2_11  and  C9_12 
REMARK    5  A    between atoms: C9_12  and  C10_13 
REMARK    6  A    between atoms: C10_13  and  C11_14 
REMARK    7  A    between atoms: C14_18  and  C15_19 
REMARK    8  A    between atoms: C15_19  and  C16_20 
REMARK    9  A    between atoms: C16_20  and  C17_21 
REMARK   10  A    between atoms: C17_21  and  N3_22 
REMARK   11  A    between atoms: N3_22  and  C19_24 
REMARK   12  A    between atoms: C19_24  and  C20_25 
REMARK   13  A    between atoms: C20_25  and  O2_26 
ROOT
HETATM    1  C3  UNL     1      21.260   0.290  52.194  1.00  0.00     0.080 C 
HETATM    2  C4  UNL     1      20.454   0.723  51.298  1.00  0.00     0.054 C 
HETATM    3  C5  UNL     1      20.144   1.461  50.126  1.00  0.00     0.089 C 
HETATM    4  N1  UNL     1      21.331   1.900  49.740  1.00  0.00    -0.372 N 
HETATM    5  C6  UNL     1      21.353   2.713  48.526  1.00  0.00     0.134 A 
HETATM    6  C7  UNL     1      22.486   2.537  49.326  1.00  0.00     0.146 A 
HETATM    7  C8  UNL     1      23.641   2.293  50.240  1.00  0.00     0.269 C 
HETATM    8  C13 UNL     1      23.358   1.412  51.362  1.00  0.00     0.024 C 
HETATM    9  C14 UNL     1      22.669   0.647  52.185  1.00  0.00    -0.005 C 
ENDROOT
BRANCH   9  10
HETATM   10  C15 UNL     1      23.443   0.084  53.254  1.00  0.00     0.011 C 
BRANCH  10  11
HETATM   11  C16 UNL     1      24.586  -0.305  53.688  1.00  0.00     0.004 C 
BRANCH  11  12
HETATM   12  C17 UNL     1      25.966  -0.470  54.123  1.00  0.00     0.299 C 
BRANCH  12  13
HETATM   13  N3  UNL     1      26.893  -0.590  52.987  1.00  0.00     0.089 N 
HETATM   14  C18 UNL     1      26.808  -1.977  52.568  1.00  0.00     0.310 C 
BRANCH  13  15
HETATM   15  C19 UNL     1      28.245  -0.267  53.432  1.00  0.00     0.298 C 
BRANCH  15  16
HETATM   16  C20 UNL     1      28.328   0.228  54.837  1.00  0.00     0.197 C 
BRANCH  16  17
HETATM   17  O2  UNL     1      28.851   1.492  54.928  1.00  0.00    -0.394 OA
HETATM   18  C21 UNL     1      28.807   2.212  53.749  1.00  0.00     0.201 C 
ENDBRANCH  16  17
ENDBRANCH  15  16
ENDBRANCH  13  15
ENDBRANCH  12  13
ENDBRANCH  11  12
ENDBRANCH  10  11
ENDBRANCH   9  10
BRANCH   1  19
HETATM   19  O1  UNL     1      20.591  -0.505  53.102  1.00  0.00    -0.351 OA
BRANCH  19  20
HETATM   20  C2  UNL     1      19.161  -0.480  52.943  1.00  0.00     0.171 C 
HETATM   21  C1  UNL     1      18.607  -1.722  53.635  1.00  0.00     0.034 C 
ENDBRANCH  19  20
ENDBRANCH   1  19
BRANCH   7  22
HETATM   22  N2  UNL     1      24.190   3.561  50.723  1.00  0.00     0.097 N 
HETATM   23  H11 UNL     1      23.938   3.762  51.699  1.00  0.00     0.317 HD
BRANCH  22  24
HETATM   24  C9  UNL     1      25.624   3.588  50.479  1.00  0.00     0.299 C 
BRANCH  24  25
HETATM   25  C10 UNL     1      26.070   4.614  49.533  1.00  0.00     0.022 C 
BRANCH  25  26
HETATM   26  C11 UNL     1      26.447   5.609  48.790  1.00  0.00     0.006 C 
HETATM   27  C12 UNL     1      25.901   6.906  48.238  1.00  0.00     0.061 C 
HETATM   28 CL1  UNL     1      28.036   4.961  48.538  1.00  0.00    -0.090 Cl
ENDBRANCH  25  26
ENDBRANCH  24  25
ENDBRANCH  22  24
ENDBRANCH   7  22
TORSDOF 13
ENDMDL
MODEL 9
REMARK VINA RESULT:      -6.2      4.349      8.083
REMARK  13 active torsions:
REMARK  status: ('A' for Active; 'I' for Inactive)
REMARK    1  A    between atoms: C2_2  and  O1_3 
REMARK    2  A    between atoms: O1_3  and  C3_4 
REMARK    3  A    between atoms: C8_10  and  N2_11 
REMARK    4  A    between atoms: N2_11  and  C9_12 
REMARK    5  A    between atoms: C9_12  and  C10_13 
REMARK    6  A    between atoms: C10_13  and  C11_14 
REMARK    7  A    between atoms: C14_18  and  C15_19 
REMARK    8  A    between atoms: C15_19  and  C16_20 
REMARK    9  A    between atoms: C16_20  and  C17_21 
REMARK   10  A    between atoms: C17_21  and  N3_22 
REMARK   11  A    between atoms: N3_22  and  C19_24 
REMARK   12  A    between atoms: C19_24  and  C20_25 
REMARK   13  A    between atoms: C20_25  and  O2_26 
ROOT
HETATM    1  C3  UNL     1      22.320   1.434  51.043  1.00  0.00     0.080 C 
HETATM    2  C4  UNL     1      21.501   0.663  51.656  1.00  0.00     0.054 C 
HETATM    3  C5  UNL     1      21.162  -0.276  52.664  1.00  0.00     0.089 C 
HETATM    4  N1  UNL     1      22.284  -0.369  53.360  1.00  0.00    -0.372 N 
HETATM    5  C6  UNL     1      22.260  -1.281  54.501  1.00  0.00     0.134 A 
HETATM    6  C7  UNL     1      23.436  -0.662  54.066  1.00  0.00     0.146 A 
HETATM    7  C8  UNL     1      24.638   0.041  53.530  1.00  0.00     0.269 C 
HETATM    8  C13 UNL     1      24.379   0.925  52.403  1.00  0.00     0.024 C 
HETATM    9  C14 UNL     1      23.714   1.534  51.444  1.00  0.00    -0.005 C 
ENDROOT
BRANCH   9  10
HETATM   10  C15 UNL     1      24.505   2.439  50.661  1.00  0.00     0.011 C 
BRANCH  10  11
HETATM   11  C16 UNL     1      24.769   3.649  50.323  1.00  0.00     0.004 C 
BRANCH  11  12
HETATM   12  C17 UNL     1      24.777   5.047  49.913  1.00  0.00     0.299 C 
BRANCH  12  13
HETATM   13  N3  UNL     1      24.374   5.946  51.004  1.00  0.00     0.089 N 
HETATM   14  C18 UNL     1      22.968   5.665  51.233  1.00  0.00     0.310 C 
BRANCH  13  15
HETATM   15  C19 UNL     1      24.561   7.331  50.583  1.00  0.00     0.298 C 
BRANCH  15  16
HETATM   16  C20 UNL     1      25.967   7.679  50.227  1.00  0.00     0.197 C 
BRANCH  16  17
HETATM   17  O2  UNL     1      26.180   9.031  50.151  1.00  0.00    -0.394 OA
HETATM   18  C21 UNL     1      26.052   9.555  48.879  1.00  0.00     0.201 C 
ENDBRANCH  16  17
ENDBRANCH  15  16
ENDBRANCH  13  15
ENDBRANCH  12  13
ENDBRANCH  11  12
ENDBRANCH  10  11
ENDBRANCH   9  10
BRANCH   1  19
HETATM   19  O1  UNL     1      21.684   2.089  50.008  1.00  0.00    -0.351 OA
BRANCH  19  20
HETATM   20  C2  UNL     1      21.490   1.269  48.842  1.00  0.00     0.171 C 
HETATM   21  C1  UNL     1      22.319   1.880  47.716  1.00  0.00     0.034 C 
ENDBRANCH  19  20
ENDBRANCH   1  19
BRANCH   7  22
HETATM   22  N2  UNL     1      25.684  -0.922  53.183  1.00  0.00     0.097 N 
HETATM   23  H11 UNL     1      25.309  -1.811  52.827  1.00  0.00     0.317 HD
BRANCH  22  24
HETATM   24  C9  UNL     1      26.636  -0.293  52.280  1.00  0.00     0.299 C 
BRANCH  24  25
HETATM   25  C10 UNL     1      27.797   0.317  52.934  1.00  0.00     0.022 C 
BRANCH  25  26
HETATM   26  C11 UNL     1      28.773   0.970  53.484  1.00  0.00     0.006 C 
HETATM   27  C12 UNL     1      29.096   2.366  53.968  1.00  0.00     0.061 C 
HETATM   28 CL1  UNL     1      29.815  -0.414  53.538  1.00  0.00    -0.090 Cl
ENDBRANCH  25  26
ENDBRANCH  24  25
ENDBRANCH  22  24
ENDBRANCH   7  22
TORSDOF 13
ENDMDL
