MODEL 1
REMARK VINA RESULT:      -8.0      0.000      0.000
REMARK  2 active torsions:
REMARK  status: ('A' for Active; 'I' for Inactive)
REMARK    1  A    between atoms: C2_2  and  C3_3 
REMARK       I    between atoms: C3_3  and  N1_5 
REMARK    2  A    between atoms: N1_5  and  C4_6 
ROOT
HETATM    1  C4  UNL     1      21.765   0.403  52.252  1.00  0.00     0.035 A 
HETATM    2  C5  UNL     1      21.986  -0.622  53.147  1.00  0.00     0.032 A 
HETATM    3  C6  UNL     1      23.208  -0.768  53.728  1.00  0.00     0.040 A 
HETATM    4  C7  UNL     1      24.227   0.108  53.424  1.00  0.00     0.086 A 
HETATM    5  C8  UNL     1      24.063   1.147  52.539  1.00  0.00    -0.004 A 
HETATM    6  C9  UNL     1      22.800   1.270  51.961  1.00  0.00     0.041 A 
HETATM    7  C10 UNL     1      24.860   2.249  51.972  1.00  0.00     0.161 C 
HETATM    8  N2  UNL     1      26.071   2.536  52.714  1.00  0.00    -0.381 N 
HETATM    9  C11 UNL     1      26.936   1.759  53.493  1.00  0.00     0.100 A 
HETATM   10  C12 UNL     1      28.193   2.280  53.642  1.00  0.00     0.151 A 
HETATM   11  N3  UNL     1      29.111   1.608  54.378  1.00  0.00    -0.252 NA
HETATM   12  C13 UNL     1      28.764   0.435  54.951  1.00  0.00     0.235 A 
HETATM   13  N4  UNL     1      27.541  -0.115  54.833  1.00  0.00    -0.216 NA
HETATM   14  C14 UNL     1      26.623   0.560  54.095  1.00  0.00     0.199 A 
HETATM   15  O2  UNL     1      25.427  -0.141  54.076  1.00  0.00    -0.289 OA
HETATM   16  H10 UNL     1      26.346   3.559  52.640  1.00  0.00     0.160 HD
ENDROOT
BRANCH   1  17
HETATM   17  N1  UNL     1      20.474   0.514  51.673  1.00  0.00    -0.324 N 
HETATM   18  C3  UNL     1      19.441   1.472  51.873  1.00  0.00     0.244 C 
HETATM   19  O1  UNL     1      19.830   2.336  52.732  1.00  0.00    -0.268 OA
HETATM   20  H4  UNL     1      20.417  -0.298  51.024  1.00  0.00     0.169 HD
BRANCH  18  21
HETATM   21  C2  UNL     1      18.195   1.333  51.128  1.00  0.00     0.064 C 
HETATM   22  C1  UNL     1      17.862   0.354  50.315  1.00  0.00     0.017 C 
ENDBRANCH  18  21
ENDBRANCH   1  17
TORSDOF 2
ENDMDL
MODEL 2
REMARK VINA RESULT:      -8.0      2.010      7.755
REMARK  2 active torsions:
REMARK  status: ('A' for Active; 'I' for Inactive)
REMARK    1  A    between atoms: C2_2  and  C3_3 
REMARK       I    between atoms: C3_3  and  N1_5 
REMARK    2  A    between atoms: N1_5  and  C4_6 
ROOT
HETATM    1  C4  UNL     1      24.693   0.225  53.270  1.00  0.00     0.035 A 
HETATM    2  C5  UNL     1      24.339   1.085  52.252  1.00  0.00     0.032 A 
HETATM    3  C6  UNL     1      23.049   1.140  51.824  1.00  0.00     0.040 A 
HETATM    4  C7  UNL     1      22.093   0.336  52.405  1.00  0.00     0.086 A 
HETATM    5  C8  UNL     1      22.389  -0.539  53.423  1.00  0.00    -0.004 A 
HETATM    6  C9  UNL     1      23.720  -0.572  53.839  1.00  0.00     0.041 A 
HETATM    7  C10 UNL     1      21.691  -1.523  54.270  1.00  0.00     0.161 C 
HETATM    8  N2  UNL     1      20.250  -1.376  54.269  1.00  0.00    -0.381 N 
HETATM    9  C11 UNL     1      19.324  -0.913  53.325  1.00  0.00     0.100 A 
HETATM   10  C12 UNL     1      18.043  -1.354  53.519  1.00  0.00     0.151 A 
HETATM   11  N3  UNL     1      17.067  -0.965  52.663  1.00  0.00    -0.252 NA
HETATM   12  C13 UNL     1      17.382  -0.148  51.634  1.00  0.00     0.235 A 
HETATM   13  N4  UNL     1      18.627   0.311  51.405  1.00  0.00    -0.216 NA
HETATM   14  C14 UNL     1      19.602  -0.080  52.264  1.00  0.00     0.199 A 
HETATM   15  O2  UNL     1      20.813   0.479  51.885  1.00  0.00    -0.289 OA
HETATM   16  H10 UNL     1      19.820  -1.692  55.186  1.00  0.00     0.160 HD
ENDROOT
BRANCH   1  17
HETATM   17  N1  UNL     1      26.051   0.204  53.682  1.00  0.00    -0.324 N 
HETATM   18  C3  UNL     1      27.142  -0.606  53.259  1.00  0.00     0.244 C 
HETATM   19  O1  UNL     1      26.737  -1.418  52.357  1.00  0.00    -0.268 OA
HETATM   20  H4  UNL     1      26.106   0.947  54.409  1.00  0.00     0.169 HD
BRANCH  18  21
HETATM   21  C2  UNL     1      28.450  -0.404  53.869  1.00  0.00     0.064 C 
HETATM   22  C1  UNL     1      29.577  -1.002  53.546  1.00  0.00     0.017 C 
ENDBRANCH  18  21
ENDBRANCH   1  17
TORSDOF 2
ENDMDL
MODEL 3
REMARK VINA RESULT:      -7.7      1.200      2.162
REMARK  2 active torsions:
REMARK  status: ('A' for Active; 'I' for Inactive)
REMARK    1  A    between atoms: C2_2  and  C3_3 
REMARK       I    between atoms: C3_3  and  N1_5 
REMARK    2  A    between atoms: N1_5  and  C4_6 
ROOT
HETATM    1  C4  UNL     1      22.039   0.446  51.771  1.00  0.00     0.035 A 
HETATM    2  C5  UNL     1      22.585   1.471  51.029  1.00  0.00     0.032 A 
HETATM    3  C6  UNL     1      23.847   1.906  51.294  1.00  0.00     0.040 A 
HETATM    4  C7  UNL     1      24.582   1.324  52.304  1.00  0.00     0.086 A 
HETATM    5  C8  UNL     1      24.087   0.299  53.074  1.00  0.00    -0.004 A 
HETATM    6  C9  UNL     1      22.792  -0.124  52.778  1.00  0.00     0.041 A 
HETATM    7  C10 UNL     1      24.529  -0.551  54.194  1.00  0.00     0.161 C 
HETATM    8  N2  UNL     1      25.962  -0.542  54.404  1.00  0.00    -0.381 N 
HETATM    9  C11 UNL     1      26.967   0.409  54.187  1.00  0.00     0.100 A 
HETATM   10  C12 UNL     1      28.102   0.219  54.926  1.00  0.00     0.151 A 
HETATM   11  N3  UNL     1      29.138   1.082  54.793  1.00  0.00    -0.252 NA
HETATM   12  C13 UNL     1      29.026   2.116  53.929  1.00  0.00     0.235 A 
HETATM   13  N4  UNL     1      27.930   2.341  53.181  1.00  0.00    -0.216 NA
HETATM   14  C14 UNL     1      26.894   1.475  53.317  1.00  0.00     0.199 A 
HETATM   15  O2  UNL     1      25.854   1.851  52.481  1.00  0.00    -0.289 OA
HETATM   16  H10 UNL     1      26.308  -1.460  54.810  1.00  0.00     0.160 HD
ENDROOT
BRANCH   1  17
HETATM   17  N1  UNL     1      20.720   0.027  51.457  1.00  0.00    -0.324 N 
HETATM   18  C3  UNL     1      19.457   0.514  51.896  1.00  0.00     0.244 C 
HETATM   19  O1  UNL     1      19.640   1.490  52.702  1.00  0.00    -0.268 OA
HETATM   20  H4  UNL     1      20.856  -0.766  50.797  1.00  0.00     0.169 HD
BRANCH  18  21
HETATM   21  C2  UNL     1      18.243  -0.123  51.401  1.00  0.00     0.064 C 
HETATM   22  C1  UNL     1      17.358  -0.799  52.102  1.00  0.00     0.017 C 
ENDBRANCH  18  21
ENDBRANCH   1  17
TORSDOF 2
ENDMDL
MODEL 4
REMARK VINA RESULT:      -7.5      1.880      7.454
REMARK  2 active torsions:
REMARK  status: ('A' for Active; 'I' for Inactive)
REMARK    1  A    between atoms: C2_2  and  C3_3 
REMARK       I    between atoms: C3_3  and  N1_5 
REMARK    2  A    between atoms: N1_5  and  C4_6 
ROOT
HETATM    1  C4  UNL     1      24.859  -0.111  53.756  1.00  0.00     0.035 A 
HETATM    2  C5  UNL     1      24.255  -0.904  54.708  1.00  0.00     0.032 A 
HETATM    3  C6  UNL     1      22.912  -1.116  54.666  1.00  0.00     0.040 A 
HETATM    4  C7  UNL     1      22.152  -0.539  53.671  1.00  0.00     0.086 A 
HETATM    5  C8  UNL     1      22.702   0.260  52.697  1.00  0.00    -0.004 A 
HETATM    6  C9  UNL     1      24.080   0.458  52.769  1.00  0.00     0.041 A 
HETATM    7  C10 UNL     1      22.258   1.027  51.519  1.00  0.00     0.161 C 
HETATM    8  N2  UNL     1      20.941   0.656  51.043  1.00  0.00    -0.381 N 
HETATM    9  C11 UNL     1      19.792   0.154  51.666  1.00  0.00     0.100 A 
HETATM   10  C12 UNL     1      18.630   0.365  50.974  1.00  0.00     0.151 A 
HETATM   11  N3  UNL     1      17.457  -0.081  51.488  1.00  0.00    -0.252 NA
HETATM   12  C13 UNL     1      17.462  -0.725  52.676  1.00  0.00     0.235 A 
HETATM   13  N4  UNL     1      18.579  -0.955  53.390  1.00  0.00    -0.216 NA
HETATM   14  C14 UNL     1      19.752  -0.508  52.874  1.00  0.00     0.199 A 
HETATM   15  O2  UNL     1      20.795  -0.826  53.730  1.00  0.00    -0.289 OA
HETATM   16  H10 UNL     1      20.844   0.801  49.996  1.00  0.00     0.160 HD
ENDROOT
BRANCH   1  17
HETATM   17  N1  UNL     1      26.263   0.081  53.843  1.00  0.00    -0.324 N 
HETATM   18  C3  UNL     1      27.338  -0.588  53.193  1.00  0.00     0.244 C 
HETATM   19  O1  UNL     1      26.865  -1.494  52.423  1.00  0.00    -0.268 OA
HETATM   20  H4  UNL     1      26.371   0.861  54.524  1.00  0.00     0.169 HD
BRANCH  18  21
HETATM   21  C2  UNL     1      28.705  -0.173  53.480  1.00  0.00     0.064 C 
HETATM   22  C1  UNL     1      29.743  -0.954  53.694  1.00  0.00     0.017 C 
ENDBRANCH  18  21
ENDBRANCH   1  17
TORSDOF 2
ENDMDL
MODEL 5
REMARK VINA RESULT:      -7.5      2.240      7.361
REMARK  2 active torsions:
REMARK  status: ('A' for Active; 'I' for Inactive)
REMARK    1  A    between atoms: C2_2  and  C3_3 
REMARK       I    between atoms: C3_3  and  N1_5 
REMARK    2  A    between atoms: N1_5  and  C4_6 
ROOT
HETATM    1  C4  UNL     1      26.497   0.769  52.363  1.00  0.00     0.035 A 
HETATM    2  C5  UNL     1      26.667   1.960  51.689  1.00  0.00     0.032 A 
HETATM    3  C6  UNL     1      25.587   2.724  51.373  1.00  0.00     0.040 A 
HETATM    4  C7  UNL     1      24.320   2.309  51.723  1.00  0.00     0.086 A 
HETATM    5  C8  UNL     1      24.092   1.131  52.394  1.00  0.00    -0.004 A 
HETATM    6  C9  UNL     1      25.220   0.371  52.705  1.00  0.00     0.041 A 
HETATM    7  C10 UNL     1      22.949   0.367  52.925  1.00  0.00     0.161 C 
HETATM    8  N2  UNL     1      21.734   1.146  53.050  1.00  0.00    -0.381 N 
HETATM    9  C11 UNL     1      21.210   2.243  52.354  1.00  0.00     0.100 A 
HETATM   10  C12 UNL     1      19.856   2.398  52.470  1.00  0.00     0.151 A 
HETATM   11  N3  UNL     1      19.245   3.429  51.835  1.00  0.00    -0.252 NA
HETATM   12  C13 UNL     1      19.992   4.283  51.101  1.00  0.00     0.235 A 
HETATM   13  N4  UNL     1      21.325   4.170  50.960  1.00  0.00    -0.216 NA
HETATM   14  C14 UNL     1      21.934   3.137  51.596  1.00  0.00     0.199 A 
HETATM   15  O2  UNL     1      23.297   3.169  51.347  1.00  0.00    -0.289 OA
HETATM   16  H10 UNL     1      21.121   0.798  53.844  1.00  0.00     0.160 HD
ENDROOT
BRANCH   1  17
HETATM   17  N1  UNL     1      27.654   0.007  52.671  1.00  0.00    -0.324 N 
HETATM   18  C3  UNL     1      28.522   0.043  53.798  1.00  0.00     0.244 C 
HETATM   19  O1  UNL     1      28.112   0.938  54.615  1.00  0.00    -0.268 OA
HETATM   20  H4  UNL     1      27.761  -0.632  51.856  1.00  0.00     0.169 HD
BRANCH  18  21
HETATM   21  C2  UNL     1      29.656  -0.872  53.847  1.00  0.00     0.064 C 
HETATM   22  C1  UNL     1      29.696  -2.110  53.402  1.00  0.00     0.017 C 
ENDBRANCH  18  21
ENDBRANCH   1  17
TORSDOF 2
ENDMDL
MODEL 6
REMARK VINA RESULT:      -7.4      3.431      6.269
REMARK  2 active torsions:
REMARK  status: ('A' for Active; 'I' for Inactive)
REMARK    1  A    between atoms: C2_2  and  C3_3 
REMARK       I    between atoms: C3_3  and  N1_5 
REMARK    2  A    between atoms: N1_5  and  C4_6 
ROOT
HETATM    1  C4  UNL     1      25.773   3.074  50.106  1.00  0.00     0.035 A 
HETATM    2  C5  UNL     1      24.429   3.130  49.804  1.00  0.00     0.032 A 
HETATM    3  C6  UNL     1      23.540   2.381  50.510  1.00  0.00     0.040 A 
HETATM    4  C7  UNL     1      23.981   1.564  51.529  1.00  0.00     0.086 A 
HETATM    5  C8  UNL     1      25.308   1.469  51.872  1.00  0.00    -0.004 A 
HETATM    6  C9  UNL     1      26.193   2.250  51.130  1.00  0.00     0.041 A 
HETATM    7  C10 UNL     1      26.146   0.750  52.848  1.00  0.00     0.161 C 
HETATM    8  N2  UNL     1      25.400   0.184  53.954  1.00  0.00    -0.381 N 
HETATM    9  C11 UNL     1      24.095  -0.302  54.093  1.00  0.00     0.100 A 
HETATM   10  C12 UNL     1      23.915  -1.160  55.144  1.00  0.00     0.151 A 
HETATM   11  N3  UNL     1      22.688  -1.691  55.370  1.00  0.00    -0.252 NA
HETATM   12  C13 UNL     1      21.666  -1.358  54.550  1.00  0.00     0.235 A 
HETATM   13  N4  UNL     1      21.797  -0.518  53.506  1.00  0.00    -0.216 NA
HETATM   14  C14 UNL     1      23.026   0.011  53.282  1.00  0.00     0.199 A 
HETATM   15  O2  UNL     1      22.984   0.847  52.177  1.00  0.00    -0.289 OA
HETATM   16  H10 UNL     1      25.983   0.135  54.839  1.00  0.00     0.160 HD
ENDROOT
BRANCH   1  17
HETATM   17  N1  UNL     1      26.661   3.875  49.341  1.00  0.00    -0.324 N 
HETATM   18  C3  UNL     1      26.755   5.288  49.198  1.00  0.00     0.244 C 
HETATM   19  O1  UNL     1      25.853   5.844  49.913  1.00  0.00    -0.268 OA
HETATM   20  H4  UNL     1      27.278   3.185  48.865  1.00  0.00     0.169 HD
BRANCH  18  21
HETATM   21  C2  UNL     1      27.784   5.843  48.327  1.00  0.00     0.064 C 
HETATM   22  C1  UNL     1      29.038   5.452  48.230  1.00  0.00     0.017 C 
ENDBRANCH  18  21
ENDBRANCH   1  17
TORSDOF 2
ENDMDL
MODEL 7
REMARK VINA RESULT:      -7.3      2.197      7.057
REMARK  2 active torsions:
REMARK  status: ('A' for Active; 'I' for Inactive)
REMARK    1  A    between atoms: C2_2  and  C3_3 
REMARK       I    between atoms: C3_3  and  N1_5 
REMARK    2  A    between atoms: N1_5  and  C4_6 
ROOT
HETATM    1  C4  UNL     1      25.608   0.352  52.948  1.00  0.00     0.035 A 
HETATM    2  C5  UNL     1      24.588  -0.373  53.526  1.00  0.00     0.032 A 
HETATM    3  C6  UNL     1      23.300   0.051  53.412  1.00  0.00     0.040 A 
HETATM    4  C7  UNL     1      23.013   1.207  52.720  1.00  0.00     0.086 A 
HETATM    5  C8  UNL     1      23.990   1.969  52.124  1.00  0.00    -0.004 A 
HETATM    6  C9  UNL     1      25.298   1.507  52.258  1.00  0.00     0.041 A 
HETATM    7  C10 UNL     1      24.093   3.208  51.333  1.00  0.00     0.161 C 
HETATM    8  N2  UNL     1      22.835   3.640  50.758  1.00  0.00    -0.381 N 
HETATM    9  C11 UNL     1      21.496   3.509  51.147  1.00  0.00     0.100 A 
HETATM   10  C12 UNL     1      20.649   4.431  50.595  1.00  0.00     0.151 A 
HETATM   11  N3  UNL     1      19.330   4.395  50.904  1.00  0.00    -0.252 NA
HETATM   12  C13 UNL     1      18.880   3.445  51.754  1.00  0.00     0.235 A 
HETATM   13  N4  UNL     1      19.676   2.519  52.319  1.00  0.00    -0.216 NA
HETATM   14  C14 UNL     1      20.996   2.557  52.008  1.00  0.00     0.199 A 
HETATM   15  O2  UNL     1      21.666   1.541  52.671  1.00  0.00    -0.289 OA
HETATM   16  H10 UNL     1      22.977   4.167  49.847  1.00  0.00     0.160 HD
ENDROOT
BRANCH   1  17
HETATM   17  N1  UNL     1      26.934  -0.132  53.094  1.00  0.00    -0.324 N 
HETATM   18  C3  UNL     1      27.923   0.139  54.081  1.00  0.00     0.244 C 
HETATM   19  O1  UNL     1      27.448   0.963  54.936  1.00  0.00    -0.268 OA
HETATM   20  H4  UNL     1      27.062  -0.770  52.282  1.00  0.00     0.169 HD
BRANCH  18  21
HETATM   21  C2  UNL     1      29.223  -0.511  53.976  1.00  0.00     0.064 C 
HETATM   22  C1  UNL     1      29.487  -1.671  53.413  1.00  0.00     0.017 C 
ENDBRANCH  18  21
ENDBRANCH   1  17
TORSDOF 2
ENDMDL
MODEL 8
REMARK VINA RESULT:      -7.3      3.403      4.242
REMARK  2 active torsions:
REMARK  status: ('A' for Active; 'I' for Inactive)
REMARK    1  A    between atoms: C2_2  and  C3_3 
REMARK       I    between atoms: C3_3  and  N1_5 
REMARK    2  A    between atoms: N1_5  and  C4_6 
ROOT
HETATM    1  C4  UNL     1      23.956   3.459  49.339  1.00  0.00     0.035 A 
HETATM    2  C5  UNL     1      25.215   3.911  49.005  1.00  0.00     0.032 A 
HETATM    3  C6  UNL     1      26.282   3.598  49.789  1.00  0.00     0.040 A 
HETATM    4  C7  UNL     1      26.106   2.829  50.920  1.00  0.00     0.086 A 
HETATM    5  C8  UNL     1      24.874   2.352  51.300  1.00  0.00    -0.004 A 
HETATM    6  C9  UNL     1      23.802   2.690  50.475  1.00  0.00     0.041 A 
HETATM    7  C10 UNL     1      24.292   1.539  52.382  1.00  0.00     0.161 C 
HETATM    8  N2  UNL     1      25.270   0.774  53.128  1.00  0.00    -0.381 N 
HETATM    9  C11 UNL     1      26.621   0.971  53.440  1.00  0.00     0.100 A 
HETATM   10  C12 UNL     1      27.063   0.270  54.529  1.00  0.00     0.151 A 
HETATM   11  N3  UNL     1      28.356   0.387  54.919  1.00  0.00    -0.252 NA
HETATM   12  C13 UNL     1      29.182   1.198  54.221  1.00  0.00     0.235 A 
HETATM   13  N4  UNL     1      28.791   1.905  53.145  1.00  0.00    -0.216 NA
HETATM   14  C14 UNL     1      27.497   1.785  52.757  1.00  0.00     0.199 A 
HETATM   15  O2  UNL     1      27.265   2.575  51.641  1.00  0.00    -0.289 OA
HETATM   16  H10 UNL     1      24.858  -0.125  53.513  1.00  0.00     0.160 HD
ENDROOT
BRANCH   1  17
HETATM   17  N1  UNL     1      22.875   3.812  48.489  1.00  0.00    -0.324 N 
HETATM   18  C3  UNL     1      22.224   3.082  47.455  1.00  0.00     0.244 C 
HETATM   19  O1  UNL     1      22.769   1.930  47.347  1.00  0.00    -0.268 OA
HETATM   20  H4  UNL     1      22.628   4.780  48.782  1.00  0.00     0.169 HD
BRANCH  18  21
HETATM   21  C2  UNL     1      21.123   3.708  46.734  1.00  0.00     0.064 C 
HETATM   22  C1  UNL     1      21.031   3.898  45.435  1.00  0.00     0.017 C 
ENDBRANCH  18  21
ENDBRANCH   1  17
TORSDOF 2
ENDMDL
MODEL 9
REMARK VINA RESULT:      -6.9      1.668      7.633
REMARK  2 active torsions:
REMARK  status: ('A' for Active; 'I' for Inactive)
REMARK    1  A    between atoms: C2_2  and  C3_3 
REMARK       I    between atoms: C3_3  and  N1_5 
REMARK    2  A    between atoms: N1_5  and  C4_6 
ROOT
HETATM    1  C4  UNL     1      24.645   2.407  53.122  1.00  0.00     0.035 A 
HETATM    2  C5  UNL     1      24.049   3.559  52.653  1.00  0.00     0.032 A 
HETATM    3  C6  UNL     1      22.744   3.542  52.267  1.00  0.00     0.040 A 
HETATM    4  C7  UNL     1      22.016   2.375  52.343  1.00  0.00     0.086 A 
HETATM    5  C8  UNL     1      22.559   1.198  52.801  1.00  0.00    -0.004 A 
HETATM    6  C9  UNL     1      23.898   1.248  53.189  1.00  0.00     0.041 A 
HETATM    7  C10 UNL     1      22.140  -0.196  53.025  1.00  0.00     0.161 C 
HETATM    8  N2  UNL     1      20.703  -0.377  53.051  1.00  0.00    -0.381 N 
HETATM    9  C11 UNL     1      19.633   0.281  52.432  1.00  0.00     0.100 A 
HETATM   10  C12 UNL     1      18.485  -0.458  52.340  1.00  0.00     0.151 A 
HETATM   11  N3  UNL     1      17.387   0.084  51.758  1.00  0.00    -0.252 NA
HETATM   12  C13 UNL     1      17.451   1.346  51.281  1.00  0.00     0.235 A 
HETATM   13  N4  UNL     1      18.558   2.110  51.350  1.00  0.00    -0.216 NA
HETATM   14  C14 UNL     1      19.655   1.565  51.933  1.00  0.00     0.199 A 
HETATM   15  O2  UNL     1      20.697   2.479  51.921  1.00  0.00    -0.289 OA
HETATM   16  H10 UNL     1      20.417  -1.186  53.676  1.00  0.00     0.160 HD
ENDROOT
BRANCH   1  17
HETATM   17  N1  UNL     1      26.008   2.475  53.513  1.00  0.00    -0.324 N 
HETATM   18  C3  UNL     1      27.199   2.153  52.804  1.00  0.00     0.244 C 
HETATM   19  O1  UNL     1      26.892   1.747  51.630  1.00  0.00    -0.268 OA
HETATM   20  H4  UNL     1      25.973   2.829  54.491  1.00  0.00     0.169 HD
BRANCH  18  21
HETATM   21  C2  UNL     1      28.485   2.323  53.469  1.00  0.00     0.064 C 
HETATM   22  C1  UNL     1      29.139   1.424  54.173  1.00  0.00     0.017 C 
ENDBRANCH  18  21
ENDBRANCH   1  17
TORSDOF 2
ENDMDL
