MODEL 1
REMARK VINA RESULT:      -7.2      0.000      0.000
REMARK  8 active torsions:
REMARK  status: ('A' for Active; 'I' for Inactive)
REMARK    1  A    between atoms: C2_2  and  C3_3 
REMARK    2  A    between atoms: C3_3  and  C4_4 
REMARK    3  A    between atoms: C4_4  and  N1_5 
REMARK    4  A    between atoms: N1_5  and  C5_6 
REMARK       I    between atoms: N1_5  and  C12_15 
REMARK    5  A    between atoms: C5_6  and  C6_7 
REMARK    6  A    between atoms: C11_13  and  O1_14 
REMARK       I    between atoms: C12_15  and  N2_17 
REMARK    7  A    between atoms: N2_17  and  C13_18 
REMARK    8  A    between atoms: C14_19  and  C15_20 
ROOT
HETATM    1  C15 UNL     1      27.067   5.387  48.572  1.00  0.00     0.012 C 
HETATM    2  C16 UNL     1      28.276   5.824  48.331  1.00  0.00     0.093 C 
HETATM    3  C17 UNL     1      28.527   6.951  47.491  1.00  0.00     0.087 C 
HETATM    4  N3  UNL     1      28.713   7.857  46.804  1.00  0.00    -0.192 NA
ENDROOT
BRANCH   1   5
HETATM    5  C14 UNL     1      26.773   4.223  49.437  1.00  0.00     0.018 C 
HETATM    6  C13 UNL     1      25.825   4.295  50.348  1.00  0.00     0.092 C 
BRANCH   6   7
HETATM    7  N2  UNL     1      25.418   3.288  51.248  1.00  0.00    -0.319 N 
HETATM    8  C12 UNL     1      24.231   2.519  51.196  1.00  0.00     0.322 C 
HETATM    9  N1  UNL     1      23.690   1.492  52.013  1.00  0.00    -0.330 N 
HETATM   10  O2  UNL     1      23.404   2.704  50.268  1.00  0.00    -0.247 OA
HETATM   11  H16 UNL     1      25.993   3.003  52.065  1.00  0.00     0.170 HD
BRANCH   9  12
HETATM   12  C4  UNL     1      22.411   1.028  51.451  1.00  0.00     0.128 C 
BRANCH  12  13
HETATM   13  C3  UNL     1      21.802  -0.082  52.263  1.00  0.00     0.020 C 
BRANCH  13  14
HETATM   14  C2  UNL     1      20.395   0.416  52.622  1.00  0.00    -0.003 C 
HETATM   15  C1  UNL     1      20.248   1.886  52.355  1.00  0.00     0.005 C 
ENDBRANCH  13  14
ENDBRANCH  12  13
ENDBRANCH   9  12
BRANCH   9  16
HETATM   16  C5  UNL     1      24.094   0.822  53.263  1.00  0.00     0.169 C 
BRANCH  16  17
HETATM   17  C6  UNL     1      25.514   0.480  53.301  1.00  0.00    -0.005 A 
HETATM   18  C7  UNL     1      25.864  -0.811  52.879  1.00  0.00     0.012 A 
HETATM   19  C8  UNL     1      27.135  -1.340  52.840  1.00  0.00     0.002 A 
HETATM   20  C9  UNL     1      28.166  -0.511  53.258  1.00  0.00     0.026 A 
HETATM   21  C10 UNL     1      27.900   0.775  53.687  1.00  0.00     0.067 A 
HETATM   22 CL1  UNL     1      29.175   1.848  54.223  1.00  0.00    -0.081 Cl
HETATM   23  C11 UNL     1      26.598   1.224  53.695  1.00  0.00     0.095 A 
BRANCH  23  24
HETATM   24  O1  UNL     1      26.331   2.502  54.120  1.00  0.00    -0.358 OA
HETATM   25  H15 UNL     1      26.950   3.295  54.003  1.00  0.00     0.217 HD
ENDBRANCH  23  24
ENDBRANCH  16  17
ENDBRANCH   9  16
ENDBRANCH   6   7
ENDBRANCH   1   5
TORSDOF 8
ENDMDL
MODEL 2
REMARK VINA RESULT:      -6.8      2.481      4.780
REMARK  8 active torsions:
REMARK  status: ('A' for Active; 'I' for Inactive)
REMARK    1  A    between atoms: C2_2  and  C3_3 
REMARK    2  A    between atoms: C3_3  and  C4_4 
REMARK    3  A    between atoms: C4_4  and  N1_5 
REMARK    4  A    between atoms: N1_5  and  C5_6 
REMARK       I    between atoms: N1_5  and  C12_15 
REMARK    5  A    between atoms: C5_6  and  C6_7 
REMARK    6  A    between atoms: C11_13  and  O1_14 
REMARK       I    between atoms: C12_15  and  N2_17 
REMARK    7  A    between atoms: N2_17  and  C13_18 
REMARK    8  A    between atoms: C14_19  and  C15_20 
ROOT
HETATM    1  C15 UNL     1      27.015   5.267  48.719  1.00  0.00     0.012 C 
HETATM    2  C16 UNL     1      26.116   6.215  48.781  1.00  0.00     0.093 C 
HETATM    3  C17 UNL     1      26.318   7.499  48.188  1.00  0.00     0.087 C 
HETATM    4  N3  UNL     1      26.499   8.531  47.711  1.00  0.00    -0.192 NA
ENDROOT
BRANCH   1   5
HETATM    5  C14 UNL     1      26.837   3.928  49.322  1.00  0.00     0.018 C 
HETATM    6  C13 UNL     1      25.844   3.701  50.155  1.00  0.00     0.092 C 
BRANCH   6   7
HETATM    7  N2  UNL     1      25.532   2.492  50.813  1.00  0.00    -0.319 N 
HETATM    8  C12 UNL     1      26.143   1.965  51.976  1.00  0.00     0.322 C 
HETATM    9  N1  UNL     1      25.946   0.784  52.740  1.00  0.00    -0.330 N 
HETATM   10  O2  UNL     1      27.074   2.597  52.536  1.00  0.00    -0.247 OA
HETATM   11  H16 UNL     1      24.778   1.855  50.486  1.00  0.00     0.170 HD
BRANCH   9  12
HETATM   12  C4  UNL     1      26.869   0.772  53.887  1.00  0.00     0.128 C 
BRANCH  12  13
HETATM   13  C3  UNL     1      27.369  -0.611  54.200  1.00  0.00     0.020 C 
BRANCH  13  14
HETATM   14  C2  UNL     1      28.651  -0.765  53.370  1.00  0.00    -0.003 C 
HETATM   15  C1  UNL     1      29.634   0.330  53.670  1.00  0.00     0.005 C 
ENDBRANCH  13  14
ENDBRANCH  12  13
ENDBRANCH   9  12
BRANCH   9  16
HETATM   16  C5  UNL     1      25.074  -0.399  52.637  1.00  0.00     0.169 C 
BRANCH  16  17
HETATM   17  C6  UNL     1      23.736  -0.178  53.183  1.00  0.00    -0.005 A 
HETATM   18  C7  UNL     1      23.432  -0.823  54.390  1.00  0.00     0.012 A 
HETATM   19  C8  UNL     1      22.237  -0.758  55.072  1.00  0.00     0.002 A 
HETATM   20  C9  UNL     1      21.240   0.025  54.505  1.00  0.00     0.026 A 
HETATM   21  C10 UNL     1      21.465   0.692  53.317  1.00  0.00     0.067 A 
HETATM   22 CL1  UNL     1      20.232   1.685  52.572  1.00  0.00    -0.081 Cl
HETATM   23  C11 UNL     1      22.691   0.570  52.700  1.00  0.00     0.095 A 
BRANCH  23  24
HETATM   24  O1  UNL     1      22.917   1.233  51.519  1.00  0.00    -0.358 OA
HETATM   25  H15 UNL     1      22.867   2.236  51.397  1.00  0.00     0.217 HD
ENDBRANCH  23  24
ENDBRANCH  16  17
ENDBRANCH   9  16
ENDBRANCH   6   7
ENDBRANCH   1   5
TORSDOF 8
ENDMDL
MODEL 3
REMARK VINA RESULT:      -6.6      2.449      6.998
REMARK  8 active torsions:
REMARK  status: ('A' for Active; 'I' for Inactive)
REMARK    1  A    between atoms: C2_2  and  C3_3 
REMARK    2  A    between atoms: C3_3  and  C4_4 
REMARK    3  A    between atoms: C4_4  and  N1_5 
REMARK    4  A    between atoms: N1_5  and  C5_6 
REMARK       I    between atoms: N1_5  and  C12_15 
REMARK    5  A    between atoms: C5_6  and  C6_7 
REMARK    6  A    between atoms: C11_13  and  O1_14 
REMARK       I    between atoms: C12_15  and  N2_17 
REMARK    7  A    between atoms: N2_17  and  C13_18 
REMARK    8  A    between atoms: C14_19  and  C15_20 
ROOT
HETATM    1  C15 UNL     1      18.160  -0.838  52.758  1.00  0.00     0.012 C 
HETATM    2  C16 UNL     1      17.608  -0.412  51.652  1.00  0.00     0.093 C 
HETATM    3  C17 UNL     1      16.300  -0.817  51.246  1.00  0.00     0.087 C 
HETATM    4  N3  UNL     1      15.248  -1.159  50.928  1.00  0.00    -0.192 NA
ENDROOT
BRANCH   1   5
HETATM    5  C14 UNL     1      19.512  -0.438  53.207  1.00  0.00     0.018 C 
HETATM    6  C13 UNL     1      20.191   0.473  52.542  1.00  0.00     0.092 C 
BRANCH   6   7
HETATM    7  N2  UNL     1      21.481   0.966  52.831  1.00  0.00    -0.319 N 
HETATM    8  C12 UNL     1      22.435   1.467  51.912  1.00  0.00     0.322 C 
HETATM    9  N1  UNL     1      23.749   1.986  52.047  1.00  0.00    -0.330 N 
HETATM   10  O2  UNL     1      22.163   1.505  50.686  1.00  0.00    -0.247 OA
HETATM   11  H16 UNL     1      21.857   1.015  53.798  1.00  0.00     0.170 HD
BRANCH   9  12
HETATM   12  C4  UNL     1      24.264   2.390  50.727  1.00  0.00     0.128 C 
BRANCH  12  13
HETATM   13  C3  UNL     1      25.133   3.614  50.807  1.00  0.00     0.020 C 
BRANCH  13  14
HETATM   14  C2  UNL     1      26.419   3.236  50.059  1.00  0.00    -0.003 C 
HETATM   15  C1  UNL     1      26.883   4.349  49.165  1.00  0.00     0.005 C 
ENDBRANCH  13  14
ENDBRANCH  12  13
ENDBRANCH   9  12
BRANCH   9  16
HETATM   16  C5  UNL     1      24.689   2.187  53.164  1.00  0.00     0.169 C 
BRANCH  16  17
HETATM   17  C6  UNL     1      25.788   1.222  53.173  1.00  0.00    -0.005 A 
HETATM   18  C7  UNL     1      25.473  -0.097  52.814  1.00  0.00     0.012 A 
HETATM   19  C8  UNL     1      26.348  -1.159  52.762  1.00  0.00     0.002 A 
HETATM   20  C9  UNL     1      27.669  -0.893  53.097  1.00  0.00     0.026 A 
HETATM   21  C10 UNL     1      28.055   0.382  53.460  1.00  0.00     0.067 A 
HETATM   22 CL1  UNL     1      29.710   0.754  53.890  1.00  0.00    -0.081 Cl
HETATM   23  C11 UNL     1      27.113   1.388  53.487  1.00  0.00     0.095 A 
BRANCH  23  24
HETATM   24  O1  UNL     1      27.496   2.656  53.847  1.00  0.00    -0.358 OA
HETATM   25  H15 UNL     1      27.491   3.461  53.233  1.00  0.00     0.217 HD
ENDBRANCH  23  24
ENDBRANCH  16  17
ENDBRANCH   9  16
ENDBRANCH   6   7
ENDBRANCH   1   5
TORSDOF 8
ENDMDL
MODEL 4
REMARK VINA RESULT:      -6.6      1.857      2.263
REMARK  8 active torsions:
REMARK  status: ('A' for Active; 'I' for Inactive)
REMARK    1  A    between atoms: C2_2  and  C3_3 
REMARK    2  A    between atoms: C3_3  and  C4_4 
REMARK    3  A    between atoms: C4_4  and  N1_5 
REMARK    4  A    between atoms: N1_5  and  C5_6 
REMARK       I    between atoms: N1_5  and  C12_15 
REMARK    5  A    between atoms: C5_6  and  C6_7 
REMARK    6  A    between atoms: C11_13  and  O1_14 
REMARK       I    between atoms: C12_15  and  N2_17 
REMARK    7  A    between atoms: N2_17  and  C13_18 
REMARK    8  A    between atoms: C14_19  and  C15_20 
ROOT
HETATM    1  C15 UNL     1      26.263   6.327  48.416  1.00  0.00     0.012 C 
HETATM    2  C16 UNL     1      27.251   7.159  48.215  1.00  0.00     0.093 C 
HETATM    3  C17 UNL     1      27.453   7.817  46.964  1.00  0.00     0.087 C 
HETATM    4  N3  UNL     1      27.606   8.334  45.946  1.00  0.00    -0.192 NA
ENDROOT
BRANCH   1   5
HETATM    5  C14 UNL     1      26.026   5.629  49.699  1.00  0.00     0.018 C 
HETATM    6  C13 UNL     1      26.438   4.390  49.868  1.00  0.00     0.092 C 
BRANCH   6   7
HETATM    7  N2  UNL     1      26.296   3.585  51.018  1.00  0.00    -0.319 N 
HETATM    8  C12 UNL     1      25.280   2.636  51.281  1.00  0.00     0.322 C 
HETATM    9  N1  UNL     1      25.005   1.768  52.371  1.00  0.00    -0.330 N 
HETATM   10  O2  UNL     1      24.372   2.438  50.435  1.00  0.00    -0.247 OA
HETATM   11  H16 UNL     1      26.969   3.616  51.809  1.00  0.00     0.170 HD
BRANCH   9  12
HETATM   12  C4  UNL     1      23.805   0.965  52.080  1.00  0.00     0.128 C 
BRANCH  12  13
HETATM   13  C3  UNL     1      23.065   0.576  53.330  1.00  0.00     0.020 C 
BRANCH  13  14
HETATM   14  C2  UNL     1      22.350  -0.735  52.973  1.00  0.00    -0.003 C 
HETATM   15  C1  UNL     1      21.460  -1.197  54.091  1.00  0.00     0.005 C 
ENDBRANCH  13  14
ENDBRANCH  12  13
ENDBRANCH   9  12
BRANCH   9  16
HETATM   16  C5  UNL     1      25.614   1.511  53.688  1.00  0.00     0.169 C 
BRANCH  16  17
HETATM   17  C6  UNL     1      26.901   0.821  53.604  1.00  0.00    -0.005 A 
HETATM   18  C7  UNL     1      28.050   1.606  53.774  1.00  0.00     0.012 A 
HETATM   19  C8  UNL     1      29.354   1.164  53.727  1.00  0.00     0.002 A 
HETATM   20  C9  UNL     1      29.542  -0.191  53.490  1.00  0.00     0.026 A 
HETATM   21  C10 UNL     1      28.458  -1.028  53.313  1.00  0.00     0.067 A 
HETATM   22 CL1  UNL     1      28.657  -2.740  53.010  1.00  0.00    -0.081 Cl
HETATM   23  C11 UNL     1      27.186  -0.501  53.374  1.00  0.00     0.095 A 
BRANCH  23  24
HETATM   24  O1  UNL     1      26.107  -1.332  53.199  1.00  0.00    -0.358 OA
HETATM   25  H15 UNL     1      25.255  -1.302  53.745  1.00  0.00     0.217 HD
ENDBRANCH  23  24
ENDBRANCH  16  17
ENDBRANCH   9  16
ENDBRANCH   6   7
ENDBRANCH   1   5
TORSDOF 8
ENDMDL
MODEL 5
REMARK VINA RESULT:      -6.5      1.336      1.820
REMARK  8 active torsions:
REMARK  status: ('A' for Active; 'I' for Inactive)
REMARK    1  A    between atoms: C2_2  and  C3_3 
REMARK    2  A    between atoms: C3_3  and  C4_4 
REMARK    3  A    between atoms: C4_4  and  N1_5 
REMARK    4  A    between atoms: N1_5  and  C5_6 
REMARK       I    between atoms: N1_5  and  C12_15 
REMARK    5  A    between atoms: C5_6  and  C6_7 
REMARK    6  A    between atoms: C11_13  and  O1_14 
REMARK       I    between atoms: C12_15  and  N2_17 
REMARK    7  A    between atoms: N2_17  and  C13_18 
REMARK    8  A    between atoms: C14_19  and  C15_20 
ROOT
HETATM    1  C15 UNL     1      27.840   6.504  47.813  1.00  0.00     0.012 C 
HETATM    2  C16 UNL     1      29.106   6.828  47.760  1.00  0.00     0.093 C 
HETATM    3  C17 UNL     1      29.603   7.826  46.867  1.00  0.00     0.087 C 
HETATM    4  N3  UNL     1      29.989   8.627  46.136  1.00  0.00    -0.192 NA
ENDROOT
BRANCH   1   5
HETATM    5  C14 UNL     1      27.294   5.476  48.726  1.00  0.00     0.018 C 
HETATM    6  C13 UNL     1      26.286   5.764  49.523  1.00  0.00     0.092 C 
BRANCH   6   7
HETATM    7  N2  UNL     1      25.649   4.909  50.447  1.00  0.00    -0.319 N 
HETATM    8  C12 UNL     1      24.636   3.957  50.179  1.00  0.00     0.322 C 
HETATM    9  N1  UNL     1      23.909   3.044  50.986  1.00  0.00    -0.330 N 
HETATM   10  O2  UNL     1      24.214   3.805  49.005  1.00  0.00    -0.247 OA
HETATM   11  H16 UNL     1      25.889   4.900  51.458  1.00  0.00     0.170 HD
BRANCH   9  12
HETATM   12  C4  UNL     1      22.982   2.265  50.148  1.00  0.00     0.128 C 
BRANCH  12  13
HETATM   13  C3  UNL     1      21.616   2.151  50.765  1.00  0.00     0.020 C 
BRANCH  13  14
HETATM   14  C2  UNL     1      21.266   0.658  50.681  1.00  0.00    -0.003 C 
HETATM   15  C1  UNL     1      20.734   0.144  51.988  1.00  0.00     0.005 C 
ENDBRANCH  13  14
ENDBRANCH  12  13
ENDBRANCH   9  12
BRANCH   9  16
HETATM   16  C5  UNL     1      23.857   2.724  52.424  1.00  0.00     0.169 C 
BRANCH  16  17
HETATM   17  C6  UNL     1      24.754   1.633  52.804  1.00  0.00    -0.005 A 
HETATM   18  C7  UNL     1      24.154   0.412  53.144  1.00  0.00     0.012 A 
HETATM   19  C8  UNL     1      24.806  -0.736  53.535  1.00  0.00     0.002 A 
HETATM   20  C9  UNL     1      26.192  -0.674  53.596  1.00  0.00     0.026 A 
HETATM   21  C10 UNL     1      26.854   0.495  53.275  1.00  0.00     0.067 A 
HETATM   22 CL1  UNL     1      28.599   0.611  53.342  1.00  0.00    -0.081 Cl
HETATM   23  C11 UNL     1      26.123   1.599  52.894  1.00  0.00     0.095 A 
BRANCH  23  24
HETATM   24  O1  UNL     1      26.780   2.761  52.574  1.00  0.00    -0.358 OA
HETATM   25  H15 UNL     1      27.475   2.854  51.844  1.00  0.00     0.217 HD
ENDBRANCH  23  24
ENDBRANCH  16  17
ENDBRANCH   9  16
ENDBRANCH   6   7
ENDBRANCH   1   5
TORSDOF 8
ENDMDL
MODEL 6
REMARK VINA RESULT:      -6.3      3.936      6.246
REMARK  8 active torsions:
REMARK  status: ('A' for Active; 'I' for Inactive)
REMARK    1  A    between atoms: C2_2  and  C3_3 
REMARK    2  A    between atoms: C3_3  and  C4_4 
REMARK    3  A    between atoms: C4_4  and  N1_5 
REMARK    4  A    between atoms: N1_5  and  C5_6 
REMARK       I    between atoms: N1_5  and  C12_15 
REMARK    5  A    between atoms: C5_6  and  C6_7 
REMARK    6  A    between atoms: C11_13  and  O1_14 
REMARK       I    between atoms: C12_15  and  N2_17 
REMARK    7  A    between atoms: N2_17  and  C13_18 
REMARK    8  A    between atoms: C14_19  and  C15_20 
ROOT
HETATM    1  C15 UNL     1      27.073  -0.813  52.936  1.00  0.00     0.012 C 
HETATM    2  C16 UNL     1      28.218  -0.205  53.101  1.00  0.00     0.093 C 
HETATM    3  C17 UNL     1      29.352  -0.854  53.678  1.00  0.00     0.087 C 
HETATM    4  N3  UNL     1      30.255  -1.390  54.151  1.00  0.00    -0.192 NA
ENDROOT
BRANCH   1   5
HETATM    5  C14 UNL     1      25.880  -0.170  52.343  1.00  0.00     0.018 C 
HETATM    6  C13 UNL     1      24.800   0.025  53.069  1.00  0.00     0.092 C 
BRANCH   6   7
HETATM    7  N2  UNL     1      23.586   0.619  52.664  1.00  0.00    -0.319 N 
HETATM    8  C12 UNL     1      22.275   0.136  52.891  1.00  0.00     0.322 C 
HETATM    9  N1  UNL     1      20.981   0.610  52.550  1.00  0.00    -0.330 N 
HETATM   10  O2  UNL     1      22.103  -0.938  53.521  1.00  0.00    -0.247 OA
HETATM   11  H16 UNL     1      23.549   1.517  52.142  1.00  0.00     0.170 HD
BRANCH   9  12
HETATM   12  C4  UNL     1      19.957  -0.306  53.083  1.00  0.00     0.128 C 
BRANCH  12  13
HETATM   13  C3  UNL     1      18.722  -0.338  52.226  1.00  0.00     0.020 C 
BRANCH  13  14
HETATM   14  C2  UNL     1      17.683  -1.104  53.058  1.00  0.00    -0.003 C 
HETATM   15  C1  UNL     1      18.278  -2.333  53.683  1.00  0.00     0.005 C 
ENDBRANCH  13  14
ENDBRANCH  12  13
ENDBRANCH   9  12
BRANCH   9  16
HETATM   16  C5  UNL     1      20.448   1.757  51.794  1.00  0.00     0.169 C 
BRANCH  16  17
HETATM   17  C6  UNL     1      21.236   2.079  50.605  1.00  0.00    -0.005 A 
HETATM   18  C7  UNL     1      20.875   1.433  49.414  1.00  0.00     0.012 A 
HETATM   19  C8  UNL     1      21.483   1.584  48.187  1.00  0.00     0.002 A 
HETATM   20  C9  UNL     1      22.555   2.464  48.129  1.00  0.00     0.026 A 
HETATM   21  C10 UNL     1      22.969   3.138  49.261  1.00  0.00     0.067 A 
HETATM   22 CL1  UNL     1      24.317   4.253  49.226  1.00  0.00    -0.081 Cl
HETATM   23  C11 UNL     1      22.304   2.927  50.450  1.00  0.00     0.095 A 
BRANCH  23  24
HETATM   24  O1  UNL     1      22.714   3.597  51.576  1.00  0.00    -0.358 OA
HETATM   25  H15 UNL     1      23.654   3.931  51.744  1.00  0.00     0.217 HD
ENDBRANCH  23  24
ENDBRANCH  16  17
ENDBRANCH   9  16
ENDBRANCH   6   7
ENDBRANCH   1   5
TORSDOF 8
ENDMDL
MODEL 7
REMARK VINA RESULT:      -6.3      3.316      6.220
REMARK  8 active torsions:
REMARK  status: ('A' for Active; 'I' for Inactive)
REMARK    1  A    between atoms: C2_2  and  C3_3 
REMARK    2  A    between atoms: C3_3  and  C4_4 
REMARK    3  A    between atoms: C4_4  and  N1_5 
REMARK    4  A    between atoms: N1_5  and  C5_6 
REMARK       I    between atoms: N1_5  and  C12_15 
REMARK    5  A    between atoms: C5_6  and  C6_7 
REMARK    6  A    between atoms: C11_13  and  O1_14 
REMARK       I    between atoms: C12_15  and  N2_17 
REMARK    7  A    between atoms: N2_17  and  C13_18 
REMARK    8  A    between atoms: C14_19  and  C15_20 
ROOT
HETATM    1  C15 UNL     1      27.280   0.511  54.304  1.00  0.00     0.012 C 
HETATM    2  C16 UNL     1      28.260   0.409  53.444  1.00  0.00     0.093 C 
HETATM    3  C17 UNL     1      29.332  -0.520  53.613  1.00  0.00     0.087 C 
HETATM    4  N3  UNL     1      30.192  -1.269  53.769  1.00  0.00    -0.192 NA
ENDROOT
BRANCH   1   5
HETATM    5  C14 UNL     1      26.156   1.462  54.157  1.00  0.00     0.018 C 
HETATM    6  C13 UNL     1      25.982   2.116  53.029  1.00  0.00     0.092 C 
BRANCH   6   7
HETATM    7  N2  UNL     1      24.970   3.051  52.723  1.00  0.00    -0.319 N 
HETATM    8  C12 UNL     1      23.582   2.804  52.598  1.00  0.00     0.322 C 
HETATM    9  N1  UNL     1      22.462   3.623  52.298  1.00  0.00    -0.330 N 
HETATM   10  O2  UNL     1      23.135   1.642  52.768  1.00  0.00    -0.247 OA
HETATM   11  H16 UNL     1      25.169   4.058  52.564  1.00  0.00     0.170 HD
BRANCH   9  12
HETATM   12  C4  UNL     1      21.230   2.817  52.333  1.00  0.00     0.128 C 
BRANCH  12  13
HETATM   13  C3  UNL     1      20.378   3.028  51.112  1.00  0.00     0.020 C 
BRANCH  13  14
HETATM   14  C2  UNL     1      20.917   2.031  50.076  1.00  0.00    -0.003 C 
HETATM   15  C1  UNL     1      20.122   2.077  48.803  1.00  0.00     0.005 C 
ENDBRANCH  13  14
ENDBRANCH  12  13
ENDBRANCH   9  12
BRANCH   9  16
HETATM   16  C5  UNL     1      22.261   5.041  51.952  1.00  0.00     0.169 C 
BRANCH  16  17
HETATM   17  C6  UNL     1      23.183   5.520  50.923  1.00  0.00    -0.005 A 
HETATM   18  C7  UNL     1      22.989   5.029  49.624  1.00  0.00     0.012 A 
HETATM   19  C8  UNL     1      23.740   5.341  48.513  1.00  0.00     0.002 A 
HETATM   20  C9  UNL     1      24.790   6.229  48.703  1.00  0.00     0.026 A 
HETATM   21  C10 UNL     1      25.043   6.757  49.954  1.00  0.00     0.067 A 
HETATM   22 CL1  UNL     1      26.358   7.877  50.231  1.00  0.00    -0.081 Cl
HETATM   23  C11 UNL     1      24.241   6.389  51.013  1.00  0.00     0.095 A 
BRANCH  23  24
HETATM   24  O1  UNL     1      24.491   6.913  52.257  1.00  0.00    -0.358 OA
HETATM   25  H15 UNL     1      24.573   6.373  53.109  1.00  0.00     0.217 HD
ENDBRANCH  23  24
ENDBRANCH  16  17
ENDBRANCH   9  16
ENDBRANCH   6   7
ENDBRANCH   1   5
TORSDOF 8
ENDMDL
MODEL 8
REMARK VINA RESULT:      -6.3      3.680      7.918
REMARK  8 active torsions:
REMARK  status: ('A' for Active; 'I' for Inactive)
REMARK    1  A    between atoms: C2_2  and  C3_3 
REMARK    2  A    between atoms: C3_3  and  C4_4 
REMARK    3  A    between atoms: C4_4  and  N1_5 
REMARK    4  A    between atoms: N1_5  and  C5_6 
REMARK       I    between atoms: N1_5  and  C12_15 
REMARK    5  A    between atoms: C5_6  and  C6_7 
REMARK    6  A    between atoms: C11_13  and  O1_14 
REMARK       I    between atoms: C12_15  and  N2_17 
REMARK    7  A    between atoms: N2_17  and  C13_18 
REMARK    8  A    between atoms: C14_19  and  C15_20 
ROOT
HETATM    1  C15 UNL     1      18.318  -0.150  51.607  1.00  0.00     0.012 C 
HETATM    2  C16 UNL     1      17.948  -1.008  52.521  1.00  0.00     0.093 C 
HETATM    3  C17 UNL     1      16.624  -1.540  52.579  1.00  0.00     0.087 C 
HETATM    4  N3  UNL     1      15.550  -1.953  52.616  1.00  0.00    -0.192 NA
ENDROOT
BRANCH   1   5
HETATM    5  C14 UNL     1      19.681   0.420  51.519  1.00  0.00     0.018 C 
HETATM    6  C13 UNL     1      20.278   0.883  52.597  1.00  0.00     0.092 C 
BRANCH   6   7
HETATM    7  N2  UNL     1      21.565   1.453  52.690  1.00  0.00    -0.319 N 
HETATM    8  C12 UNL     1      22.787   0.781  52.933  1.00  0.00     0.322 C 
HETATM    9  N1  UNL     1      24.135   1.209  53.055  1.00  0.00    -0.330 N 
HETATM   10  O2  UNL     1      22.796  -0.465  53.091  1.00  0.00    -0.247 OA
HETATM   11  H16 UNL     1      21.735   2.472  52.572  1.00  0.00     0.170 HD
BRANCH   9  12
HETATM   12  C4  UNL     1      25.009   0.046  53.283  1.00  0.00     0.128 C 
BRANCH  12  13
HETATM   13  C3  UNL     1      26.192   0.032  52.355  1.00  0.00     0.020 C 
BRANCH  13  14
HETATM   14  C2  UNL     1      27.388  -0.342  53.243  1.00  0.00    -0.003 C 
HETATM   15  C1  UNL     1      28.358   0.797  53.366  1.00  0.00     0.005 C 
ENDBRANCH  13  14
ENDBRANCH  12  13
ENDBRANCH   9  12
BRANCH   9  16
HETATM   16  C5  UNL     1      24.832   2.507  53.027  1.00  0.00     0.169 C 
BRANCH  16  17
HETATM   17  C6  UNL     1      24.440   3.347  51.896  1.00  0.00    -0.005 A 
HETATM   18  C7  UNL     1      24.634   2.812  50.615  1.00  0.00     0.012 A 
HETATM   19  C8  UNL     1      24.342   3.431  49.419  1.00  0.00     0.002 A 
HETATM   20  C9  UNL     1      23.802   4.708  49.496  1.00  0.00     0.026 A 
HETATM   21  C10 UNL     1      23.580   5.301  50.724  1.00  0.00     0.067 A 
HETATM   22 CL1  UNL     1      22.903   6.909  50.859  1.00  0.00    -0.081 Cl
HETATM   23  C11 UNL     1      23.903   4.610  51.872  1.00  0.00     0.095 A 
BRANCH  23  24
HETATM   24  O1  UNL     1      23.682   5.198  53.093  1.00  0.00    -0.358 OA
HETATM   25  H15 UNL     1      24.211   5.975  53.468  1.00  0.00     0.217 HD
ENDBRANCH  23  24
ENDBRANCH  16  17
ENDBRANCH   9  16
ENDBRANCH   6   7
ENDBRANCH   1   5
TORSDOF 8
ENDMDL
MODEL 9
REMARK VINA RESULT:      -6.2      4.245      8.137
REMARK  8 active torsions:
REMARK  status: ('A' for Active; 'I' for Inactive)
REMARK    1  A    between atoms: C2_2  and  C3_3 
REMARK    2  A    between atoms: C3_3  and  C4_4 
REMARK    3  A    between atoms: C4_4  and  N1_5 
REMARK    4  A    between atoms: N1_5  and  C5_6 
REMARK       I    between atoms: N1_5  and  C12_15 
REMARK    5  A    between atoms: C5_6  and  C6_7 
REMARK    6  A    between atoms: C11_13  and  O1_14 
REMARK       I    between atoms: C12_15  and  N2_17 
REMARK    7  A    between atoms: N2_17  and  C13_18 
REMARK    8  A    between atoms: C14_19  and  C15_20 
ROOT
HETATM    1  C15 UNL     1      15.812   3.856  52.023  1.00  0.00     0.012 C 
HETATM    2  C16 UNL     1      14.982   3.416  52.932  1.00  0.00     0.093 C 
HETATM    3  C17 UNL     1      13.856   4.176  53.372  1.00  0.00     0.087 C 
HETATM    4  N3  UNL     1      12.958   4.806  53.721  1.00  0.00    -0.192 NA
ENDROOT
BRANCH   1   5
HETATM    5  C14 UNL     1      16.986   3.094  51.545  1.00  0.00     0.018 C 
HETATM    6  C13 UNL     1      18.194   3.610  51.632  1.00  0.00     0.092 C 
BRANCH   6   7
HETATM    7  N2  UNL     1      19.412   3.023  51.228  1.00  0.00    -0.319 N 
HETATM    8  C12 UNL     1      20.605   3.690  50.859  1.00  0.00     0.322 C 
HETATM    9  N1  UNL     1      21.886   3.247  50.436  1.00  0.00    -0.330 N 
HETATM   10  O2  UNL     1      20.652   4.945  50.874  1.00  0.00    -0.247 OA
HETATM   11  H16 UNL     1      19.546   1.994  51.172  1.00  0.00     0.170 HD
BRANCH   9  12
HETATM   12  C4  UNL     1      22.766   4.407  50.212  1.00  0.00     0.128 C 
BRANCH  12  13
HETATM   13  C3  UNL     1      23.661   4.219  49.018  1.00  0.00     0.020 C 
BRANCH  13  14
HETATM   14  C2  UNL     1      25.059   4.625  49.505  1.00  0.00    -0.003 C 
HETATM   15  C1  UNL     1      25.974   3.438  49.597  1.00  0.00     0.005 C 
ENDBRANCH  13  14
ENDBRANCH  12  13
ENDBRANCH   9  12
BRANCH   9  16
HETATM   16  C5  UNL     1      22.506   1.940  50.158  1.00  0.00     0.169 C 
BRANCH  16  17
HETATM   17  C6  UNL     1      22.757   1.153  51.365  1.00  0.00    -0.005 A 
HETATM   18  C7  UNL     1      24.045   1.231  51.913  1.00  0.00     0.012 A 
HETATM   19  C8  UNL     1      24.495   0.572  53.036  1.00  0.00     0.002 A 
HETATM   20  C9  UNL     1      23.580  -0.247  53.684  1.00  0.00     0.026 A 
HETATM   21  C10 UNL     1      22.291  -0.374  53.204  1.00  0.00     0.067 A 
HETATM   22 CL1  UNL     1      21.113  -1.399  53.993  1.00  0.00    -0.081 Cl
HETATM   23  C11 UNL     1      21.925   0.321  52.072  1.00  0.00     0.095 A 
BRANCH  23  24
HETATM   24  O1  UNL     1      20.644   0.197  51.594  1.00  0.00    -0.358 OA
HETATM   25  H15 UNL     1      20.365   0.344  50.632  1.00  0.00     0.217 HD
ENDBRANCH  23  24
ENDBRANCH  16  17
ENDBRANCH   9  16
ENDBRANCH   6   7
ENDBRANCH   1   5
TORSDOF 8
ENDMDL
