MODEL 1
REMARK VINA RESULT:      -9.4      0.000      0.000
REMARK  0 active torsions:
REMARK  status: ('A' for Active; 'I' for Inactive)
ROOT
HETATM    1  C1  UNL     1      24.841   5.341  48.846  1.00  0.00     0.068 C 
HETATM    2  C2  UNL     1      23.838   4.264  49.177  1.00  0.00     0.007 C 
HETATM    3  C3  UNL     1      22.946   3.947  48.250  1.00  0.00     0.024 C 
HETATM    4  C4  UNL     1      21.800   3.123  47.850  1.00  0.00     0.197 C 
HETATM    5  O1  UNL     1      20.704   3.925  47.549  1.00  0.00    -0.386 OA
HETATM    6  C5  UNL     1      19.632   3.152  47.101  1.00  0.00     0.198 C 
HETATM    7  C6  UNL     1      18.429   4.047  46.820  1.00  0.00     0.295 C 
HETATM    8  N1  UNL     1      18.024   4.726  48.047  1.00  0.00     0.085 N 
HETATM    9  C7  UNL     1      17.452   3.778  48.987  1.00  0.00     0.271 C 
HETATM   10  C8  UNL     1      17.216   4.501  50.290  1.00  0.00     0.050 C 
HETATM   11  C9  UNL     1      16.601   3.575  51.323  1.00  0.00     0.124 C 
HETATM   12  N2  UNL     1      17.383   2.361  51.472  1.00  0.00    -0.361 N 
HETATM   13  C10 UNL     1      18.728   2.194  51.810  1.00  0.00     0.221 C 
HETATM   14  O2  UNL     1      19.077   3.391  51.946  1.00  0.00    -0.273 OA
HETATM   15  C11 UNL     1      20.035   1.605  52.121  1.00  0.00     0.129 C 
HETATM   16  C12 UNL     1      21.074   2.693  52.256  1.00  0.00    -0.019 C 
HETATM   17  C13 UNL     1      22.210   3.072  51.705  1.00  0.00     0.005 C 
HETATM   18  C14 UNL     1      23.339   4.042  51.669  1.00  0.00     0.204 C 
HETATM   19  C15 UNL     1      24.043   3.985  52.974  1.00  0.00     0.249 C 
HETATM   20  O3  UNL     1      23.950   5.052  53.682  1.00  0.00    -0.271 OA
HETATM   21  N3  UNL     1      24.840   3.043  53.723  1.00  0.00    -0.324 N 
HETATM   22  C16 UNL     1      25.672   1.972  53.225  1.00  0.00     0.045 A 
HETATM   23  C17 UNL     1      25.801   1.098  54.272  1.00  0.00     0.033 A 
HETATM   24  C18 UNL     1      26.562  -0.038  54.065  1.00  0.00     0.044 A 
HETATM   25  C19 UNL     1      27.190  -0.322  52.865  1.00  0.00     0.117 A 
HETATM   26  F1  UNL     1      27.936  -1.431  52.657  1.00  0.00    -0.206 F 
HETATM   27  C20 UNL     1      27.067   0.558  51.794  1.00  0.00     0.056 A 
HETATM   28  C21 UNL     1      26.315   1.670  52.015  1.00  0.00    -0.005 A 
HETATM   29  C22 UNL     1      26.324   2.446  50.781  1.00  0.00     0.031 C 
HETATM   30  C23 UNL     1      25.460   3.303  50.215  1.00  0.00     0.093 C 
HETATM   31  N4  UNL     1      24.174   3.850  50.523  1.00  0.00    -0.344 N 
HETATM   32  H11 UNL     1      17.223   5.351  47.764  1.00  0.00     0.315 HD
HETATM   33  H18 UNL     1      17.445   1.324  51.445  1.00  0.00     0.162 HD
HETATM   34  H24 UNL     1      24.837   3.113  54.763  1.00  0.00     0.169 HD
ENDROOT
TORSDOF 0
ENDMDL
MODEL 2
REMARK VINA RESULT:      -8.5      9.544     13.384
REMARK  0 active torsions:
REMARK  status: ('A' for Active; 'I' for Inactive)
ROOT
HETATM    1  C1  UNL     1      32.699   4.049  47.829  1.00  0.00     0.068 C 
HETATM    2  C2  UNL     1      32.374   5.118  46.816  1.00  0.00     0.007 C 
HETATM    3  C3  UNL     1      32.817   4.949  45.579  1.00  0.00     0.024 C 
HETATM    4  C4  UNL     1      32.912   5.458  44.206  1.00  0.00     0.197 C 
HETATM    5  O1  UNL     1      34.241   5.649  43.846  1.00  0.00    -0.386 OA
HETATM    6  C5  UNL     1      34.341   6.066  42.518  1.00  0.00     0.198 C 
HETATM    7  C6  UNL     1      35.803   6.311  42.160  1.00  0.00     0.295 C 
HETATM    8  N1  UNL     1      36.349   7.363  43.014  1.00  0.00     0.085 N 
HETATM    9  C7  UNL     1      35.761   8.647  42.677  1.00  0.00     0.271 C 
HETATM   10  C8  UNL     1      36.228   9.654  43.699  1.00  0.00     0.050 C 
HETATM   11  C9  UNL     1      35.664  11.032  43.403  1.00  0.00     0.124 C 
HETATM   12  N2  UNL     1      34.222  10.989  43.255  1.00  0.00    -0.361 N 
HETATM   13  C10 UNL     1      33.240  10.545  44.145  1.00  0.00     0.221 C 
HETATM   14  O2  UNL     1      33.956  10.186  45.110  1.00  0.00    -0.273 OA
HETATM   15  C11 UNL     1      31.953  10.195  44.756  1.00  0.00     0.129 C 
HETATM   16  C12 UNL     1      32.179   9.475  46.064  1.00  0.00    -0.019 C 
HETATM   17  C13 UNL     1      31.916   8.315  46.631  1.00  0.00     0.005 C 
HETATM   18  C14 UNL     1      32.029   7.435  47.827  1.00  0.00     0.204 C 
HETATM   19  C15 UNL     1      31.329   8.095  48.958  1.00  0.00     0.249 C 
HETATM   20  O3  UNL     1      32.095   8.469  49.918  1.00  0.00    -0.271 OA
HETATM   21  N3  UNL     1      29.981   8.460  49.319  1.00  0.00    -0.324 N 
HETATM   22  C16 UNL     1      28.741   7.840  48.911  1.00  0.00     0.045 A 
HETATM   23  C17 UNL     1      27.781   8.802  49.090  1.00  0.00     0.033 A 
HETATM   24  C18 UNL     1      26.477   8.468  48.770  1.00  0.00     0.044 A 
HETATM   25  C19 UNL     1      26.108   7.225  48.288  1.00  0.00     0.117 A 
HETATM   26  F1  UNL     1      24.835   6.894  47.974  1.00  0.00    -0.206 F 
HETATM   27  C20 UNL     1      27.074   6.240  48.103  1.00  0.00     0.056 A 
HETATM   28  C21 UNL     1      28.350   6.585  48.422  1.00  0.00    -0.005 A 
HETATM   29  C22 UNL     1      29.186   5.420  48.161  1.00  0.00     0.031 C 
HETATM   30  C23 UNL     1      30.474   5.257  47.817  1.00  0.00     0.093 C 
HETATM   31  N4  UNL     1      31.600   6.097  47.550  1.00  0.00    -0.344 N 
HETATM   32  H11 UNL     1      37.364   7.443  42.738  1.00  0.00     0.315 HD
HETATM   33  H18 UNL     1      33.371  11.168  42.685  1.00  0.00     0.162 HD
HETATM   34  H24 UNL     1      29.844   9.276  49.954  1.00  0.00     0.169 HD
ENDROOT
TORSDOF 0
ENDMDL
MODEL 3
REMARK VINA RESULT:      -8.5      7.269      9.380
REMARK  0 active torsions:
REMARK  status: ('A' for Active; 'I' for Inactive)
ROOT
HETATM    1  C1  UNL     1      31.263  10.420  45.665  1.00  0.00     0.068 C 
HETATM    2  C2  UNL     1      30.410   9.185  45.807  1.00  0.00     0.007 C 
HETATM    3  C3  UNL     1      29.253   9.158  45.162  1.00  0.00     0.024 C 
HETATM    4  C4  UNL     1      28.024   8.428  44.832  1.00  0.00     0.197 C 
HETATM    5  O1  UNL     1      26.906   9.138  45.254  1.00  0.00    -0.386 OA
HETATM    6  C5  UNL     1      25.732   8.482  44.881  1.00  0.00     0.198 C 
HETATM    7  C6  UNL     1      24.521   9.257  45.393  1.00  0.00     0.295 C 
HETATM    8  N1  UNL     1      24.563   9.329  46.851  1.00  0.00     0.085 N 
HETATM    9  C7  UNL     1      24.323   8.021  47.432  1.00  0.00     0.271 C 
HETATM   10  C8  UNL     1      24.551   8.124  48.920  1.00  0.00     0.050 C 
HETATM   11  C9  UNL     1      24.302   6.791  49.603  1.00  0.00     0.124 C 
HETATM   12  N2  UNL     1      25.065   5.729  48.976  1.00  0.00    -0.361 N 
HETATM   13  C10 UNL     1      26.443   5.610  48.775  1.00  0.00     0.221 C 
HETATM   14  O2  UNL     1      26.839   6.685  49.284  1.00  0.00    -0.273 OA
HETATM   15  C11 UNL     1      27.767   5.114  48.385  1.00  0.00     0.129 C 
HETATM   16  C12 UNL     1      28.811   6.177  48.632  1.00  0.00    -0.019 C 
HETATM   17  C13 UNL     1      29.703   6.885  47.968  1.00  0.00     0.005 C 
HETATM   18  C14 UNL     1      30.772   7.921  47.994  1.00  0.00     0.204 C 
HETATM   19  C15 UNL     1      31.872   7.434  48.862  1.00  0.00     0.249 C 
HETATM   20  O3  UNL     1      32.042   8.105  49.942  1.00  0.00    -0.271 OA
HETATM   21  N3  UNL     1      32.857   6.378  48.856  1.00  0.00    -0.324 N 
HETATM   22  C16 UNL     1      33.454   5.711  47.722  1.00  0.00     0.045 A 
HETATM   23  C17 UNL     1      33.910   4.513  48.207  1.00  0.00     0.033 A 
HETATM   24  C18 UNL     1      34.537   3.662  47.316  1.00  0.00     0.044 A 
HETATM   25  C19 UNL     1      34.720   3.964  45.978  1.00  0.00     0.117 A 
HETATM   26  F1  UNL     1      35.332   3.135  45.102  1.00  0.00    -0.206 F 
HETATM   27  C20 UNL     1      34.261   5.177  45.474  1.00  0.00     0.056 A 
HETATM   28  C21 UNL     1      33.648   6.003  46.363  1.00  0.00    -0.005 A 
HETATM   29  C22 UNL     1      33.257   7.203  45.635  1.00  0.00     0.031 C 
HETATM   30  C23 UNL     1      32.268   8.100  45.782  1.00  0.00     0.093 C 
HETATM   31  N4  UNL     1      31.171   8.311  46.675  1.00  0.00    -0.344 N 
HETATM   32  H11 UNL     1      23.726   9.910  47.123  1.00  0.00     0.315 HD
HETATM   33  H18 UNL     1      25.096   4.806  48.498  1.00  0.00     0.162 HD
HETATM   34  H24 UNL     1      33.204   6.023  49.773  1.00  0.00     0.169 HD
ENDROOT
TORSDOF 0
ENDMDL
MODEL 4
REMARK VINA RESULT:      -8.3      4.100      7.770
REMARK  0 active torsions:
REMARK  status: ('A' for Active; 'I' for Inactive)
ROOT
HETATM    1  C1  UNL     1      20.349   6.665  49.691  1.00  0.00     0.068 C 
HETATM    2  C2  UNL     1      21.426   5.660  49.371  1.00  0.00     0.007 C 
HETATM    3  C3  UNL     1      21.136   4.376  49.525  1.00  0.00     0.024 C 
HETATM    4  C4  UNL     1      21.573   2.978  49.438  1.00  0.00     0.197 C 
HETATM    5  O1  UNL     1      21.495   2.364  50.683  1.00  0.00    -0.386 OA
HETATM    6  C5  UNL     1      21.842   1.015  50.593  1.00  0.00     0.198 C 
HETATM    7  C6  UNL     1      21.793   0.374  51.977  1.00  0.00     0.295 C 
HETATM    8  N1  UNL     1      22.747   1.036  52.861  1.00  0.00     0.085 N 
HETATM    9  C7  UNL     1      24.109   0.728  52.460  1.00  0.00     0.271 C 
HETATM   10  C8  UNL     1      25.041   1.573  53.294  1.00  0.00     0.050 C 
HETATM   11  C9  UNL     1      26.490   1.293  52.941  1.00  0.00     0.124 C 
HETATM   12  N2  UNL     1      26.718   1.422  51.515  1.00  0.00    -0.361 N 
HETATM   13  C10 UNL     1      26.499   2.508  50.663  1.00  0.00     0.221 C 
HETATM   14  O2  UNL     1      26.041   3.345  51.478  1.00  0.00    -0.273 OA
HETATM   15  C11 UNL     1      26.422   3.371  49.479  1.00  0.00     0.129 C 
HETATM   16  C12 UNL     1      25.714   4.660  49.824  1.00  0.00    -0.019 C 
HETATM   17  C13 UNL     1      24.644   5.344  49.473  1.00  0.00     0.005 C 
HETATM   18  C14 UNL     1      23.798   6.556  49.657  1.00  0.00     0.204 C 
HETATM   19  C15 UNL     1      24.615   7.750  49.325  1.00  0.00     0.249 C 
HETATM   20  O3  UNL     1      24.868   8.522  50.319  1.00  0.00    -0.271 OA
HETATM   21  N3  UNL     1      25.243   8.330  48.162  1.00  0.00    -0.324 N 
HETATM   22  C16 UNL     1      24.858   8.206  46.775  1.00  0.00     0.045 A 
HETATM   23  C17 UNL     1      25.991   8.494  46.060  1.00  0.00     0.033 A 
HETATM   24  C18 UNL     1      25.902   8.448  44.680  1.00  0.00     0.044 A 
HETATM   25  C19 UNL     1      24.737   8.130  44.005  1.00  0.00     0.117 A 
HETATM   26  F1  UNL     1      24.645   8.084  42.656  1.00  0.00    -0.206 F 
HETATM   27  C20 UNL     1      23.581   7.835  44.720  1.00  0.00     0.056 A 
HETATM   28  C21 UNL     1      23.685   7.885  46.076  1.00  0.00    -0.005 A 
HETATM   29  C22 UNL     1      22.374   7.554  46.619  1.00  0.00     0.031 C 
HETATM   30  C23 UNL     1      21.958   6.986  47.763  1.00  0.00     0.093 C 
HETATM   31  N4  UNL     1      22.558   6.456  48.948  1.00  0.00    -0.344 N 
HETATM   32  H11 UNL     1      22.624   0.570  53.799  1.00  0.00     0.315 HD
HETATM   33  H18 UNL     1      27.038   1.010  50.615  1.00  0.00     0.162 HD
HETATM   34  H24 UNL     1      26.090   8.922  48.304  1.00  0.00     0.169 HD
ENDROOT
TORSDOF 0
ENDMDL
MODEL 5
REMARK VINA RESULT:      -8.2      5.374      9.884
REMARK  0 active torsions:
REMARK  status: ('A' for Active; 'I' for Inactive)
ROOT
HETATM    1  C1  UNL     1      25.516   3.739  50.619  1.00  0.00     0.068 C 
HETATM    2  C2  UNL     1      26.004   4.684  49.551  1.00  0.00     0.007 C 
HETATM    3  C3  UNL     1      27.245   4.530  49.113  1.00  0.00     0.024 C 
HETATM    4  C4  UNL     1      28.317   4.977  48.216  1.00  0.00     0.197 C 
HETATM    5  O1  UNL     1      29.432   5.371  48.947  1.00  0.00    -0.386 OA
HETATM    6  C5  UNL     1      30.480   5.730  48.098  1.00  0.00     0.198 C 
HETATM    7  C6  UNL     1      31.676   6.200  48.921  1.00  0.00     0.295 C 
HETATM    8  N1  UNL     1      31.301   7.370  49.710  1.00  0.00     0.085 N 
HETATM    9  C7  UNL     1      31.089   8.518  48.847  1.00  0.00     0.271 C 
HETATM   10  C8  UNL     1      30.539   9.641  49.692  1.00  0.00     0.050 C 
HETATM   11  C9  UNL     1      30.305  10.887  48.858  1.00  0.00     0.124 C 
HETATM   12  N2  UNL     1      29.494  10.593  47.691  1.00  0.00    -0.361 N 
HETATM   13  C10 UNL     1      28.216  10.036  47.602  1.00  0.00     0.221 C 
HETATM   14  O2  UNL     1      27.964   9.852  48.817  1.00  0.00    -0.273 OA
HETATM   15  C11 UNL     1      26.947   9.507  47.090  1.00  0.00     0.129 C 
HETATM   16  C12 UNL     1      26.145   8.902  48.218  1.00  0.00    -0.019 C 
HETATM   17  C13 UNL     1      25.626   7.745  48.575  1.00  0.00     0.005 C 
HETATM   18  C14 UNL     1      24.848   6.958  49.571  1.00  0.00     0.204 C 
HETATM   19  C15 UNL     1      23.489   7.547  49.671  1.00  0.00     0.249 C 
HETATM   20  O3  UNL     1      23.222   8.094  50.802  1.00  0.00    -0.271 OA
HETATM   21  N3  UNL     1      22.321   7.698  48.837  1.00  0.00    -0.324 N 
HETATM   22  C16 UNL     1      21.879   6.858  47.747  1.00  0.00     0.045 A 
HETATM   23  C17 UNL     1      21.058   7.653  46.990  1.00  0.00     0.033 A 
HETATM   24  C18 UNL     1      20.487   7.089  45.864  1.00  0.00     0.044 A 
HETATM   25  C19 UNL     1      20.706   5.778  45.477  1.00  0.00     0.117 A 
HETATM   26  F1  UNL     1      20.150   5.221  44.377  1.00  0.00    -0.206 F 
HETATM   27  C20 UNL     1      21.537   4.962  46.238  1.00  0.00     0.056 A 
HETATM   28  C21 UNL     1      22.090   5.532  47.343  1.00  0.00    -0.005 A 
HETATM   29  C22 UNL     1      22.908   4.513  47.987  1.00  0.00     0.031 C 
HETATM   30  C23 UNL     1      24.010   4.552  48.754  1.00  0.00     0.093 C 
HETATM   31  N4  UNL     1      24.878   5.555  49.288  1.00  0.00    -0.344 N 
HETATM   32  H11 UNL     1      32.158   7.606  50.277  1.00  0.00     0.315 HD
HETATM   33  H18 UNL     1      29.370  10.598  46.659  1.00  0.00     0.162 HD
HETATM   34  H24 UNL     1      21.691   8.510  49.013  1.00  0.00     0.169 HD
ENDROOT
TORSDOF 0
ENDMDL
MODEL 6
REMARK VINA RESULT:      -8.1      4.303      6.679
REMARK  0 active torsions:
REMARK  status: ('A' for Active; 'I' for Inactive)
ROOT
HETATM    1  C1  UNL     1      23.209   9.132  47.284  1.00  0.00     0.068 C 
HETATM    2  C2  UNL     1      23.672   7.704  47.427  1.00  0.00     0.007 C 
HETATM    3  C3  UNL     1      22.821   6.744  47.094  1.00  0.00     0.024 C 
HETATM    4  C4  UNL     1      22.547   5.309  46.963  1.00  0.00     0.197 C 
HETATM    5  O1  UNL     1      21.468   4.943  47.761  1.00  0.00    -0.386 OA
HETATM    6  C5  UNL     1      21.158   3.593  47.588  1.00  0.00     0.198 C 
HETATM    7  C6  UNL     1      20.002   3.206  48.505  1.00  0.00     0.295 C 
HETATM    8  N1  UNL     1      20.388   3.413  49.897  1.00  0.00     0.085 N 
HETATM    9  C7  UNL     1      21.395   2.446  50.295  1.00  0.00     0.271 C 
HETATM   10  C8  UNL     1      21.877   2.818  51.676  1.00  0.00     0.050 C 
HETATM   11  C9  UNL     1      22.926   1.838  52.169  1.00  0.00     0.124 C 
HETATM   12  N2  UNL     1      24.000   1.689  51.205  1.00  0.00    -0.361 N 
HETATM   13  C10 UNL     1      24.851   2.649  50.652  1.00  0.00     0.221 C 
HETATM   14  O2  UNL     1      24.422   3.684  51.218  1.00  0.00    -0.273 OA
HETATM   15  C11 UNL     1      25.899   3.313  49.869  1.00  0.00     0.129 C 
HETATM   16  C12 UNL     1      25.790   4.811  50.023  1.00  0.00    -0.019 C 
HETATM   17  C13 UNL     1      25.598   5.886  49.285  1.00  0.00     0.005 C 
HETATM   18  C14 UNL     1      25.461   7.367  49.215  1.00  0.00     0.204 C 
HETATM   19  C15 UNL     1      26.728   7.976  49.690  1.00  0.00     0.249 C 
HETATM   20  O3  UNL     1      26.631   8.629  50.791  1.00  0.00    -0.271 OA
HETATM   21  N3  UNL     1      28.105   8.055  49.266  1.00  0.00    -0.324 N 
HETATM   22  C16 UNL     1      28.639   7.987  47.925  1.00  0.00     0.045 A 
HETATM   23  C17 UNL     1      29.949   7.615  48.076  1.00  0.00     0.033 A 
HETATM   24  C18 UNL     1      30.708   7.473  46.929  1.00  0.00     0.044 A 
HETATM   25  C19 UNL     1      30.208   7.688  45.657  1.00  0.00     0.117 A 
HETATM   26  F1  UNL     1      30.946   7.551  44.531  1.00  0.00    -0.206 F 
HETATM   27  C20 UNL     1      28.880   8.066  45.490  1.00  0.00     0.056 A 
HETATM   28  C21 UNL     1      28.147   8.201  46.628  1.00  0.00    -0.005 A 
HETATM   29  C22 UNL     1      26.805   8.603  46.229  1.00  0.00     0.031 C 
HETATM   30  C23 UNL     1      25.584   8.432  46.763  1.00  0.00     0.093 C 
HETATM   31  N4  UNL     1      25.028   7.805  47.922  1.00  0.00    -0.344 N 
HETATM   32  H11 UNL     1      19.531   3.166  50.461  1.00  0.00     0.315 HD
HETATM   33  H18 UNL     1      24.576   1.082  50.588  1.00  0.00     0.162 HD
HETATM   34  H24 UNL     1      28.840   8.176  49.996  1.00  0.00     0.169 HD
ENDROOT
TORSDOF 0
ENDMDL
MODEL 7
REMARK VINA RESULT:      -8.0      4.736      9.143
REMARK  0 active torsions:
REMARK  status: ('A' for Active; 'I' for Inactive)
ROOT
HETATM    1  C1  UNL     1      25.642   2.970  50.745  1.00  0.00     0.068 C 
HETATM    2  C2  UNL     1      25.882   3.987  49.658  1.00  0.00     0.007 C 
HETATM    3  C3  UNL     1      27.104   4.070  49.152  1.00  0.00     0.024 C 
HETATM    4  C4  UNL     1      28.021   4.709  48.202  1.00  0.00     0.197 C 
HETATM    5  O1  UNL     1      29.079   5.311  48.874  1.00  0.00    -0.386 OA
HETATM    6  C5  UNL     1      29.992   5.860  47.972  1.00  0.00     0.198 C 
HETATM    7  C6  UNL     1      31.120   6.551  48.732  1.00  0.00     0.295 C 
HETATM    8  N1  UNL     1      30.573   7.632  49.547  1.00  0.00     0.085 N 
HETATM    9  C7  UNL     1      30.100   8.715  48.705  1.00  0.00     0.271 C 
HETATM   10  C8  UNL     1      29.393   9.716  49.586  1.00  0.00     0.050 C 
HETATM   11  C9  UNL     1      28.882  10.892  48.774  1.00  0.00     0.124 C 
HETATM   12  N2  UNL     1      28.078  10.445  47.652  1.00  0.00    -0.361 N 
HETATM   13  C10 UNL     1      26.926   9.655  47.629  1.00  0.00     0.221 C 
HETATM   14  O2  UNL     1      26.781   9.431  48.854  1.00  0.00    -0.273 OA
HETATM   15  C11 UNL     1      25.755   8.892  47.183  1.00  0.00     0.129 C 
HETATM   16  C12 UNL     1      25.146   8.150  48.349  1.00  0.00    -0.019 C 
HETATM   17  C13 UNL     1      24.876   6.916  48.725  1.00  0.00     0.005 C 
HETATM   18  C14 UNL     1      24.317   6.000  49.757  1.00  0.00     0.204 C 
HETATM   19  C15 UNL     1      22.879   6.320  49.934  1.00  0.00     0.249 C 
HETATM   20  O3  UNL     1      22.575   6.810  51.081  1.00  0.00    -0.271 OA
HETATM   21  N3  UNL     1      21.660   6.243  49.166  1.00  0.00    -0.324 N 
HETATM   22  C16 UNL     1      21.327   5.330  48.096  1.00  0.00     0.045 A 
HETATM   23  C17 UNL     1      20.330   5.952  47.390  1.00  0.00     0.033 A 
HETATM   24  C18 UNL     1      19.816   5.285  46.293  1.00  0.00     0.044 A 
HETATM   25  C19 UNL     1      20.258   4.038  45.886  1.00  0.00     0.117 A 
HETATM   26  F1  UNL     1      19.759   3.382  44.814  1.00  0.00    -0.206 F 
HETATM   27  C20 UNL     1      21.270   3.398  46.595  1.00  0.00     0.056 A 
HETATM   28  C21 UNL     1      21.764   4.067  47.672  1.00  0.00    -0.005 A 
HETATM   29  C22 UNL     1      22.795   3.224  48.264  1.00  0.00     0.031 C 
HETATM   30  C23 UNL     1      23.909   3.475  48.970  1.00  0.00     0.093 C 
HETATM   31  N4  UNL     1      24.599   4.627  49.463  1.00  0.00    -0.344 N 
HETATM   32  H11 UNL     1      31.399   8.029  50.069  1.00  0.00     0.315 HD
HETATM   33  H18 UNL     1      27.899  10.422  46.628  1.00  0.00     0.162 HD
HETATM   34  H24 UNL     1      20.898   6.921  49.381  1.00  0.00     0.169 HD
ENDROOT
TORSDOF 0
ENDMDL
MODEL 8
REMARK VINA RESULT:      -7.8      6.652      8.888
REMARK  0 active torsions:
REMARK  status: ('A' for Active; 'I' for Inactive)
ROOT
HETATM    1  C1  UNL     1      28.666  11.079  45.586  1.00  0.00     0.068 C 
HETATM    2  C2  UNL     1      28.116   9.697  45.831  1.00  0.00     0.007 C 
HETATM    3  C3  UNL     1      26.842   9.480  45.537  1.00  0.00     0.024 C 
HETATM    4  C4  UNL     1      25.714   8.543  45.491  1.00  0.00     0.197 C 
HETATM    5  O1  UNL     1      24.666   9.002  46.281  1.00  0.00    -0.386 OA
HETATM    6  C5  UNL     1      23.563   8.152  46.186  1.00  0.00     0.198 C 
HETATM    7  C6  UNL     1      22.444   8.651  47.094  1.00  0.00     0.295 C 
HETATM    8  N1  UNL     1      22.901   8.656  48.481  1.00  0.00     0.085 N 
HETATM    9  C7  UNL     1      23.069   7.298  48.966  1.00  0.00     0.271 C 
HETATM   10  C8  UNL     1      23.704   7.367  50.333  1.00  0.00     0.050 C 
HETATM   11  C9  UNL     1      23.898   5.979  50.914  1.00  0.00     0.124 C 
HETATM   12  N2  UNL     1      24.611   5.117  49.991  1.00  0.00    -0.361 N 
HETATM   13  C10 UNL     1      25.868   5.276  49.401  1.00  0.00     0.221 C 
HETATM   14  O2  UNL     1      26.208   6.381  49.888  1.00  0.00    -0.273 OA
HETATM   15  C11 UNL     1      27.083   5.066  48.606  1.00  0.00     0.129 C 
HETATM   16  C12 UNL     1      27.957   6.297  48.661  1.00  0.00    -0.019 C 
HETATM   17  C13 UNL     1      28.479   7.196  47.851  1.00  0.00     0.005 C 
HETATM   18  C14 UNL     1      29.316   8.417  47.684  1.00  0.00     0.204 C 
HETATM   19  C15 UNL     1      30.689   8.108  48.154  1.00  0.00     0.249 C 
HETATM   20  O3  UNL     1      31.053   8.744  49.208  1.00  0.00    -0.271 OA
HETATM   21  N3  UNL     1      31.792   7.264  47.762  1.00  0.00    -0.324 N 
HETATM   22  C16 UNL     1      32.133   6.783  46.442  1.00  0.00     0.045 A 
HETATM   23  C17 UNL     1      32.909   5.673  46.652  1.00  0.00     0.033 A 
HETATM   24  C18 UNL     1      33.380   5.005  45.537  1.00  0.00     0.044 A 
HETATM   25  C19 UNL     1      33.107   5.404  44.240  1.00  0.00     0.117 A 
HETATM   26  F1  UNL     1      33.565   4.754  43.146  1.00  0.00    -0.206 F 
HETATM   27  C20 UNL     1      32.321   6.530  44.015  1.00  0.00     0.056 A 
HETATM   28  C21 UNL     1      31.865   7.175  45.122  1.00  0.00    -0.005 A 
HETATM   29  C22 UNL     1      31.079   8.313  44.662  1.00  0.00     0.031 C 
HETATM   30  C23 UNL     1      30.040   8.994  45.174  1.00  0.00     0.093 C 
HETATM   31  N4  UNL     1      29.236   8.943  46.355  1.00  0.00    -0.344 N 
HETATM   32  H11 UNL     1      22.095   9.049  49.036  1.00  0.00     0.315 HD
HETATM   33  H18 UNL     1      24.656   4.243  49.430  1.00  0.00     0.162 HD
HETATM   34  H24 UNL     1      32.450   6.936  48.502  1.00  0.00     0.169 HD
ENDROOT
TORSDOF 0
ENDMDL
MODEL 9
REMARK VINA RESULT:      -7.7      3.562      6.538
REMARK  0 active torsions:
REMARK  status: ('A' for Active; 'I' for Inactive)
ROOT
HETATM    1  C1  UNL     1      18.403   4.505  48.484  1.00  0.00     0.068 C 
HETATM    2  C2  UNL     1      19.644   5.032  49.160  1.00  0.00     0.007 C 
HETATM    3  C3  UNL     1      19.754   6.344  49.310  1.00  0.00     0.024 C 
HETATM    4  C4  UNL     1      20.539   7.484  49.796  1.00  0.00     0.197 C 
HETATM    5  O1  UNL     1      20.856   8.341  48.748  1.00  0.00    -0.386 OA
HETATM    6  C5  UNL     1      21.543   9.463  49.215  1.00  0.00     0.198 C 
HETATM    7  C6  UNL     1      21.917  10.366  48.044  1.00  0.00     0.295 C 
HETATM    8  N1  UNL     1      22.791   9.642  47.125  1.00  0.00     0.085 N 
HETATM    9  C7  UNL     1      24.091   9.417  47.730  1.00  0.00     0.271 C 
HETATM   10  C8  UNL     1      24.884   8.521  46.810  1.00  0.00     0.050 C 
HETATM   11  C9  UNL     1      26.268   8.253  47.371  1.00  0.00     0.124 C 
HETATM   12  N2  UNL     1      26.196   7.760  48.734  1.00  0.00    -0.361 N 
HETATM   13  C10 UNL     1      25.537   6.642  49.252  1.00  0.00     0.221 C 
HETATM   14  O2  UNL     1      25.016   6.183  48.208  1.00  0.00    -0.273 OA
HETATM   15  C11 UNL     1      25.016   5.615  50.161  1.00  0.00     0.129 C 
HETATM   16  C12 UNL     1      24.050   4.716  49.427  1.00  0.00    -0.019 C 
HETATM   17  C13 UNL     1      22.788   4.341  49.478  1.00  0.00     0.005 C 
HETATM   18  C14 UNL     1      21.685   3.523  48.904  1.00  0.00     0.204 C 
HETATM   19  C15 UNL     1      22.066   2.092  49.003  1.00  0.00     0.249 C 
HETATM   20  O3  UNL     1      22.265   1.509  47.877  1.00  0.00    -0.271 OA
HETATM   21  N3  UNL     1      22.293   1.111  50.037  1.00  0.00    -0.324 N 
HETATM   22  C16 UNL     1      21.720   1.052  51.362  1.00  0.00     0.045 A 
HETATM   23  C17 UNL     1      22.583   0.280  52.095  1.00  0.00     0.033 A 
HETATM   24  C18 UNL     1      22.269   0.057  53.423  1.00  0.00     0.044 A 
HETATM   25  C19 UNL     1      21.138   0.572  54.032  1.00  0.00     0.117 A 
HETATM   26  F1  UNL     1      20.826   0.357  55.331  1.00  0.00    -0.206 F 
HETATM   27  C20 UNL     1      20.254   1.358  53.299  1.00  0.00     0.056 A 
HETATM   28  C21 UNL     1      20.578   1.566  51.995  1.00  0.00    -0.005 A 
HETATM   29  C22 UNL     1      19.528   2.398  51.420  1.00  0.00     0.031 C 
HETATM   30  C23 UNL     1      19.493   3.296  50.422  1.00  0.00     0.093 C 
HETATM   31  N4  UNL     1      20.417   3.851  49.481  1.00  0.00    -0.344 N 
HETATM   32  H11 UNL     1      22.969  10.311  46.329  1.00  0.00     0.315 HD
HETATM   33  H18 UNL     1      26.454   7.851  49.737  1.00  0.00     0.162 HD
HETATM   34  H24 UNL     1      22.953   0.329  49.839  1.00  0.00     0.169 HD
ENDROOT
TORSDOF 0
ENDMDL
