MODEL 1
REMARK VINA RESULT:      -7.9      0.000      0.000
REMARK  6 active torsions:
REMARK  status: ('A' for Active; 'I' for Inactive)
REMARK    1  A    between atoms: C2_2  and  C3_3 
REMARK    2  A    between atoms: C3_3  and  C4_4 
REMARK    3  A    between atoms: C4_4  and  C5_5 
REMARK    4  A    between atoms: C5_5  and  C6_6 
REMARK       I    between atoms: C6_6  and  N1_8 
REMARK    5  A    between atoms: N1_8  and  C7_9 
REMARK    6  A    between atoms: C7_9  and  C8_10 
ROOT
HETATM    1  C8  UNL     1      25.412   2.156  51.335  1.00  0.00     0.021 C 
HETATM    2  C9  UNL     1      25.055   1.480  52.411  1.00  0.00     0.006 C 
HETATM    3  C10 UNL     1      23.609   1.898  52.126  1.00  0.00     0.052 C 
HETATM    4  C11 UNL     1      22.374   1.643  52.703  1.00  0.00     0.105 C 
HETATM    5  C12 UNL     1      21.087   1.260  53.456  1.00  0.00     0.243 C 
HETATM    6  N2  UNL     1      20.623   0.344  54.395  1.00  0.00     0.325 N 
HETATM    7  C13 UNL     1      21.792  -0.591  54.768  1.00  0.00     0.462 C 
HETATM    8  N3  UNL     1      22.501  -0.819  53.568  1.00  0.00    -0.270 NA
HETATM    9  C14 UNL     1      23.666  -0.857  53.172  1.00  0.00     0.115 C 
HETATM   10  C15 UNL     1      24.771  -0.651  54.040  1.00  0.00     0.050 C 
HETATM   11  C16 UNL     1      25.986  -0.425  54.322  1.00  0.00     0.058 A 
HETATM   12  N4  UNL     1      27.256  -0.195  54.781  1.00  0.00    -0.363 N 
HETATM   13  C17 UNL     1      28.355   0.629  54.679  1.00  0.00     0.107 A 
HETATM   14  C18 UNL     1      28.239   1.614  53.841  1.00  0.00     0.134 A 
HETATM   15  N5  UNL     1      26.987   1.646  53.193  1.00  0.00    -0.261 NA
HETATM   16  C19 UNL     1      26.003   0.786  53.368  1.00  0.00     0.066 A 
HETATM   17  H23 UNL     1      27.150  -1.078  55.445  1.00  0.00     0.165 HD
ENDROOT
BRANCH   1  18
HETATM   18  C7  UNL     1      24.710   2.939  50.341  1.00  0.00     0.128 C 
BRANCH  18  19
HETATM   19  N1  UNL     1      25.662   3.726  49.559  1.00  0.00    -0.361 N 
HETATM   20  C6  UNL     1      25.790   5.131  49.613  1.00  0.00     0.217 C 
HETATM   21  O1  UNL     1      25.078   5.845  50.359  1.00  0.00    -0.274 OA
HETATM   22  H12 UNL     1      26.333   3.252  48.884  1.00  0.00     0.162 HD
BRANCH  20  23
HETATM   23  C5  UNL     1      26.786   5.851  48.779  1.00  0.00     0.103 C 
BRANCH  23  24
HETATM   24  C4  UNL     1      27.987   4.964  48.494  1.00  0.00     0.009 C 
BRANCH  24  25
HETATM   25  C3  UNL     1      29.202   5.784  48.149  1.00  0.00     0.000 C 
BRANCH  25  26
HETATM   26  C2  UNL     1      28.867   7.067  47.425  1.00  0.00    -0.005 C 
HETATM   27  C1  UNL     1      30.129   7.533  46.703  1.00  0.00     0.005 C 
ENDBRANCH  25  26
ENDBRANCH  24  25
ENDBRANCH  23  24
ENDBRANCH  20  23
ENDBRANCH  18  19
ENDBRANCH   1  18
TORSDOF 6
ENDMDL
MODEL 2
REMARK VINA RESULT:      -7.3      3.490      9.432
REMARK  6 active torsions:
REMARK  status: ('A' for Active; 'I' for Inactive)
REMARK    1  A    between atoms: C2_2  and  C3_3 
REMARK    2  A    between atoms: C3_3  and  C4_4 
REMARK    3  A    between atoms: C4_4  and  C5_5 
REMARK    4  A    between atoms: C5_5  and  C6_6 
REMARK       I    between atoms: C6_6  and  N1_8 
REMARK    5  A    between atoms: N1_8  and  C7_9 
REMARK    6  A    between atoms: C7_9  and  C8_10 
ROOT
HETATM    1  C8  UNL     1      28.536   5.124  48.558  1.00  0.00     0.021 C 
HETATM    2  C9  UNL     1      29.280   6.132  48.148  1.00  0.00     0.006 C 
HETATM    3  C10 UNL     1      27.986   6.914  47.901  1.00  0.00     0.052 C 
HETATM    4  C11 UNL     1      27.672   8.196  47.475  1.00  0.00     0.105 C 
HETATM    5  C12 UNL     1      27.492   9.648  46.995  1.00  0.00     0.243 C 
HETATM    6  N2  UNL     1      28.218  10.823  46.829  1.00  0.00     0.325 N 
HETATM    7  C13 UNL     1      29.662  10.565  47.311  1.00  0.00     0.462 C 
HETATM    8  N3  UNL     1      29.545   9.736  48.449  1.00  0.00    -0.270 NA
HETATM    9  C14 UNL     1      30.073   8.729  48.922  1.00  0.00     0.115 C 
HETATM   10  C15 UNL     1      31.155   8.068  48.282  1.00  0.00     0.050 C 
HETATM   11  C16 UNL     1      31.961   7.110  48.082  1.00  0.00     0.058 A 
HETATM   12  N4  UNL     1      32.902   6.170  47.754  1.00  0.00    -0.363 N 
HETATM   13  C17 UNL     1      33.100   4.844  47.436  1.00  0.00     0.107 A 
HETATM   14  C18 UNL     1      32.030   4.110  47.406  1.00  0.00     0.134 A 
HETATM   15  N5  UNL     1      30.855   4.830  47.706  1.00  0.00    -0.261 NA
HETATM   16  C19 UNL     1      30.789   6.111  48.008  1.00  0.00     0.066 A 
HETATM   17  H23 UNL     1      33.679   6.958  47.820  1.00  0.00     0.165 HD
ENDROOT
BRANCH   1  18
HETATM   18  C7  UNL     1      27.113   4.894  48.700  1.00  0.00     0.128 C 
BRANCH  18  19
HETATM   19  N1  UNL     1      26.847   4.134  49.920  1.00  0.00    -0.361 N 
HETATM   20  C6  UNL     1      25.659   3.420  50.187  1.00  0.00     0.217 C 
HETATM   21  O1  UNL     1      24.703   3.373  49.376  1.00  0.00    -0.274 OA
HETATM   22  H12 UNL     1      27.571   4.084  50.697  1.00  0.00     0.162 HD
BRANCH  20  23
HETATM   23  C5  UNL     1      25.472   2.675  51.458  1.00  0.00     0.103 C 
BRANCH  23  24
HETATM   24  C4  UNL     1      26.499   1.562  51.583  1.00  0.00     0.009 C 
BRANCH  24  25
HETATM   25  C3  UNL     1      25.958   0.406  52.382  1.00  0.00     0.000 C 
BRANCH  25  26
HETATM   26  C2  UNL     1      26.809  -0.838  52.277  1.00  0.00    -0.005 C 
HETATM   27  C1  UNL     1      28.009  -0.656  53.203  1.00  0.00     0.005 C 
ENDBRANCH  25  26
ENDBRANCH  24  25
ENDBRANCH  23  24
ENDBRANCH  20  23
ENDBRANCH  18  19
ENDBRANCH   1  18
TORSDOF 6
ENDMDL
MODEL 3
REMARK VINA RESULT:      -7.1      2.854      7.185
REMARK  6 active torsions:
REMARK  status: ('A' for Active; 'I' for Inactive)
REMARK    1  A    between atoms: C2_2  and  C3_3 
REMARK    2  A    between atoms: C3_3  and  C4_4 
REMARK    3  A    between atoms: C4_4  and  C5_5 
REMARK    4  A    between atoms: C5_5  and  C6_6 
REMARK       I    between atoms: C6_6  and  N1_8 
REMARK    5  A    between atoms: N1_8  and  C7_9 
REMARK    6  A    between atoms: C7_9  and  C8_10 
ROOT
HETATM    1  C8  UNL     1      25.065   3.442  50.436  1.00  0.00     0.021 C 
HETATM    2  C9  UNL     1      24.895   4.683  50.024  1.00  0.00     0.006 C 
HETATM    3  C10 UNL     1      23.385   4.456  50.143  1.00  0.00     0.052 C 
HETATM    4  C11 UNL     1      22.250   5.234  49.960  1.00  0.00     0.105 C 
HETATM    5  C12 UNL     1      21.098   6.226  49.721  1.00  0.00     0.243 C 
HETATM    6  N2  UNL     1      20.867   7.590  49.571  1.00  0.00     0.325 N 
HETATM    7  C13 UNL     1      22.218   8.322  49.721  1.00  0.00     0.462 C 
HETATM    8  N3  UNL     1      22.916   7.637  50.740  1.00  0.00    -0.270 NA
HETATM    9  C14 UNL     1      24.049   7.209  50.962  1.00  0.00     0.115 C 
HETATM   10  C15 UNL     1      25.117   7.372  50.040  1.00  0.00     0.050 C 
HETATM   11  C16 UNL     1      26.267   7.143  49.560  1.00  0.00     0.058 A 
HETATM   12  N4  UNL     1      27.478   7.009  48.931  1.00  0.00    -0.363 N 
HETATM   13  C17 UNL     1      28.377   6.106  48.408  1.00  0.00     0.107 A 
HETATM   14  C18 UNL     1      28.030   4.858  48.494  1.00  0.00     0.134 A 
HETATM   15  N5  UNL     1      26.776   4.672  49.112  1.00  0.00    -0.261 NA
HETATM   16  C19 UNL     1      25.999   5.625  49.587  1.00  0.00     0.066 A 
HETATM   17  H23 UNL     1      27.581   8.113  48.946  1.00  0.00     0.165 HD
ENDROOT
BRANCH   1  18
HETATM   18  C7  UNL     1      24.182   2.363  50.824  1.00  0.00     0.128 C 
BRANCH  18  19
HETATM   19  N1  UNL     1      24.877   1.446  51.726  1.00  0.00    -0.361 N 
HETATM   20  C6  UNL     1      25.178   1.714  53.079  1.00  0.00     0.217 C 
HETATM   21  O1  UNL     1      24.864   2.792  53.640  1.00  0.00    -0.274 OA
HETATM   22  H12 UNL     1      25.201   0.492  51.388  1.00  0.00     0.162 HD
BRANCH  20  23
HETATM   23  C5  UNL     1      25.891   0.723  53.925  1.00  0.00     0.103 C 
BRANCH  23  24
HETATM   24  C4  UNL     1      25.903  -0.642  53.256  1.00  0.00     0.009 C 
BRANCH  24  25
HETATM   25  C3  UNL     1      27.265  -0.966  52.702  1.00  0.00     0.000 C 
BRANCH  25  26
HETATM   26  C2  UNL     1      28.387  -0.276  53.442  1.00  0.00    -0.005 C 
HETATM   27  C1  UNL     1      29.539  -1.272  53.566  1.00  0.00     0.005 C 
ENDBRANCH  25  26
ENDBRANCH  24  25
ENDBRANCH  23  24
ENDBRANCH  20  23
ENDBRANCH  18  19
ENDBRANCH   1  18
TORSDOF 6
ENDMDL
MODEL 4
REMARK VINA RESULT:      -7.0      2.794      4.552
REMARK  6 active torsions:
REMARK  status: ('A' for Active; 'I' for Inactive)
REMARK    1  A    between atoms: C2_2  and  C3_3 
REMARK    2  A    between atoms: C3_3  and  C4_4 
REMARK    3  A    between atoms: C4_4  and  C5_5 
REMARK    4  A    between atoms: C5_5  and  C6_6 
REMARK       I    between atoms: C6_6  and  N1_8 
REMARK    5  A    between atoms: N1_8  and  C7_9 
REMARK    6  A    between atoms: C7_9  and  C8_10 
ROOT
HETATM    1  C8  UNL     1      26.818   4.077  49.405  1.00  0.00     0.021 C 
HETATM    2  C9  UNL     1      25.756   3.870  50.159  1.00  0.00     0.006 C 
HETATM    3  C10 UNL     1      25.294   5.285  49.800  1.00  0.00     0.052 C 
HETATM    4  C11 UNL     1      24.180   6.063  50.081  1.00  0.00     0.105 C 
HETATM    5  C12 UNL     1      22.884   6.791  50.480  1.00  0.00     0.243 C 
HETATM    6  N2  UNL     1      21.627   6.532  51.017  1.00  0.00     0.325 N 
HETATM    7  C13 UNL     1      21.516   5.012  51.261  1.00  0.00     0.462 C 
HETATM    8  N3  UNL     1      22.168   4.399  50.170  1.00  0.00    -0.270 NA
HETATM    9  C14 UNL     1      22.966   3.484  49.960  1.00  0.00     0.115 C 
HETATM   10  C15 UNL     1      23.489   2.678  51.006  1.00  0.00     0.050 C 
HETATM   11  C16 UNL     1      24.286   1.838  51.522  1.00  0.00     0.058 A 
HETATM   12  N4  UNL     1      25.059   0.944  52.215  1.00  0.00    -0.363 N 
HETATM   13  C17 UNL     1      26.351   0.589  52.534  1.00  0.00     0.107 A 
HETATM   14  C18 UNL     1      27.279   1.340  52.025  1.00  0.00     0.134 A 
HETATM   15  N5  UNL     1      26.771   2.393  51.237  1.00  0.00    -0.261 NA
HETATM   16  C19 UNL     1      25.497   2.631  50.993  1.00  0.00     0.066 A 
HETATM   17  H23 UNL     1      24.131   0.442  52.556  1.00  0.00     0.165 HD
ENDROOT
BRANCH   1  18
HETATM   18  C7  UNL     1      27.302   5.179  48.601  1.00  0.00     0.128 C 
BRANCH  18  19
HETATM   19  N1  UNL     1      28.733   5.374  48.826  1.00  0.00    -0.361 N 
HETATM   20  C6  UNL     1      29.550   6.277  48.112  1.00  0.00     0.217 C 
HETATM   21  O1  UNL     1      29.105   7.011  47.197  1.00  0.00    -0.274 OA
HETATM   22  H12 UNL     1      29.246   4.819  49.573  1.00  0.00     0.162 HD
BRANCH  20  23
HETATM   23  C5  UNL     1      31.000   6.409  48.406  1.00  0.00     0.103 C 
BRANCH  23  24
HETATM   24  C4  UNL     1      31.828   5.726  47.330  1.00  0.00     0.009 C 
BRANCH  24  25
HETATM   25  C3  UNL     1      32.120   4.294  47.693  1.00  0.00     0.000 C 
BRANCH  25  26
HETATM   26  C2  UNL     1      32.221   3.386  46.490  1.00  0.00    -0.005 C 
HETATM   27  C1  UNL     1      32.924   4.166  45.380  1.00  0.00     0.005 C 
ENDBRANCH  25  26
ENDBRANCH  24  25
ENDBRANCH  23  24
ENDBRANCH  20  23
ENDBRANCH  18  19
ENDBRANCH   1  18
TORSDOF 6
ENDMDL
MODEL 5
REMARK VINA RESULT:      -7.0      3.144      8.049
REMARK  6 active torsions:
REMARK  status: ('A' for Active; 'I' for Inactive)
REMARK    1  A    between atoms: C2_2  and  C3_3 
REMARK    2  A    between atoms: C3_3  and  C4_4 
REMARK    3  A    between atoms: C4_4  and  C5_5 
REMARK    4  A    between atoms: C5_5  and  C6_6 
REMARK       I    between atoms: C6_6  and  N1_8 
REMARK    5  A    between atoms: N1_8  and  C7_9 
REMARK    6  A    between atoms: C7_9  and  C8_10 
ROOT
HETATM    1  C8  UNL     1      26.841   4.170  49.551  1.00  0.00     0.021 C 
HETATM    2  C9  UNL     1      26.773   5.353  48.972  1.00  0.00     0.006 C 
HETATM    3  C10 UNL     1      25.252   5.177  48.919  1.00  0.00     0.052 C 
HETATM    4  C11 UNL     1      24.181   5.951  48.497  1.00  0.00     0.105 C 
HETATM    5  C12 UNL     1      23.108   6.931  47.989  1.00  0.00     0.243 C 
HETATM    6  N2  UNL     1      22.952   8.270  47.646  1.00  0.00     0.325 N 
HETATM    7  C13 UNL     1      24.300   8.984  47.880  1.00  0.00     0.462 C 
HETATM    8  N3  UNL     1      24.836   8.417  49.056  1.00  0.00    -0.270 NA
HETATM    9  C14 UNL     1      25.914   7.995  49.475  1.00  0.00     0.115 C 
HETATM   10  C15 UNL     1      27.096   8.016  48.687  1.00  0.00     0.050 C 
HETATM   11  C16 UNL     1      28.288   7.701  48.393  1.00  0.00     0.058 A 
HETATM   12  N4  UNL     1      29.562   7.461  47.949  1.00  0.00    -0.363 N 
HETATM   13  C17 UNL     1      30.484   6.479  47.662  1.00  0.00     0.107 A 
HETATM   14  C18 UNL     1      30.081   5.260  47.853  1.00  0.00     0.134 A 
HETATM   15  N5  UNL     1      28.752   5.182  48.321  1.00  0.00    -0.261 NA
HETATM   16  C19 UNL     1      27.959   6.205  48.571  1.00  0.00     0.066 A 
HETATM   17  H23 UNL     1      29.706   8.556  47.842  1.00  0.00     0.165 HD
ENDROOT
BRANCH   1  18
HETATM   18  C7  UNL     1      25.874   3.169  49.950  1.00  0.00     0.128 C 
BRANCH  18  19
HETATM   19  N1  UNL     1      26.533   2.110  50.711  1.00  0.00    -0.361 N 
HETATM   20  C6  UNL     1      25.982   1.456  51.835  1.00  0.00     0.217 C 
HETATM   21  O1  UNL     1      24.846   1.735  52.287  1.00  0.00    -0.274 OA
HETATM   22  H12 UNL     1      27.503   1.768  50.440  1.00  0.00     0.162 HD
BRANCH  20  23
HETATM   23  C5  UNL     1      26.725   0.389  52.552  1.00  0.00     0.103 C 
BRANCH  23  24
HETATM   24  C4  UNL     1      26.791   0.691  54.041  1.00  0.00     0.009 C 
BRANCH  24  25
HETATM   25  C3  UNL     1      28.074   0.183  54.645  1.00  0.00     0.000 C 
BRANCH  25  26
HETATM   26  C2  UNL     1      29.265   0.341  53.729  1.00  0.00    -0.005 C 
HETATM   27  C1  UNL     1      29.981  -1.006  53.668  1.00  0.00     0.005 C 
ENDBRANCH  25  26
ENDBRANCH  24  25
ENDBRANCH  23  24
ENDBRANCH  20  23
ENDBRANCH  18  19
ENDBRANCH   1  18
TORSDOF 6
ENDMDL
MODEL 6
REMARK VINA RESULT:      -6.9      2.568      5.107
REMARK  6 active torsions:
REMARK  status: ('A' for Active; 'I' for Inactive)
REMARK    1  A    between atoms: C2_2  and  C3_3 
REMARK    2  A    between atoms: C3_3  and  C4_4 
REMARK    3  A    between atoms: C4_4  and  C5_5 
REMARK    4  A    between atoms: C5_5  and  C6_6 
REMARK       I    between atoms: C6_6  and  N1_8 
REMARK    5  A    between atoms: N1_8  and  C7_9 
REMARK    6  A    between atoms: C7_9  and  C8_10 
ROOT
HETATM    1  C8  UNL     1      25.909   4.432  49.336  1.00  0.00     0.021 C 
HETATM    2  C9  UNL     1      25.084   3.682  50.041  1.00  0.00     0.006 C 
HETATM    3  C10 UNL     1      26.283   2.797  50.399  1.00  0.00     0.052 C 
HETATM    4  C11 UNL     1      26.483   1.678  51.193  1.00  0.00     0.105 C 
HETATM    5  C12 UNL     1      26.539   0.446  52.114  1.00  0.00     0.243 C 
HETATM    6  N2  UNL     1      25.787  -0.204  53.088  1.00  0.00     0.325 N 
HETATM    7  C13 UNL     1      24.493   0.608  53.311  1.00  0.00     0.462 C 
HETATM    8  N3  UNL     1      24.871   1.965  53.228  1.00  0.00    -0.270 NA
HETATM    9  C14 UNL     1      24.471   3.010  52.714  1.00  0.00     0.115 C 
HETATM   10  C15 UNL     1      23.276   3.070  51.948  1.00  0.00     0.050 C 
HETATM   11  C16 UNL     1      22.452   3.598  51.142  1.00  0.00     0.058 A 
HETATM   12  N4  UNL     1      21.467   4.039  50.297  1.00  0.00    -0.363 N 
HETATM   13  C17 UNL     1      21.211   4.559  49.047  1.00  0.00     0.107 A 
HETATM   14  C18 UNL     1      22.251   4.739  48.292  1.00  0.00     0.134 A 
HETATM   15  N5  UNL     1      23.459   4.354  48.910  1.00  0.00    -0.261 NA
HETATM   16  C19 UNL     1      23.583   3.870  50.130  1.00  0.00     0.066 A 
HETATM   17  H23 UNL     1      20.720   3.801  51.082  1.00  0.00     0.165 HD
ENDROOT
BRANCH   1  18
HETATM   18  C7  UNL     1      27.328   4.400  49.051  1.00  0.00     0.128 C 
BRANCH  18  19
HETATM   19  N1  UNL     1      27.778   5.717  48.602  1.00  0.00    -0.361 N 
HETATM   20  C6  UNL     1      29.079   6.015  48.142  1.00  0.00     0.217 C 
HETATM   21  O1  UNL     1      29.985   5.150  48.074  1.00  0.00    -0.274 OA
HETATM   22  H12 UNL     1      27.114   6.547  48.603  1.00  0.00     0.162 HD
BRANCH  20  23
HETATM   23  C5  UNL     1      29.452   7.385  47.706  1.00  0.00     0.103 C 
BRANCH  23  24
HETATM   24  C4  UNL     1      29.199   8.388  48.820  1.00  0.00     0.009 C 
BRANCH  24  25
HETATM   25  C3  UNL     1      30.482   9.027  49.283  1.00  0.00     0.000 C 
BRANCH  25  26
HETATM   26  C2  UNL     1      30.531  10.515  49.026  1.00  0.00    -0.005 C 
HETATM   27  C1  UNL     1      31.495  10.751  47.866  1.00  0.00     0.005 C 
ENDBRANCH  25  26
ENDBRANCH  24  25
ENDBRANCH  23  24
ENDBRANCH  20  23
ENDBRANCH  18  19
ENDBRANCH   1  18
TORSDOF 6
ENDMDL
MODEL 7
REMARK VINA RESULT:      -6.8      4.107      9.764
REMARK  6 active torsions:
REMARK  status: ('A' for Active; 'I' for Inactive)
REMARK    1  A    between atoms: C2_2  and  C3_3 
REMARK    2  A    between atoms: C3_3  and  C4_4 
REMARK    3  A    between atoms: C4_4  and  C5_5 
REMARK    4  A    between atoms: C5_5  and  C6_6 
REMARK       I    between atoms: C6_6  and  N1_8 
REMARK    5  A    between atoms: N1_8  and  C7_9 
REMARK    6  A    between atoms: C7_9  and  C8_10 
ROOT
HETATM    1  C8  UNL     1      29.059   5.421  48.440  1.00  0.00     0.021 C 
HETATM    2  C9  UNL     1      30.053   6.257  48.208  1.00  0.00     0.006 C 
HETATM    3  C10 UNL     1      29.004   7.341  47.940  1.00  0.00     0.052 C 
HETATM    4  C11 UNL     1      29.036   8.693  47.633  1.00  0.00     0.105 C 
HETATM    5  C12 UNL     1      29.242  10.182  47.302  1.00  0.00     0.243 C 
HETATM    6  N2  UNL     1      30.229  11.163  47.328  1.00  0.00     0.325 N 
HETATM    7  C13 UNL     1      31.516  10.530  47.899  1.00  0.00     0.462 C 
HETATM    8  N3  UNL     1      31.092   9.656  48.924  1.00  0.00    -0.270 NA
HETATM    9  C14 UNL     1      31.325   8.516  49.326  1.00  0.00     0.115 C 
HETATM   10  C15 UNL     1      32.291   7.676  48.711  1.00  0.00     0.050 C 
HETATM   11  C16 UNL     1      32.876   6.577  48.476  1.00  0.00     0.058 A 
HETATM   12  N4  UNL     1      33.610   5.473  48.127  1.00  0.00    -0.363 N 
HETATM   13  C17 UNL     1      33.536   4.171  47.682  1.00  0.00     0.107 A 
HETATM   14  C18 UNL     1      32.337   3.716  47.482  1.00  0.00     0.134 A 
HETATM   15  N5  UNL     1      31.330   4.664  47.759  1.00  0.00    -0.261 NA
HETATM   16  C19 UNL     1      31.524   5.893  48.193  1.00  0.00     0.066 A 
HETATM   17  H23 UNL     1      34.534   6.047  48.344  1.00  0.00     0.165 HD
ENDROOT
BRANCH   1  18
HETATM   18  C7  UNL     1      27.615   5.522  48.434  1.00  0.00     0.128 C 
BRANCH  18  19
HETATM   19  N1  UNL     1      27.034   4.438  49.225  1.00  0.00    -0.361 N 
HETATM   20  C6  UNL     1      25.652   4.234  49.427  1.00  0.00     0.217 C 
HETATM   21  O1  UNL     1      24.779   4.986  48.930  1.00  0.00    -0.274 OA
HETATM   22  H12 UNL     1      27.656   3.722  49.704  1.00  0.00     0.162 HD
BRANCH  20  23
HETATM   23  C5  UNL     1      25.147   3.105  50.249  1.00  0.00     0.103 C 
BRANCH  23  24
HETATM   24  C4  UNL     1      23.635   2.999  50.141  1.00  0.00     0.009 C 
BRANCH  24  25
HETATM   25  C3  UNL     1      23.128   1.737  50.789  1.00  0.00     0.000 C 
BRANCH  25  26
HETATM   26  C2  UNL     1      21.846   1.228  50.174  1.00  0.00    -0.005 C 
HETATM   27  C1  UNL     1      21.927   1.474  48.669  1.00  0.00     0.005 C 
ENDBRANCH  25  26
ENDBRANCH  24  25
ENDBRANCH  23  24
ENDBRANCH  20  23
ENDBRANCH  18  19
ENDBRANCH   1  18
TORSDOF 6
ENDMDL
MODEL 8
REMARK VINA RESULT:      -6.7      3.627     10.281
REMARK  6 active torsions:
REMARK  status: ('A' for Active; 'I' for Inactive)
REMARK    1  A    between atoms: C2_2  and  C3_3 
REMARK    2  A    between atoms: C3_3  and  C4_4 
REMARK    3  A    between atoms: C4_4  and  C5_5 
REMARK    4  A    between atoms: C5_5  and  C6_6 
REMARK       I    between atoms: C6_6  and  N1_8 
REMARK    5  A    between atoms: N1_8  and  C7_9 
REMARK    6  A    between atoms: C7_9  and  C8_10 
ROOT
HETATM    1  C8  UNL     1      28.126   6.176  48.385  1.00  0.00     0.021 C 
HETATM    2  C9  UNL     1      29.214   6.883  48.149  1.00  0.00     0.006 C 
HETATM    3  C10 UNL     1      29.997   5.566  48.129  1.00  0.00     0.052 C 
HETATM    4  C11 UNL     1      31.316   5.204  47.898  1.00  0.00     0.105 C 
HETATM    5  C12 UNL     1      32.811   4.968  47.614  1.00  0.00     0.243 C 
HETATM    6  N2  UNL     1      33.921   5.620  47.088  1.00  0.00     0.325 N 
HETATM    7  C13 UNL     1      33.476   7.025  46.628  1.00  0.00     0.462 C 
HETATM    8  N3  UNL     1      32.188   6.857  46.074  1.00  0.00    -0.270 NA
HETATM    9  C14 UNL     1      31.087   7.408  46.102  1.00  0.00     0.115 C 
HETATM   10  C15 UNL     1      30.849   8.592  46.850  1.00  0.00     0.050 C 
HETATM   11  C16 UNL     1      30.131   9.480  47.400  1.00  0.00     0.058 A 
HETATM   12  N4  UNL     1      29.494  10.513  48.035  1.00  0.00    -0.363 N 
HETATM   13  C17 UNL     1      28.508  10.836  48.941  1.00  0.00     0.107 A 
HETATM   14  C18 UNL     1      27.872   9.830  49.459  1.00  0.00     0.134 A 
HETATM   15  N5  UNL     1      28.329   8.582  48.985  1.00  0.00    -0.261 NA
HETATM   16  C19 UNL     1      29.287   8.395  48.099  1.00  0.00     0.066 A 
HETATM   17  H23 UNL     1      30.154  11.222  47.495  1.00  0.00     0.165 HD
ENDROOT
BRANCH   1  18
HETATM   18  C7  UNL     1      27.837   4.767  48.547  1.00  0.00     0.128 C 
BRANCH  18  19
HETATM   19  N1  UNL     1      26.504   4.591  49.122  1.00  0.00    -0.361 N 
HETATM   20  C6  UNL     1      26.184   3.698  50.167  1.00  0.00     0.217 C 
HETATM   21  O1  UNL     1      27.041   2.958  50.708  1.00  0.00    -0.274 OA
HETATM   22  H12 UNL     1      25.679   5.156  48.762  1.00  0.00     0.162 HD
BRANCH  20  23
HETATM   23  C5  UNL     1      24.799   3.582  50.691  1.00  0.00     0.103 C 
BRANCH  23  24
HETATM   24  C4  UNL     1      24.786   2.814  52.003  1.00  0.00     0.009 C 
BRANCH  24  25
HETATM   25  C3  UNL     1      24.083   1.491  51.855  1.00  0.00     0.000 C 
BRANCH  25  26
HETATM   26  C2  UNL     1      23.007   1.271  52.892  1.00  0.00    -0.005 C 
HETATM   27  C1  UNL     1      22.961  -0.225  53.199  1.00  0.00     0.005 C 
ENDBRANCH  25  26
ENDBRANCH  24  25
ENDBRANCH  23  24
ENDBRANCH  20  23
ENDBRANCH  18  19
ENDBRANCH   1  18
TORSDOF 6
ENDMDL
MODEL 9
REMARK VINA RESULT:      -6.6      4.587      7.904
REMARK  6 active torsions:
REMARK  status: ('A' for Active; 'I' for Inactive)
REMARK    1  A    between atoms: C2_2  and  C3_3 
REMARK    2  A    between atoms: C3_3  and  C4_4 
REMARK    3  A    between atoms: C4_4  and  C5_5 
REMARK    4  A    between atoms: C5_5  and  C6_6 
REMARK       I    between atoms: C6_6  and  N1_8 
REMARK    5  A    between atoms: N1_8  and  C7_9 
REMARK    6  A    between atoms: C7_9  and  C8_10 
ROOT
HETATM    1  C8  UNL     1      28.384   6.429  47.997  1.00  0.00     0.021 C 
HETATM    2  C9  UNL     1      27.106   6.647  48.236  1.00  0.00     0.006 C 
HETATM    3  C10 UNL     1      27.024   5.222  48.793  1.00  0.00     0.052 C 
HETATM    4  C11 UNL     1      26.037   4.446  49.382  1.00  0.00     0.105 C 
HETATM    5  C12 UNL     1      24.839   3.720  50.020  1.00  0.00     0.243 C 
HETATM    6  N2  UNL     1      23.580   3.984  50.550  1.00  0.00     0.325 N 
HETATM    7  C13 UNL     1      23.346   5.509  50.486  1.00  0.00     0.462 C 
HETATM    8  N3  UNL     1      24.590   6.103  50.790  1.00  0.00    -0.270 NA
HETATM    9  C14 UNL     1      25.307   7.016  50.381  1.00  0.00     0.115 C 
HETATM   10  C15 UNL     1      24.932   7.846  49.291  1.00  0.00     0.050 C 
HETATM   11  C16 UNL     1      25.127   8.700  48.375  1.00  0.00     0.058 A 
HETATM   12  N4  UNL     1      25.181   9.611  47.353  1.00  0.00    -0.363 N 
HETATM   13  C17 UNL     1      25.858   9.978  46.211  1.00  0.00     0.107 A 
HETATM   14  C18 UNL     1      26.861   9.221  45.888  1.00  0.00     0.134 A 
HETATM   15  N5  UNL     1      27.059   8.150  46.784  1.00  0.00    -0.261 NA
HETATM   16  C19 UNL     1      26.342   7.901  47.862  1.00  0.00     0.066 A 
HETATM   17  H23 UNL     1      24.295  10.116  47.789  1.00  0.00     0.165 HD
ENDROOT
BRANCH   1  18
HETATM   18  C7  UNL     1      29.285   5.313  48.193  1.00  0.00     0.128 C 
BRANCH  18  19
HETATM   19  N1  UNL     1      30.649   5.702  47.837  1.00  0.00    -0.361 N 
HETATM   20  C6  UNL     1      31.734   5.767  48.739  1.00  0.00     0.217 C 
HETATM   21  O1  UNL     1      31.617   5.487  49.956  1.00  0.00    -0.274 OA
HETATM   22  H12 UNL     1      30.896   5.964  46.837  1.00  0.00     0.162 HD
BRANCH  20  23
HETATM   23  C5  UNL     1      33.090   6.175  48.291  1.00  0.00     0.103 C 
BRANCH  23  24
HETATM   24  C4  UNL     1      33.496   5.407  47.044  1.00  0.00     0.009 C 
BRANCH  24  25
HETATM   25  C3  UNL     1      34.733   4.583  47.287  1.00  0.00     0.000 C 
BRANCH  25  26
HETATM   26  C2  UNL     1      34.430   3.203  47.821  1.00  0.00    -0.005 C 
HETATM   27  C1  UNL     1      33.240   2.656  47.036  1.00  0.00     0.005 C 
ENDBRANCH  25  26
ENDBRANCH  24  25
ENDBRANCH  23  24
ENDBRANCH  20  23
ENDBRANCH  18  19
ENDBRANCH   1  18
TORSDOF 6
ENDMDL
