MODEL 1
REMARK VINA RESULT:      -8.5      0.000      0.000
REMARK  2 active torsions:
REMARK  status: ('A' for Active; 'I' for Inactive)
REMARK    1  A    between atoms: N1_1  and  C1_2 
REMARK    2  A    between atoms: P1_17  and  C12_18 
ROOT
HETATM    1  C1  UNL     1      25.066   1.397  53.466  1.00  0.00     0.287 C 
HETATM    2  C2  UNL     1      23.631   1.274  53.117  1.00  0.00     0.022 A 
HETATM    3  C3  UNL     1      23.163   2.176  52.082  1.00  0.00     0.108 A 
HETATM    4  S1  UNL     1      21.448   1.801  51.957  1.00  0.00    -0.074 SA
HETATM    5  C4  UNL     1      21.386   0.510  53.224  1.00  0.00    -0.008 A 
HETATM    6  C5  UNL     1      22.648   0.470  53.631  1.00  0.00    -0.033 A 
HETATM    7  C6  UNL     1      22.720  -0.568  54.692  1.00  0.00     0.040 C 
HETATM    8  C7  UNL     1      22.039  -1.806  54.179  1.00  0.00     0.005 C 
HETATM    9  C8  UNL     1      20.569  -1.642  54.031  1.00  0.00     0.005 C 
HETATM   10  C9  UNL     1      20.216  -0.243  53.647  1.00  0.00     0.046 C 
HETATM   11  N2  UNL     1      24.152   2.980  51.609  1.00  0.00    -0.234 NA
HETATM   12  C10 UNL     1      24.168   4.176  51.188  1.00  0.00     0.231 C 
HETATM   13  N3  UNL     1      25.555   3.864  51.027  1.00  0.00    -0.260 N 
HETATM   14  O1  UNL     1      26.731   3.318  50.701  1.00  0.00    -0.275 OA
HETATM   15  C11 UNL     1      27.197   2.458  51.649  1.00  0.00     0.242 C 
HETATM   16  P1  UNL     1      26.104   0.997  51.996  1.00  0.00    -0.017 P 
HETATM   17  H13 UNL     1      26.153   4.572  51.519  1.00  0.00     0.195 HD
ENDROOT
BRANCH  16  18
HETATM   18  C12 UNL     1      27.175  -0.412  52.480  1.00  0.00    -0.027 A 
HETATM   19  C13 UNL     1      26.883  -1.733  52.380  1.00  0.00     0.012 A 
HETATM   20  C14 UNL     1      27.689  -2.793  52.746  1.00  0.00     0.001 A 
HETATM   21  C15 UNL     1      28.935  -2.454  53.276  1.00  0.00     0.000 A 
HETATM   22  C16 UNL     1      29.288  -1.105  53.403  1.00  0.00     0.001 A 
HETATM   23  C17 UNL     1      28.421  -0.088  53.010  1.00  0.00     0.012 A 
ENDBRANCH  16  18
BRANCH   1  24
HETATM   24  N1  UNL     1      25.451   0.699  54.666  1.00  0.00     0.092 N 
HETATM   25  H1  UNL     1      26.489   0.722  54.737  1.00  0.00     0.314 HD
HETATM   26  H2  UNL     1      25.003   1.226  55.458  1.00  0.00     0.314 HD
ENDBRANCH   1  24
TORSDOF 2
ENDMDL
MODEL 2
REMARK VINA RESULT:      -8.5      2.698      6.122
REMARK  2 active torsions:
REMARK  status: ('A' for Active; 'I' for Inactive)
REMARK    1  A    between atoms: N1_1  and  C1_2 
REMARK    2  A    between atoms: P1_17  and  C12_18 
ROOT
HETATM    1  C1  UNL     1      24.095   2.521  52.691  1.00  0.00     0.287 C 
HETATM    2  C2  UNL     1      24.935   1.411  53.198  1.00  0.00     0.022 A 
HETATM    3  C3  UNL     1      24.325   0.096  53.145  1.00  0.00     0.108 A 
HETATM    4  S1  UNL     1      25.550  -0.952  53.851  1.00  0.00    -0.074 SA
HETATM    5  C4  UNL     1      26.796   0.318  54.186  1.00  0.00    -0.008 A 
HETATM    6  C5  UNL     1      26.191   1.413  53.744  1.00  0.00    -0.033 A 
HETATM    7  C6  UNL     1      27.131   2.540  53.974  1.00  0.00     0.040 C 
HETATM    8  C7  UNL     1      28.479   2.139  53.443  1.00  0.00     0.005 C 
HETATM    9  C8  UNL     1      29.119   1.059  54.237  1.00  0.00     0.005 C 
HETATM   10  C9  UNL     1      28.100   0.122  54.798  1.00  0.00     0.046 C 
HETATM   11  N2  UNL     1      23.070   0.127  52.623  1.00  0.00    -0.234 NA
HETATM   12  C10 UNL     1      22.018  -0.541  52.860  1.00  0.00     0.231 C 
HETATM   13  N3  UNL     1      21.513   0.314  51.830  1.00  0.00    -0.260 N 
HETATM   14  O1  UNL     1      21.300   0.994  50.699  1.00  0.00    -0.275 OA
HETATM   15  C11 UNL     1      21.867   2.233  50.710  1.00  0.00     0.242 C 
HETATM   16  P1  UNL     1      23.714   2.255  50.907  1.00  0.00    -0.017 P 
HETATM   17  H13 UNL     1      20.651   0.816  52.155  1.00  0.00     0.195 HD
ENDROOT
BRANCH  16  18
HETATM   18  C12 UNL     1      24.364   3.717  50.009  1.00  0.00    -0.027 A 
HETATM   19  C13 UNL     1      23.648   4.761  49.520  1.00  0.00     0.012 A 
HETATM   20  C14 UNL     1      24.137   5.860  48.842  1.00  0.00     0.001 A 
HETATM   21  C15 UNL     1      25.519   5.887  48.646  1.00  0.00     0.000 A 
HETATM   22  C16 UNL     1      26.306   4.835  49.131  1.00  0.00     0.001 A 
HETATM   23  C17 UNL     1      25.740   3.757  49.807  1.00  0.00     0.012 A 
ENDBRANCH  16  18
BRANCH   1  24
HETATM   24  N1  UNL     1      24.596   3.836  52.995  1.00  0.00     0.092 N 
HETATM   25  H1  UNL     1      25.572   3.903  52.641  1.00  0.00     0.314 HD
HETATM   26  H2  UNL     1      23.961   4.506  52.489  1.00  0.00     0.314 HD
ENDBRANCH   1  24
TORSDOF 2
ENDMDL
MODEL 3
REMARK VINA RESULT:      -8.4      2.833      5.605
REMARK  2 active torsions:
REMARK  status: ('A' for Active; 'I' for Inactive)
REMARK    1  A    between atoms: N1_1  and  C1_2 
REMARK    2  A    between atoms: P1_17  and  C12_18 
ROOT
HETATM    1  C1  UNL     1      23.562   3.247  51.861  1.00  0.00     0.287 C 
HETATM    2  C2  UNL     1      23.790   1.912  52.464  1.00  0.00     0.022 A 
HETATM    3  C3  UNL     1      22.785   0.912  52.157  1.00  0.00     0.108 A 
HETATM    4  S1  UNL     1      23.330  -0.503  53.051  1.00  0.00    -0.074 SA
HETATM    5  C4  UNL     1      24.817   0.227  53.782  1.00  0.00    -0.008 A 
HETATM    6  C5  UNL     1      24.779   1.461  53.298  1.00  0.00    -0.033 A 
HETATM    7  C6  UNL     1      25.968   2.168  53.840  1.00  0.00     0.040 C 
HETATM    8  C7  UNL     1      27.170   1.294  53.621  1.00  0.00     0.005 C 
HETATM    9  C8  UNL     1      27.156   0.065  54.457  1.00  0.00     0.005 C 
HETATM   10  C9  UNL     1      25.762  -0.425  54.674  1.00  0.00     0.046 C 
HETATM   11  N2  UNL     1      21.803   1.394  51.351  1.00  0.00    -0.234 NA
HETATM   12  C10 UNL     1      20.559   1.162  51.269  1.00  0.00     0.231 C 
HETATM   13  N3  UNL     1      20.675   2.129  50.221  1.00  0.00    -0.260 N 
HETATM   14  O1  UNL     1      21.016   2.824  49.131  1.00  0.00    -0.275 OA
HETATM   15  C11 UNL     1      21.965   3.769  49.381  1.00  0.00     0.242 C 
HETATM   16  P1  UNL     1      23.581   3.114  50.022  1.00  0.00    -0.017 P 
HETATM   17  H13 UNL     1      19.996   2.916  50.367  1.00  0.00     0.195 HD
ENDROOT
BRANCH  16  18
HETATM   18  C12 UNL     1      24.918   4.225  49.432  1.00  0.00    -0.027 A 
HETATM   19  C13 UNL     1      24.786   5.502  48.992  1.00  0.00     0.012 A 
HETATM   20  C14 UNL     1      25.792   6.336  48.546  1.00  0.00     0.001 A 
HETATM   21  C15 UNL     1      27.079   5.794  48.552  1.00  0.00     0.000 A 
HETATM   22  C16 UNL     1      27.272   4.480  48.996  1.00  0.00     0.001 A 
HETATM   23  C17 UNL     1      26.206   3.697  49.433  1.00  0.00     0.012 A 
ENDBRANCH  16  18
BRANCH   1  24
HETATM   24  N1  UNL     1      24.405   4.291  52.384  1.00  0.00     0.092 N 
HETATM   25  H1  UNL     1      24.564   4.106  53.395  1.00  0.00     0.314 HD
HETATM   26  H2  UNL     1      25.304   4.228  51.840  1.00  0.00     0.314 HD
ENDBRANCH   1  24
TORSDOF 2
ENDMDL
MODEL 4
REMARK VINA RESULT:      -8.1      2.966      5.548
REMARK  2 active torsions:
REMARK  status: ('A' for Active; 'I' for Inactive)
REMARK    1  A    between atoms: N1_1  and  C1_2 
REMARK    2  A    between atoms: P1_17  and  C12_18 
ROOT
HETATM    1  C1  UNL     1      23.253   3.875  51.626  1.00  0.00     0.287 C 
HETATM    2  C2  UNL     1      23.093   2.469  52.064  1.00  0.00     0.022 A 
HETATM    3  C3  UNL     1      21.847   1.835  51.678  1.00  0.00     0.108 A 
HETATM    4  S1  UNL     1      21.968   0.228  52.385  1.00  0.00    -0.074 SA
HETATM    5  C4  UNL     1      23.600   0.417  53.146  1.00  0.00    -0.008 A 
HETATM    6  C5  UNL     1      23.913   1.661  52.808  1.00  0.00    -0.033 A 
HETATM    7  C6  UNL     1      25.252   1.936  53.389  1.00  0.00     0.040 C 
HETATM    8  C7  UNL     1      26.159   0.791  53.032  1.00  0.00     0.005 C 
HETATM    9  C8  UNL     1      25.796  -0.474  53.721  1.00  0.00     0.005 C 
HETATM   10  C9  UNL     1      24.320  -0.576  53.926  1.00  0.00     0.046 C 
HETATM   11  N2  UNL     1      21.042   2.667  50.964  1.00  0.00    -0.234 NA
HETATM   12  C10 UNL     1      19.783   2.805  50.897  1.00  0.00     0.231 C 
HETATM   13  N3  UNL     1      20.169   3.818  49.964  1.00  0.00    -0.260 N 
HETATM   14  O1  UNL     1      20.695   4.515  48.951  1.00  0.00    -0.275 OA
HETATM   15  C11 UNL     1      21.872   5.118  49.276  1.00  0.00     0.242 C 
HETATM   16  P1  UNL     1      23.236   3.964  49.785  1.00  0.00    -0.017 P 
HETATM   17  H13 UNL     1      19.741   4.742  50.221  1.00  0.00     0.195 HD
ENDROOT
BRANCH  16  18
HETATM   18  C12 UNL     1      24.833   4.715  49.283  1.00  0.00    -0.027 A 
HETATM   19  C13 UNL     1      25.036   5.978  48.829  1.00  0.00     0.012 A 
HETATM   20  C14 UNL     1      26.237   6.543  48.449  1.00  0.00     0.001 A 
HETATM   21  C15 UNL     1      27.356   5.713  48.546  1.00  0.00     0.000 A 
HETATM   22  C16 UNL     1      27.204   4.400  49.009  1.00  0.00     0.001 A 
HETATM   23  C17 UNL     1      25.957   3.899  49.375  1.00  0.00     0.012 A 
ENDBRANCH  16  18
BRANCH   1  24
HETATM   24  N1  UNL     1      24.357   4.570  52.238  1.00  0.00     0.092 N 
HETATM   25  H1  UNL     1      25.113   3.880  52.424  1.00  0.00     0.314 HD
HETATM   26  H2  UNL     1      24.662   5.291  51.535  1.00  0.00     0.314 HD
ENDBRANCH   1  24
TORSDOF 2
ENDMDL
MODEL 5
REMARK VINA RESULT:      -8.0      3.362      7.042
REMARK  2 active torsions:
REMARK  status: ('A' for Active; 'I' for Inactive)
REMARK    1  A    between atoms: N1_1  and  C1_2 
REMARK    2  A    between atoms: P1_17  and  C12_18 
ROOT
HETATM    1  C1  UNL     1      22.479   1.335  53.226  1.00  0.00     0.287 C 
HETATM    2  C2  UNL     1      23.875   1.349  52.731  1.00  0.00     0.022 A 
HETATM    3  C3  UNL     1      24.743   0.331  53.292  1.00  0.00     0.108 A 
HETATM    4  S1  UNL     1      26.300   0.661  52.539  1.00  0.00    -0.074 SA
HETATM    5  C4  UNL     1      25.791   2.081  51.537  1.00  0.00    -0.008 A 
HETATM    6  C5  UNL     1      24.507   2.186  51.850  1.00  0.00    -0.033 A 
HETATM    7  C6  UNL     1      23.974   3.339  51.079  1.00  0.00     0.040 C 
HETATM    8  C7  UNL     1      24.406   3.181  49.648  1.00  0.00     0.005 C 
HETATM    9  C8  UNL     1      25.869   3.355  49.459  1.00  0.00     0.005 C 
HETATM   10  C9  UNL     1      26.630   2.867  50.647  1.00  0.00     0.046 C 
HETATM   11  N2  UNL     1      24.098  -0.468  54.182  1.00  0.00    -0.234 NA
HETATM   12  C10 UNL     1      24.465  -1.049  55.248  1.00  0.00     0.231 C 
HETATM   13  N3  UNL     1      23.102  -1.480  55.218  1.00  0.00    -0.260 N 
HETATM   14  O1  UNL     1      21.910  -1.987  54.885  1.00  0.00    -0.275 OA
HETATM   15  C11 UNL     1      21.070  -1.059  54.348  1.00  0.00     0.242 C 
HETATM   16  P1  UNL     1      21.673  -0.262  52.781  1.00  0.00    -0.017 P 
HETATM   17  H13 UNL     1      22.619  -1.247  56.120  1.00  0.00     0.195 HD
ENDROOT
BRANCH  16  18
HETATM   18  C12 UNL     1      20.208   0.158  51.758  1.00  0.00    -0.027 A 
HETATM   19  C13 UNL     1      20.204   0.784  50.554  1.00  0.00     0.012 A 
HETATM   20  C14 UNL     1      19.102   1.102  49.786  1.00  0.00     0.001 A 
HETATM   21  C15 UNL     1      17.864   0.734  50.317  1.00  0.00     0.000 A 
HETATM   22  C16 UNL     1      17.811   0.085  51.557  1.00  0.00     0.001 A 
HETATM   23  C17 UNL     1      18.968  -0.203  52.276  1.00  0.00     0.012 A 
ENDBRANCH  16  18
BRANCH   1  24
HETATM   24  N1  UNL     1      21.708   2.500  52.875  1.00  0.00     0.092 N 
HETATM   25  H1  UNL     1      22.160   3.332  53.305  1.00  0.00     0.314 HD
HETATM   26  H2  UNL     1      21.736   2.552  51.824  1.00  0.00     0.314 HD
ENDBRANCH   1  24
TORSDOF 2
ENDMDL
MODEL 6
REMARK VINA RESULT:      -7.6      2.517      5.370
REMARK  2 active torsions:
REMARK  status: ('A' for Active; 'I' for Inactive)
REMARK    1  A    between atoms: N1_1  and  C1_2 
REMARK    2  A    between atoms: P1_17  and  C12_18 
ROOT
HETATM    1  C1  UNL     1      23.562   1.100  51.920  1.00  0.00     0.287 C 
HETATM    2  C2  UNL     1      22.601   0.301  52.717  1.00  0.00     0.022 A 
HETATM    3  C3  UNL     1      23.139  -0.290  53.928  1.00  0.00     0.108 A 
HETATM    4  S1  UNL     1      21.775  -1.186  54.586  1.00  0.00    -0.074 SA
HETATM    5  C4  UNL     1      20.568  -0.776  53.300  1.00  0.00    -0.008 A 
HETATM    6  C5  UNL     1      21.285  -0.008  52.491  1.00  0.00    -0.033 A 
HETATM    7  C6  UNL     1      20.388   0.392  51.378  1.00  0.00     0.040 C 
HETATM    8  C7  UNL     1      19.102   0.894  51.973  1.00  0.00     0.005 C 
HETATM    9  C8  UNL     1      18.303  -0.179  52.620  1.00  0.00     0.005 C 
HETATM   10  C9  UNL     1      19.185  -1.220  53.227  1.00  0.00     0.046 C 
HETATM   11  N2  UNL     1      24.451   0.011  54.113  1.00  0.00    -0.234 NA
HETATM   12  C10 UNL     1      25.424  -0.632  54.613  1.00  0.00     0.231 C 
HETATM   13  N3  UNL     1      26.108   0.577  54.270  1.00  0.00    -0.260 N 
HETATM   14  O1  UNL     1      26.506   1.846  54.130  1.00  0.00    -0.275 OA
HETATM   15  C11 UNL     1      26.013   2.436  53.006  1.00  0.00     0.242 C 
HETATM   16  P1  UNL     1      24.160   2.533  52.913  1.00  0.00    -0.017 P 
HETATM   17  H13 UNL     1      26.946   0.372  53.673  1.00  0.00     0.195 HD
ENDROOT
BRANCH  16  18
HETATM   18  C12 UNL     1      23.717   4.044  51.970  1.00  0.00    -0.027 A 
HETATM   19  C13 UNL     1      24.491   4.705  51.073  1.00  0.00     0.012 A 
HETATM   20  C14 UNL     1      24.158   5.842  50.366  1.00  0.00     0.001 A 
HETATM   21  C15 UNL     1      22.884   6.359  50.610  1.00  0.00     0.000 A 
HETATM   22  C16 UNL     1      22.043   5.717  51.528  1.00  0.00     0.001 A 
HETATM   23  C17 UNL     1      22.449   4.569  52.205  1.00  0.00     0.012 A 
ENDBRANCH  16  18
BRANCH   1  24
HETATM   24  N1  UNL     1      23.098   1.450  50.602  1.00  0.00     0.092 N 
HETATM   25  H1  UNL     1      23.479   0.756  49.927  1.00  0.00     0.314 HD
HETATM   26  H2  UNL     1      22.048   1.401  50.648  1.00  0.00     0.314 HD
ENDBRANCH   1  24
TORSDOF 2
ENDMDL
MODEL 7
REMARK VINA RESULT:      -7.6      4.282      7.001
REMARK  2 active torsions:
REMARK  status: ('A' for Active; 'I' for Inactive)
REMARK    1  A    between atoms: N1_1  and  C1_2 
REMARK    2  A    between atoms: P1_17  and  C12_18 
ROOT
HETATM    1  C1  UNL     1      20.467   1.493  52.034  1.00  0.00     0.287 C 
HETATM    2  C2  UNL     1      21.219   0.483  52.815  1.00  0.00     0.022 A 
HETATM    3  C3  UNL     1      20.453  -0.674  53.236  1.00  0.00     0.108 A 
HETATM    4  S1  UNL     1      21.615  -1.621  54.158  1.00  0.00    -0.074 SA
HETATM    5  C4  UNL     1      23.036  -0.514  53.974  1.00  0.00    -0.008 A 
HETATM    6  C5  UNL     1      22.521   0.466  53.242  1.00  0.00    -0.033 A 
HETATM    7  C6  UNL     1      23.611   1.453  53.026  1.00  0.00     0.040 C 
HETATM    8  C7  UNL     1      24.830   0.707  52.562  1.00  0.00     0.005 C 
HETATM    9  C8  UNL     1      25.422  -0.154  53.618  1.00  0.00     0.005 C 
HETATM   10  C9  UNL     1      24.369  -0.703  54.523  1.00  0.00     0.046 C 
HETATM   11  N2  UNL     1      19.160  -0.618  52.822  1.00  0.00    -0.234 NA
HETATM   12  C10 UNL     1      18.069  -1.011  53.336  1.00  0.00     0.231 C 
HETATM   13  N3  UNL     1      17.556  -0.455  52.121  1.00  0.00    -0.260 N 
HETATM   14  O1  UNL     1      17.299  -0.139  50.848  1.00  0.00    -0.275 OA
HETATM   15  C11 UNL     1      18.008   0.940  50.415  1.00  0.00     0.242 C 
HETATM   16  P1  UNL     1      19.855   0.743  50.465  1.00  0.00    -0.017 P 
HETATM   17  H13 UNL     1      16.804   0.248  52.324  1.00  0.00     0.195 HD
ENDROOT
BRANCH  16  18
HETATM   18  C12 UNL     1      20.570   1.735  49.097  1.00  0.00    -0.027 A 
HETATM   19  C13 UNL     1      19.979   2.764  48.437  1.00  0.00     0.012 A 
HETATM   20  C14 UNL     1      20.516   3.508  47.407  1.00  0.00     0.001 A 
HETATM   21  C15 UNL     1      21.807   3.154  47.009  1.00  0.00     0.000 A 
HETATM   22  C16 UNL     1      22.463   2.099  47.656  1.00  0.00     0.001 A 
HETATM   23  C17 UNL     1      21.856   1.392  48.691  1.00  0.00     0.012 A 
ENDBRANCH  16  18
BRANCH   1  24
HETATM   24  N1  UNL     1      21.156   2.746  51.857  1.00  0.00     0.092 N 
HETATM   25  H1  UNL     1      21.561   3.028  52.772  1.00  0.00     0.314 HD
HETATM   26  H2  UNL     1      21.910   2.557  51.148  1.00  0.00     0.314 HD
ENDBRANCH   1  24
TORSDOF 2
ENDMDL
MODEL 8
REMARK VINA RESULT:      -7.5      3.848      5.980
REMARK  2 active torsions:
REMARK  status: ('A' for Active; 'I' for Inactive)
REMARK    1  A    between atoms: N1_1  and  C1_2 
REMARK    2  A    between atoms: P1_17  and  C12_18 
ROOT
HETATM    1  C1  UNL     1      23.145   5.569  50.920  1.00  0.00     0.287 C 
HETATM    2  C2  UNL     1      22.317   4.380  51.230  1.00  0.00     0.022 A 
HETATM    3  C3  UNL     1      20.986   4.382  50.654  1.00  0.00     0.108 A 
HETATM    4  S1  UNL     1      20.280   2.883  51.250  1.00  0.00    -0.074 SA
HETATM    5  C4  UNL     1      21.703   2.306  52.208  1.00  0.00    -0.008 A 
HETATM    6  C5  UNL     1      22.581   3.279  52.003  1.00  0.00    -0.033 A 
HETATM    7  C6  UNL     1      23.808   2.912  52.756  1.00  0.00     0.040 C 
HETATM    8  C7  UNL     1      24.150   1.487  52.423  1.00  0.00     0.005 C 
HETATM    9  C8  UNL     1      23.171   0.512  52.968  1.00  0.00     0.005 C 
HETATM   10  C9  UNL     1      21.792   1.084  52.991  1.00  0.00     0.046 C 
HETATM   11  N2  UNL     1      20.742   5.496  49.915  1.00  0.00    -0.234 NA
HETATM   12  C10 UNL     1      19.699   6.189  49.712  1.00  0.00     0.231 C 
HETATM   13  N3  UNL     1      20.620   6.931  48.908  1.00  0.00    -0.260 N 
HETATM   14  O1  UNL     1      21.535   7.330  48.018  1.00  0.00    -0.275 OA
HETATM   15  C11 UNL     1      22.800   7.333  48.523  1.00  0.00     0.242 C 
HETATM   16  P1  UNL     1      23.423   5.681  49.101  1.00  0.00    -0.017 P 
HETATM   17  H13 UNL     1      20.617   7.945  49.181  1.00  0.00     0.195 HD
ENDROOT
BRANCH  16  18
HETATM   18  C12 UNL     1      25.241   5.639  48.846  1.00  0.00    -0.027 A 
HETATM   19  C13 UNL     1      26.076   4.596  49.085  1.00  0.00     0.012 A 
HETATM   20  C14 UNL     1      27.443   4.566  48.895  1.00  0.00     0.001 A 
HETATM   21  C15 UNL     1      28.015   5.742  48.406  1.00  0.00     0.000 A 
HETATM   22  C16 UNL     1      27.198   6.849  48.143  1.00  0.00     0.001 A 
HETATM   23  C17 UNL     1      25.823   6.804  48.359  1.00  0.00     0.012 A 
ENDBRANCH  16  18
BRANCH   1  24
HETATM   24  N1  UNL     1      24.346   5.683  51.706  1.00  0.00     0.092 N 
HETATM   25  H1  UNL     1      25.074   6.145  51.125  1.00  0.00     0.314 HD
HETATM   26  H2  UNL     1      24.087   6.277  52.536  1.00  0.00     0.314 HD
ENDBRANCH   1  24
TORSDOF 2
ENDMDL
MODEL 9
REMARK VINA RESULT:      -7.5      3.793      7.321
REMARK  2 active torsions:
REMARK  status: ('A' for Active; 'I' for Inactive)
REMARK    1  A    between atoms: N1_1  and  C1_2 
REMARK    2  A    between atoms: P1_17  and  C12_18 
ROOT
HETATM    1  C1  UNL     1      21.600   1.659  52.715  1.00  0.00     0.287 C 
HETATM    2  C2  UNL     1      23.010   1.205  52.752  1.00  0.00     0.022 A 
HETATM    3  C3  UNL     1      23.233  -0.081  53.383  1.00  0.00     0.108 A 
HETATM    4  S1  UNL     1      24.979  -0.283  53.297  1.00  0.00    -0.074 SA
HETATM    5  C4  UNL     1      25.365   1.275  52.459  1.00  0.00    -0.008 A 
HETATM    6  C5  UNL     1      24.160   1.811  52.317  1.00  0.00    -0.033 A 
HETATM    7  C6  UNL     1      24.353   3.116  51.634  1.00  0.00     0.040 C 
HETATM    8  C7  UNL     1      25.239   2.891  50.441  1.00  0.00     0.005 C 
HETATM    9  C8  UNL     1      26.636   2.547  50.812  1.00  0.00     0.005 C 
HETATM   10  C9  UNL     1      26.682   1.760  52.080  1.00  0.00     0.046 C 
HETATM   11  N2  UNL     1      22.080  -0.647  53.829  1.00  0.00    -0.234 NA
HETATM   12  C10 UNL     1      21.803  -1.375  54.830  1.00  0.00     0.231 C 
HETATM   13  N3  UNL     1      20.500  -1.295  54.245  1.00  0.00    -0.260 N 
HETATM   14  O1  UNL     1      19.441  -1.330  53.430  1.00  0.00    -0.275 OA
HETATM   15  C11 UNL     1      19.207  -0.139  52.813  1.00  0.00     0.242 C 
HETATM   16  P1  UNL     1      20.587   0.475  51.731  1.00  0.00    -0.017 P 
HETATM   17  H13 UNL     1      19.799  -0.954  54.948  1.00  0.00     0.195 HD
ENDROOT
BRANCH  16  18
HETATM   18  C12 UNL     1      19.845   1.438  50.356  1.00  0.00    -0.027 A 
HETATM   19  C13 UNL     1      18.583   1.932  50.291  1.00  0.00     0.012 A 
HETATM   20  C14 UNL     1      18.025   2.655  49.256  1.00  0.00     0.001 A 
HETATM   21  C15 UNL     1      18.860   2.895  48.163  1.00  0.00     0.000 A 
HETATM   22  C16 UNL     1      20.173   2.407  48.177  1.00  0.00     0.001 A 
HETATM   23  C17 UNL     1      20.667   1.685  49.261  1.00  0.00     0.012 A 
ENDBRANCH  16  18
BRANCH   1  24
HETATM   24  N1  UNL     1      21.426   3.038  52.337  1.00  0.00     0.092 N 
HETATM   25  H1  UNL     1      21.552   3.112  51.307  1.00  0.00     0.314 HD
HETATM   26  H2  UNL     1      20.444   3.288  52.620  1.00  0.00     0.314 HD
ENDBRANCH   1  24
TORSDOF 2
ENDMDL
