MODEL 1
REMARK VINA RESULT:      -7.4      0.000      0.000
REMARK  8 active torsions:
REMARK  status: ('A' for Active; 'I' for Inactive)
REMARK    1  A    between atoms: C2_2  and  N1_3 
REMARK    2  A    between atoms: N1_3  and  C4_5 
REMARK    3  A    between atoms: C4_5  and  C5_6 
REMARK    4  A    between atoms: C5_6  and  C6_7 
REMARK    5  A    between atoms: N2_11  and  C10_12 
REMARK    6  A    between atoms: C14_18  and  C15_19 
REMARK    7  A    between atoms: C15_19  and  N4_20 
REMARK       I    between atoms: N4_20  and  C16_21 
REMARK    8  A    between atoms: C18_25  and  O2_26 
ROOT
HETATM    1  C6  UNL     1      24.791   7.041  49.091  1.00  0.00    -0.052 C 
HETATM    2  C7  UNL     1      23.854   7.647  49.832  1.00  0.00     0.009 C 
HETATM    3  C8  UNL     1      23.007   7.021  50.838  1.00  0.00     0.019 C 
HETATM    4  C9  UNL     1      22.957   5.797  51.339  1.00  0.00     0.117 C 
HETATM    5  N2  UNL     1      23.806   4.734  50.956  1.00  0.00    -0.135 N 
HETATM    6  C18 UNL     1      24.760   4.666  49.907  1.00  0.00     0.164 C 
HETATM    7  C20 UNL     1      25.191   5.640  49.102  1.00  0.00     0.064 C 
ENDROOT
BRANCH   5   8
HETATM    8  C10 UNL     1      23.766   3.510  51.678  1.00  0.00     0.713 A 
HETATM    9  N3  UNL     1      22.690   2.809  51.583  1.00  0.00    -0.074 NA
HETATM   10  C11 UNL     1      22.488   1.566  52.237  1.00  0.00     0.162 A 
HETATM   11  C12 UNL     1      23.522   1.186  52.962  1.00  0.00     0.079 A 
HETATM   12 CL1  UNL     1      23.262  -0.337  53.757  1.00  0.00    -0.080 Cl
HETATM   13  C13 UNL     1      24.772   1.905  53.129  1.00  0.00     0.070 A 
HETATM   14  C14 UNL     1      25.778   1.481  53.869  1.00  0.00     0.024 C 
HETATM   15  N5  UNL     1      24.902   3.142  52.445  1.00  0.00    -0.188 N 
HETATM   16  H24 UNL     1      25.752   3.733  52.496  1.00  0.00     0.184 HD
BRANCH  14  17
HETATM   17  C15 UNL     1      26.254   0.400  54.749  1.00  0.00     0.152 C 
BRANCH  17  18
HETATM   18  N4  UNL     1      27.385  -0.338  54.217  1.00  0.00    -0.358 N 
HETATM   19  C16 UNL     1      28.734   0.034  54.327  1.00  0.00     0.213 C 
HETATM   20  C17 UNL     1      29.890  -0.712  53.786  1.00  0.00     0.117 C 
HETATM   21  O1  UNL     1      29.097   1.074  54.915  1.00  0.00    -0.274 OA
HETATM   22  H20 UNL     1      27.297  -1.246  53.685  1.00  0.00     0.162 HD
ENDBRANCH  17  18
ENDBRANCH  14  17
ENDBRANCH   5   8
BRANCH   6  23
HETATM   23  O2  UNL     1      25.392   3.446  49.598  1.00  0.00    -0.340 OA
HETATM   24  C19 UNL     1      26.798   3.518  49.435  1.00  0.00     0.211 C 
ENDBRANCH   6  23
BRANCH   1  25
HETATM   25  C5  UNL     1      25.518   7.926  48.127  1.00  0.00     0.069 C 
BRANCH  25  26
HETATM   26  C4  UNL     1      26.545   8.757  48.876  1.00  0.00     0.276 C 
BRANCH  26  27
HETATM   27  N1  UNL     1      27.845   8.125  48.931  1.00  0.00     0.084 N 
HETATM   28  C3  UNL     1      28.905   9.061  49.235  1.00  0.00     0.309 C 
BRANCH  27  29
HETATM   29  C2  UNL     1      28.175   7.491  47.662  1.00  0.00     0.267 C 
HETATM   30  C1  UNL     1      28.922   6.189  47.971  1.00  0.00     0.037 C 
ENDBRANCH  27  29
ENDBRANCH  26  27
ENDBRANCH  25  26
ENDBRANCH   1  25
TORSDOF 8
ENDMDL
MODEL 2
REMARK VINA RESULT:      -7.1      4.509      8.396
REMARK  8 active torsions:
REMARK  status: ('A' for Active; 'I' for Inactive)
REMARK    1  A    between atoms: C2_2  and  N1_3 
REMARK    2  A    between atoms: N1_3  and  C4_5 
REMARK    3  A    between atoms: C4_5  and  C5_6 
REMARK    4  A    between atoms: C5_6  and  C6_7 
REMARK    5  A    between atoms: N2_11  and  C10_12 
REMARK    6  A    between atoms: C14_18  and  C15_19 
REMARK    7  A    between atoms: C15_19  and  N4_20 
REMARK       I    between atoms: N4_20  and  C16_21 
REMARK    8  A    between atoms: C18_25  and  O2_26 
ROOT
HETATM    1  C6  UNL     1      23.969  -0.327  53.947  1.00  0.00    -0.052 C 
HETATM    2  C7  UNL     1      22.912  -0.974  54.453  1.00  0.00     0.009 C 
HETATM    3  C8  UNL     1      21.509  -0.643  54.240  1.00  0.00     0.019 C 
HETATM    4  C9  UNL     1      20.902   0.263  53.492  1.00  0.00     0.117 C 
HETATM    5  N2  UNL     1      21.562   1.196  52.660  1.00  0.00    -0.135 N 
HETATM    6  C18 UNL     1      22.947   1.482  52.536  1.00  0.00     0.164 C 
HETATM    7  C20 UNL     1      23.986   0.843  53.078  1.00  0.00     0.064 C 
ENDROOT
BRANCH   5   8
HETATM    8  C10 UNL     1      20.800   2.014  51.781  1.00  0.00     0.713 A 
HETATM    9  N3  UNL     1      19.941   2.809  52.317  1.00  0.00    -0.074 NA
HETATM   10  C11 UNL     1      19.103   3.690  51.584  1.00  0.00     0.162 A 
HETATM   11  C12 UNL     1      19.290   3.619  50.281  1.00  0.00     0.079 A 
HETATM   12 CL1  UNL     1      18.259   4.702  49.395  1.00  0.00    -0.080 Cl
HETATM   13  C13 UNL     1      20.231   2.758  49.587  1.00  0.00     0.070 A 
HETATM   14  C14 UNL     1      20.378   2.726  48.277  1.00  0.00     0.024 C 
HETATM   15  N5  UNL     1      21.035   1.904  50.386  1.00  0.00    -0.188 N 
HETATM   16  H24 UNL     1      21.737   1.251  49.990  1.00  0.00     0.184 HD
BRANCH  14  17
HETATM   17  C15 UNL     1      19.914   3.290  46.998  1.00  0.00     0.152 C 
BRANCH  17  18
HETATM   18  N4  UNL     1      20.613   4.496  46.598  1.00  0.00    -0.358 N 
HETATM   19  C16 UNL     1      21.569   4.591  45.575  1.00  0.00     0.213 C 
HETATM   20  C17 UNL     1      22.287   5.816  45.163  1.00  0.00     0.117 C 
HETATM   21  O1  UNL     1      21.917   3.607  44.889  1.00  0.00    -0.274 OA
HETATM   22  H20 UNL     1      20.465   5.440  47.049  1.00  0.00     0.162 HD
ENDBRANCH  17  18
ENDBRANCH  14  17
ENDBRANCH   5   8
BRANCH   6  23
HETATM   23  O2  UNL     1      23.381   2.570  51.754  1.00  0.00    -0.340 OA
HETATM   24  C19 UNL     1      24.167   3.530  52.439  1.00  0.00     0.211 C 
ENDBRANCH   6  23
BRANCH   1  25
HETATM   25  C5  UNL     1      25.305  -0.882  54.329  1.00  0.00     0.069 C 
BRANCH  25  26
HETATM   26  C4  UNL     1      26.274   0.258  54.591  1.00  0.00     0.276 C 
BRANCH  26  27
HETATM   27  N1  UNL     1      27.479   0.162  53.798  1.00  0.00     0.084 N 
HETATM   28  C3  UNL     1      27.479  -0.993  52.927  1.00  0.00     0.309 C 
BRANCH  27  29
HETATM   29  C2  UNL     1      28.660   0.068  54.645  1.00  0.00     0.267 C 
HETATM   30  C1  UNL     1      29.785  -0.555  53.811  1.00  0.00     0.037 C 
ENDBRANCH  27  29
ENDBRANCH  26  27
ENDBRANCH  25  26
ENDBRANCH   1  25
TORSDOF 8
ENDMDL
MODEL 3
REMARK VINA RESULT:      -7.0      3.693      8.091
REMARK  8 active torsions:
REMARK  status: ('A' for Active; 'I' for Inactive)
REMARK    1  A    between atoms: C2_2  and  N1_3 
REMARK    2  A    between atoms: N1_3  and  C4_5 
REMARK    3  A    between atoms: C4_5  and  C5_6 
REMARK    4  A    between atoms: C5_6  and  C6_7 
REMARK    5  A    between atoms: N2_11  and  C10_12 
REMARK    6  A    between atoms: C14_18  and  C15_19 
REMARK    7  A    between atoms: C15_19  and  N4_20 
REMARK       I    between atoms: N4_20  and  C16_21 
REMARK    8  A    between atoms: C18_25  and  O2_26 
ROOT
HETATM    1  C6  UNL     1      25.218  -0.006  52.945  1.00  0.00    -0.052 C 
HETATM    2  C7  UNL     1      24.031  -0.470  53.355  1.00  0.00     0.009 C 
HETATM    3  C8  UNL     1      22.745   0.201  53.220  1.00  0.00     0.019 C 
HETATM    4  C9  UNL     1      22.375   1.331  52.639  1.00  0.00     0.117 C 
HETATM    5  N2  UNL     1      23.247   2.211  51.960  1.00  0.00    -0.135 N 
HETATM    6  C18 UNL     1      24.664   2.192  51.863  1.00  0.00     0.164 C 
HETATM    7  C20 UNL     1      25.519   1.255  52.278  1.00  0.00     0.064 C 
ENDROOT
BRANCH   5   8
HETATM    8  C10 UNL     1      22.711   3.312  51.238  1.00  0.00     0.713 A 
HETATM    9  N3  UNL     1      22.062   4.196  51.913  1.00  0.00    -0.074 NA
HETATM   10  C11 UNL     1      21.465   5.353  51.347  1.00  0.00     0.162 A 
HETATM   11  C12 UNL     1      21.640   5.442  50.044  1.00  0.00     0.079 A 
HETATM   12 CL1  UNL     1      20.905   6.862  49.363  1.00  0.00    -0.080 Cl
HETATM   13  C13 UNL     1      22.353   4.500  49.200  1.00  0.00     0.070 A 
HETATM   14  C14 UNL     1      22.499   4.635  47.896  1.00  0.00     0.024 C 
HETATM   15  N5  UNL     1      22.924   3.367  49.836  1.00  0.00    -0.188 N 
HETATM   16  H24 UNL     1      23.452   2.635  49.326  1.00  0.00     0.184 HD
BRANCH  14  17
HETATM   17  C15 UNL     1      22.194   5.484  46.732  1.00  0.00     0.152 C 
BRANCH  17  18
HETATM   18  N4  UNL     1      20.976   5.113  46.036  1.00  0.00    -0.358 N 
HETATM   19  C16 UNL     1      20.867   4.139  45.032  1.00  0.00     0.213 C 
HETATM   20  C17 UNL     1      19.630   3.757  44.318  1.00  0.00     0.117 C 
HETATM   21  O1  UNL     1      21.847   3.476  44.632  1.00  0.00    -0.274 OA
HETATM   22  H20 UNL     1      20.033   5.552  46.224  1.00  0.00     0.162 HD
ENDBRANCH  17  18
ENDBRANCH  14  17
ENDBRANCH   5   8
BRANCH   6  23
HETATM   23  O2  UNL     1      25.350   3.265  51.263  1.00  0.00    -0.340 OA
HETATM   24  C19 UNL     1      26.505   2.906  50.525  1.00  0.00     0.211 C 
ENDBRANCH   6  23
BRANCH   1  25
HETATM   25  C5  UNL     1      26.385  -0.905  53.211  1.00  0.00     0.069 C 
BRANCH  25  26
HETATM   26  C4  UNL     1      27.353  -0.214  54.156  1.00  0.00     0.276 C 
BRANCH  26  27
HETATM   27  N1  UNL     1      28.642   0.041  53.549  1.00  0.00     0.084 N 
HETATM   28  C3  UNL     1      29.533  -1.094  53.646  1.00  0.00     0.309 C 
BRANCH  27  29
HETATM   29  C2  UNL     1      29.306   1.172  54.181  1.00  0.00     0.267 C 
HETATM   30  C1  UNL     1      28.668   2.454  53.634  1.00  0.00     0.037 C 
ENDBRANCH  27  29
ENDBRANCH  26  27
ENDBRANCH  25  26
ENDBRANCH   1  25
TORSDOF 8
ENDMDL
MODEL 4
REMARK VINA RESULT:      -7.0      5.131      8.892
REMARK  8 active torsions:
REMARK  status: ('A' for Active; 'I' for Inactive)
REMARK    1  A    between atoms: C2_2  and  N1_3 
REMARK    2  A    between atoms: N1_3  and  C4_5 
REMARK    3  A    between atoms: C4_5  and  C5_6 
REMARK    4  A    between atoms: C5_6  and  C6_7 
REMARK    5  A    between atoms: N2_11  and  C10_12 
REMARK    6  A    between atoms: C14_18  and  C15_19 
REMARK    7  A    between atoms: C15_19  and  N4_20 
REMARK       I    between atoms: N4_20  and  C16_21 
REMARK    8  A    between atoms: C18_25  and  O2_26 
ROOT
HETATM    1  C6  UNL     1      25.071   0.324  53.382  1.00  0.00    -0.052 C 
HETATM    2  C7  UNL     1      25.521   1.111  52.397  1.00  0.00     0.009 C 
HETATM    3  C8  UNL     1      24.715   1.768  51.376  1.00  0.00     0.019 C 
HETATM    4  C9  UNL     1      23.411   1.847  51.171  1.00  0.00     0.117 C 
HETATM    5  N2  UNL     1      22.429   1.243  51.988  1.00  0.00    -0.135 N 
HETATM    6  C18 UNL     1      22.578   0.337  53.072  1.00  0.00     0.164 C 
HETATM    7  C20 UNL     1      23.698  -0.065  53.678  1.00  0.00     0.064 C 
ENDROOT
BRANCH   5   8
HETATM    8  C10 UNL     1      21.054   1.531  51.763  1.00  0.00     0.713 A 
HETATM    9  N3  UNL     1      20.653   2.723  52.038  1.00  0.00    -0.074 NA
HETATM   10  C11 UNL     1      19.317   3.173  51.872  1.00  0.00     0.162 A 
HETATM   11  C12 UNL     1      18.511   2.242  51.399  1.00  0.00     0.079 A 
HETATM   12 CL1  UNL     1      16.879   2.806  51.199  1.00  0.00    -0.080 Cl
HETATM   13  C13 UNL     1      18.870   0.877  51.061  1.00  0.00     0.070 A 
HETATM   14  C14 UNL     1      18.023  -0.018  50.591  1.00  0.00     0.024 C 
HETATM   15  N5  UNL     1      20.224   0.499  51.254  1.00  0.00    -0.188 N 
HETATM   16  H24 UNL     1      20.585  -0.451  51.044  1.00  0.00     0.184 HD
BRANCH  14  17
HETATM   17  C15 UNL     1      16.625  -0.261  50.195  1.00  0.00     0.152 C 
BRANCH  17  18
HETATM   18  N4  UNL     1      16.458  -0.578  48.788  1.00  0.00    -0.358 N 
HETATM   19  C16 UNL     1      15.685  -1.627  48.268  1.00  0.00     0.213 C 
HETATM   20  C17 UNL     1      15.512  -1.957  46.838  1.00  0.00     0.117 C 
HETATM   21  O1  UNL     1      15.046  -2.415  48.997  1.00  0.00    -0.274 OA
HETATM   22  H20 UNL     1      16.913  -0.035  48.004  1.00  0.00     0.162 HD
ENDBRANCH  17  18
ENDBRANCH  14  17
ENDBRANCH   5   8
BRANCH   6  23
HETATM   23  O2  UNL     1      21.449  -0.270  53.653  1.00  0.00    -0.340 OA
HETATM   24  C19 UNL     1      21.692  -1.511  54.292  1.00  0.00     0.211 C 
ENDBRANCH   6  23
BRANCH   1  25
HETATM   25  C5  UNL     1      26.122  -0.224  54.296  1.00  0.00     0.069 C 
BRANCH  25  26
HETATM   26  C4  UNL     1      27.409  -0.441  53.519  1.00  0.00     0.276 C 
BRANCH  26  27
HETATM   27  N1  UNL     1      28.583  -0.021  54.251  1.00  0.00     0.084 N 
HETATM   28  C3  UNL     1      28.899   1.375  54.037  1.00  0.00     0.309 C 
BRANCH  27  29
HETATM   29  C2  UNL     1      29.752  -0.796  53.861  1.00  0.00     0.267 C 
HETATM   30  C1  UNL     1      29.257  -2.100  53.226  1.00  0.00     0.037 C 
ENDBRANCH  27  29
ENDBRANCH  26  27
ENDBRANCH  25  26
ENDBRANCH   1  25
TORSDOF 8
ENDMDL
MODEL 5
REMARK VINA RESULT:      -6.9      2.141      2.996
REMARK  8 active torsions:
REMARK  status: ('A' for Active; 'I' for Inactive)
REMARK    1  A    between atoms: C2_2  and  N1_3 
REMARK    2  A    between atoms: N1_3  and  C4_5 
REMARK    3  A    between atoms: C4_5  and  C5_6 
REMARK    4  A    between atoms: C5_6  and  C6_7 
REMARK    5  A    between atoms: N2_11  and  C10_12 
REMARK    6  A    between atoms: C14_18  and  C15_19 
REMARK    7  A    between atoms: C15_19  and  N4_20 
REMARK       I    between atoms: N4_20  and  C16_21 
REMARK    8  A    between atoms: C18_25  and  O2_26 
ROOT
HETATM    1  C6  UNL     1      22.422   5.078  47.896  1.00  0.00    -0.052 C 
HETATM    2  C7  UNL     1      22.111   4.074  47.068  1.00  0.00     0.009 C 
HETATM    3  C8  UNL     1      22.143   2.651  47.381  1.00  0.00     0.019 C 
HETATM    4  C9  UNL     1      22.390   1.979  48.493  1.00  0.00     0.117 C 
HETATM    5  N2  UNL     1      22.710   2.569  49.737  1.00  0.00    -0.135 N 
HETATM    6  C18 UNL     1      22.978   3.926  50.058  1.00  0.00     0.164 C 
HETATM    7  C20 UNL     1      22.861   5.008  49.285  1.00  0.00     0.064 C 
ENDROOT
BRANCH   5   8
HETATM    8  C10 UNL     1      22.796   1.754  50.899  1.00  0.00     0.713 A 
HETATM    9  N3  UNL     1      21.696   1.263  51.354  1.00  0.00    -0.074 NA
HETATM   10  C11 UNL     1      21.607   0.432  52.501  1.00  0.00     0.162 A 
HETATM   11  C12 UNL     1      22.775   0.203  53.067  1.00  0.00     0.079 A 
HETATM   12 CL1  UNL     1      22.653  -0.816  54.470  1.00  0.00    -0.080 Cl
HETATM   13  C13 UNL     1      24.063   0.709  52.629  1.00  0.00     0.070 A 
HETATM   14  C14 UNL     1      25.207   0.449  53.234  1.00  0.00     0.024 C 
HETATM   15  N5  UNL     1      24.074   1.534  51.475  1.00  0.00    -0.188 N 
HETATM   16  H24 UNL     1      24.940   1.947  51.079  1.00  0.00     0.184 HD
BRANCH  14  17
HETATM   17  C15 UNL     1      25.840  -0.260  54.359  1.00  0.00     0.152 C 
BRANCH  17  18
HETATM   18  N4  UNL     1      27.151  -0.801  54.051  1.00  0.00    -0.358 N 
HETATM   19  C16 UNL     1      28.377  -0.149  54.251  1.00  0.00     0.213 C 
HETATM   20  C17 UNL     1      29.715  -0.695  53.939  1.00  0.00     0.117 C 
HETATM   21  O1  UNL     1      28.455   1.001  54.732  1.00  0.00    -0.274 OA
HETATM   22  H20 UNL     1      27.309  -1.761  53.638  1.00  0.00     0.162 HD
ENDBRANCH  17  18
ENDBRANCH  14  17
ENDBRANCH   5   8
BRANCH   6  23
HETATM   23  O2  UNL     1      23.434   4.277  51.343  1.00  0.00    -0.340 OA
HETATM   24  C19 UNL     1      23.632   5.664  51.556  1.00  0.00     0.211 C 
ENDBRANCH   6  23
BRANCH   1  25
HETATM   25  C5  UNL     1      22.302   6.452  47.313  1.00  0.00     0.069 C 
BRANCH  25  26
HETATM   26  C4  UNL     1      22.729   7.481  48.345  1.00  0.00     0.276 C 
BRANCH  26  27
HETATM   27  N1  UNL     1      23.914   8.211  47.951  1.00  0.00     0.084 N 
HETATM   28  C3  UNL     1      24.340   7.891  46.605  1.00  0.00     0.309 C 
BRANCH  27  29
HETATM   29  C2  UNL     1      25.030   7.922  48.840  1.00  0.00     0.267 C 
HETATM   30  C1  UNL     1      26.043   7.077  48.060  1.00  0.00     0.037 C 
ENDBRANCH  27  29
ENDBRANCH  26  27
ENDBRANCH  25  26
ENDBRANCH   1  25
TORSDOF 8
ENDMDL
MODEL 6
REMARK VINA RESULT:      -6.9      3.657      8.649
REMARK  8 active torsions:
REMARK  status: ('A' for Active; 'I' for Inactive)
REMARK    1  A    between atoms: C2_2  and  N1_3 
REMARK    2  A    between atoms: N1_3  and  C4_5 
REMARK    3  A    between atoms: C4_5  and  C5_6 
REMARK    4  A    between atoms: C5_6  and  C6_7 
REMARK    5  A    between atoms: N2_11  and  C10_12 
REMARK    6  A    between atoms: C14_18  and  C15_19 
REMARK    7  A    between atoms: C15_19  and  N4_20 
REMARK       I    between atoms: N4_20  and  C16_21 
REMARK    8  A    between atoms: C18_25  and  O2_26 
ROOT
HETATM    1  C6  UNL     1      23.368   1.687  51.506  1.00  0.00    -0.052 C 
HETATM    2  C7  UNL     1      24.417   1.239  52.207  1.00  0.00     0.009 C 
HETATM    3  C8  UNL     1      25.805   1.653  52.049  1.00  0.00     0.019 C 
HETATM    4  C9  UNL     1      26.392   2.566  51.292  1.00  0.00     0.117 C 
HETATM    5  N2  UNL     1      25.719   3.414  50.384  1.00  0.00    -0.135 N 
HETATM    6  C18 UNL     1      24.361   3.405  49.967  1.00  0.00     0.164 C 
HETATM    7  C20 UNL     1      23.346   2.675  50.435  1.00  0.00     0.064 C 
ENDROOT
BRANCH   5   8
HETATM    8  C10 UNL     1      26.432   4.464  49.743  1.00  0.00     0.713 A 
HETATM    9  N3  UNL     1      27.395   4.125  48.959  1.00  0.00    -0.074 NA
HETATM   10  C11 UNL     1      28.205   5.047  48.245  1.00  0.00     0.162 A 
HETATM   11  C12 UNL     1      27.873   6.304  48.461  1.00  0.00     0.079 A 
HETATM   12 CL1  UNL     1      28.871   7.423  47.581  1.00  0.00    -0.080 Cl
HETATM   13  C13 UNL     1      26.808   6.782  49.323  1.00  0.00     0.070 A 
HETATM   14  C14 UNL     1      26.517   8.056  49.506  1.00  0.00     0.024 C 
HETATM   15  N5  UNL     1      26.041   5.803  50.006  1.00  0.00    -0.188 N 
HETATM   16  H24 UNL     1      25.258   6.037  50.645  1.00  0.00     0.184 HD
BRANCH  14  17
HETATM   17  C15 UNL     1      26.876   9.438  49.143  1.00  0.00     0.152 C 
BRANCH  17  18
HETATM   18  N4  UNL     1      28.167   9.863  49.649  1.00  0.00    -0.358 N 
HETATM   19  C16 UNL     1      29.131  10.592  48.935  1.00  0.00     0.213 C 
HETATM   20  C17 UNL     1      30.449  11.027  49.444  1.00  0.00     0.117 C 
HETATM   21  O1  UNL     1      28.956  10.955  47.752  1.00  0.00    -0.274 OA
HETATM   22  H20 UNL     1      28.513   9.660  50.627  1.00  0.00     0.162 HD
ENDBRANCH  17  18
ENDBRANCH  14  17
ENDBRANCH   5   8
BRANCH   6  23
HETATM   23  O2  UNL     1      23.932   4.248  48.924  1.00  0.00    -0.340 OA
HETATM   24  C19 UNL     1      22.710   3.875  48.310  1.00  0.00     0.211 C 
ENDBRANCH   6  23
BRANCH   1  25
HETATM   25  C5  UNL     1      22.046   1.088  51.876  1.00  0.00     0.069 C 
BRANCH  25  26
HETATM   26  C4  UNL     1      22.270  -0.230  52.596  1.00  0.00     0.276 C 
BRANCH  26  27
HETATM   27  N1  UNL     1      21.116  -0.653  53.360  1.00  0.00     0.084 N 
HETATM   28  C3  UNL     1      20.352   0.463  53.872  1.00  0.00     0.309 C 
BRANCH  27  29
HETATM   29  C2  UNL     1      21.510  -1.470  54.499  1.00  0.00     0.267 C 
HETATM   30  C1  UNL     1      22.955  -1.104  54.859  1.00  0.00     0.037 C 
ENDBRANCH  27  29
ENDBRANCH  26  27
ENDBRANCH  25  26
ENDBRANCH   1  25
TORSDOF 8
ENDMDL
MODEL 7
REMARK VINA RESULT:      -6.9      2.973      7.822
REMARK  8 active torsions:
REMARK  status: ('A' for Active; 'I' for Inactive)
REMARK    1  A    between atoms: C2_2  and  N1_3 
REMARK    2  A    between atoms: N1_3  and  C4_5 
REMARK    3  A    between atoms: C4_5  and  C5_6 
REMARK    4  A    between atoms: C5_6  and  C6_7 
REMARK    5  A    between atoms: N2_11  and  C10_12 
REMARK    6  A    between atoms: C14_18  and  C15_19 
REMARK    7  A    between atoms: C15_19  and  N4_20 
REMARK       I    between atoms: N4_20  and  C16_21 
REMARK    8  A    between atoms: C18_25  and  O2_26 
ROOT
HETATM    1  C6  UNL     1      24.746   0.025  53.357  1.00  0.00    -0.052 C 
HETATM    2  C7  UNL     1      23.486  -0.349  53.613  1.00  0.00     0.009 C 
HETATM    3  C8  UNL     1      22.285   0.141  52.951  1.00  0.00     0.019 C 
HETATM    4  C9  UNL     1      22.088   0.970  51.939  1.00  0.00     0.117 C 
HETATM    5  N2  UNL     1      23.116   1.619  51.218  1.00  0.00    -0.135 N 
HETATM    6  C18 UNL     1      24.513   1.667  51.470  1.00  0.00     0.164 C 
HETATM    7  C20 UNL     1      25.224   0.994  52.378  1.00  0.00     0.064 C 
ENDROOT
BRANCH   5   8
HETATM    8  C10 UNL     1      22.793   2.360  50.048  1.00  0.00     0.713 A 
HETATM    9  N3  UNL     1      22.393   1.691  49.023  1.00  0.00    -0.074 NA
HETATM   10  C11 UNL     1      22.032   2.275  47.781  1.00  0.00     0.162 A 
HETATM   11  C12 UNL     1      22.143   3.589  47.773  1.00  0.00     0.079 A 
HETATM   12 CL1  UNL     1      21.698   4.292  46.248  1.00  0.00    -0.080 Cl
HETATM   13  C13 UNL     1      22.583   4.426  48.875  1.00  0.00     0.070 A 
HETATM   14  C14 UNL     1      22.678   5.741  48.815  1.00  0.00     0.024 C 
HETATM   15  N5  UNL     1      22.928   3.772  50.086  1.00  0.00    -0.188 N 
HETATM   16  H24 UNL     1      23.253   4.277  50.932  1.00  0.00     0.184 HD
BRANCH  14  17
HETATM   17  C15 UNL     1      22.495   6.924  47.956  1.00  0.00     0.152 C 
BRANCH  17  18
HETATM   18  N4  UNL     1      23.622   7.200  47.086  1.00  0.00    -0.358 N 
HETATM   19  C16 UNL     1      24.775   7.919  47.437  1.00  0.00     0.213 C 
HETATM   20  C17 UNL     1      25.926   8.206  46.555  1.00  0.00     0.117 C 
HETATM   21  O1  UNL     1      24.941   8.406  48.575  1.00  0.00    -0.274 OA
HETATM   22  H20 UNL     1      23.684   6.877  46.081  1.00  0.00     0.162 HD
ENDBRANCH  17  18
ENDBRANCH  14  17
ENDBRANCH   5   8
BRANCH   6  23
HETATM   23  O2  UNL     1      25.345   2.509  50.708  1.00  0.00    -0.340 OA
HETATM   24  C19 UNL     1      26.673   2.638  51.184  1.00  0.00     0.211 C 
ENDBRANCH   6  23
BRANCH   1  25
HETATM   25  C5  UNL     1      25.796  -0.641  54.190  1.00  0.00     0.069 C 
BRANCH  25  26
HETATM   26  C4  UNL     1      26.695   0.413  54.813  1.00  0.00     0.276 C 
BRANCH  26  27
HETATM   27  N1  UNL     1      28.096   0.192  54.530  1.00  0.00     0.084 N 
HETATM   28  C3  UNL     1      28.766   1.392  54.079  1.00  0.00     0.309 C 
BRANCH  27  29
HETATM   29  C2  UNL     1      28.270  -0.819  53.497  1.00  0.00     0.267 C 
HETATM   30  C1  UNL     1      29.747  -1.230  53.491  1.00  0.00     0.037 C 
ENDBRANCH  27  29
ENDBRANCH  26  27
ENDBRANCH  25  26
ENDBRANCH   1  25
TORSDOF 8
ENDMDL
MODEL 8
REMARK VINA RESULT:      -6.7      3.573      8.118
REMARK  8 active torsions:
REMARK  status: ('A' for Active; 'I' for Inactive)
REMARK    1  A    between atoms: C2_2  and  N1_3 
REMARK    2  A    between atoms: N1_3  and  C4_5 
REMARK    3  A    between atoms: C4_5  and  C5_6 
REMARK    4  A    between atoms: C5_6  and  C6_7 
REMARK    5  A    between atoms: N2_11  and  C10_12 
REMARK    6  A    between atoms: C14_18  and  C15_19 
REMARK    7  A    between atoms: C15_19  and  N4_20 
REMARK       I    between atoms: N4_20  and  C16_21 
REMARK    8  A    between atoms: C18_25  and  O2_26 
ROOT
HETATM    1  C6  UNL     1      22.338   1.104  51.465  1.00  0.00    -0.052 C 
HETATM    2  C7  UNL     1      22.898   1.225  52.675  1.00  0.00     0.009 C 
HETATM    3  C8  UNL     1      23.972   2.138  53.045  1.00  0.00     0.019 C 
HETATM    4  C9  UNL     1      24.611   3.091  52.386  1.00  0.00     0.117 C 
HETATM    5  N2  UNL     1      24.356   3.454  51.044  1.00  0.00    -0.135 N 
HETATM    6  C18 UNL     1      23.516   2.837  50.079  1.00  0.00     0.164 C 
HETATM    7  C20 UNL     1      22.650   1.834  50.242  1.00  0.00     0.064 C 
ENDROOT
BRANCH   5   8
HETATM    8  C10 UNL     1      24.993   4.599  50.493  1.00  0.00     0.713 A 
HETATM    9  N3  UNL     1      24.433   5.740  50.703  1.00  0.00    -0.074 NA
HETATM   10  C11 UNL     1      24.939   6.977  50.225  1.00  0.00     0.162 A 
HETATM   11  C12 UNL     1      26.054   6.849  49.534  1.00  0.00     0.079 A 
HETATM   12 CL1  UNL     1      26.663   8.370  48.954  1.00  0.00    -0.080 Cl
HETATM   13  C13 UNL     1      26.757   5.612  49.246  1.00  0.00     0.070 A 
HETATM   14  C14 UNL     1      27.873   5.539  48.546  1.00  0.00     0.024 C 
HETATM   15  N5  UNL     1      26.192   4.414  49.756  1.00  0.00    -0.188 N 
HETATM   16  H24 UNL     1      26.614   3.478  49.607  1.00  0.00     0.184 HD
BRANCH  14  17
HETATM   17  C15 UNL     1      28.884   6.314  47.807  1.00  0.00     0.152 C 
BRANCH  17  18
HETATM   18  N4  UNL     1      30.054   6.656  48.593  1.00  0.00    -0.358 N 
HETATM   19  C16 UNL     1      31.204   5.865  48.744  1.00  0.00     0.213 C 
HETATM   20  C17 UNL     1      32.399   6.207  49.544  1.00  0.00     0.117 C 
HETATM   21  O1  UNL     1      31.328   4.751  48.192  1.00  0.00    -0.274 OA
HETATM   22  H20 UNL     1      30.155   7.555  49.140  1.00  0.00     0.162 HD
ENDBRANCH  17  18
ENDBRANCH  14  17
ENDBRANCH   5   8
BRANCH   6  23
HETATM   23  O2  UNL     1      23.528   3.274  48.741  1.00  0.00    -0.340 OA
HETATM   24  C19 UNL     1      22.404   2.889  47.969  1.00  0.00     0.211 C 
ENDBRANCH   6  23
BRANCH   1  25
HETATM   25  C5  UNL     1      21.249   0.082  51.362  1.00  0.00     0.069 C 
BRANCH  25  26
HETATM   26  C4  UNL     1      19.909   0.737  51.653  1.00  0.00     0.276 C 
BRANCH  26  27
HETATM   27  N1  UNL     1      19.209   0.112  52.755  1.00  0.00     0.084 N 
HETATM   28  C3  UNL     1      20.069  -0.741  53.545  1.00  0.00     0.309 C 
BRANCH  27  29
HETATM   29  C2  UNL     1      18.103  -0.706  52.278  1.00  0.00     0.267 C 
HETATM   30  C1  UNL     1      17.799  -1.753  53.356  1.00  0.00     0.037 C 
ENDBRANCH  27  29
ENDBRANCH  26  27
ENDBRANCH  25  26
ENDBRANCH   1  25
TORSDOF 8
ENDMDL
MODEL 9
REMARK VINA RESULT:      -6.6      5.288      9.248
REMARK  8 active torsions:
REMARK  status: ('A' for Active; 'I' for Inactive)
REMARK    1  A    between atoms: C2_2  and  N1_3 
REMARK    2  A    between atoms: N1_3  and  C4_5 
REMARK    3  A    between atoms: C4_5  and  C5_6 
REMARK    4  A    between atoms: C5_6  and  C6_7 
REMARK    5  A    between atoms: N2_11  and  C10_12 
REMARK    6  A    between atoms: C14_18  and  C15_19 
REMARK    7  A    between atoms: C15_19  and  N4_20 
REMARK       I    between atoms: N4_20  and  C16_21 
REMARK    8  A    between atoms: C18_25  and  O2_26 
ROOT
HETATM    1  C6  UNL     1      24.110   0.439  52.727  1.00  0.00    -0.052 C 
HETATM    2  C7  UNL     1      23.678  -0.306  53.752  1.00  0.00     0.009 C 
HETATM    3  C8  UNL     1      22.293  -0.496  54.162  1.00  0.00     0.019 C 
HETATM    4  C9  UNL     1      21.140  -0.093  53.654  1.00  0.00     0.117 C 
HETATM    5  N2  UNL     1      21.004   0.689  52.484  1.00  0.00    -0.135 N 
HETATM    6  C18 UNL     1      21.998   1.326  51.695  1.00  0.00     0.164 C 
HETATM    7  C20 UNL     1      23.327   1.230  51.785  1.00  0.00     0.064 C 
ENDROOT
BRANCH   5   8
HETATM    8  C10 UNL     1      19.709   0.925  51.944  1.00  0.00     0.713 A 
HETATM    9  N3  UNL     1      19.156  -0.046  51.304  1.00  0.00    -0.074 NA
HETATM   10  C11 UNL     1      17.871   0.024  50.704  1.00  0.00     0.162 A 
HETATM   11  C12 UNL     1      17.285   1.193  50.869  1.00  0.00     0.079 A 
HETATM   12 CL1  UNL     1      15.713   1.265  50.131  1.00  0.00    -0.080 Cl
HETATM   13  C13 UNL     1      17.827   2.341  51.572  1.00  0.00     0.070 A 
HETATM   14  C14 UNL     1      17.197   3.493  51.707  1.00  0.00     0.024 C 
HETATM   15  N5  UNL     1      19.117   2.198  52.145  1.00  0.00    -0.188 N 
HETATM   16  H24 UNL     1      19.594   2.957  52.668  1.00  0.00     0.184 HD
BRANCH  14  17
HETATM   17  C15 UNL     1      15.964   4.236  51.394  1.00  0.00     0.152 C 
BRANCH  17  18
HETATM   18  N4  UNL     1      14.977   4.215  52.457  1.00  0.00    -0.358 N 
HETATM   19  C16 UNL     1      13.585   4.198  52.285  1.00  0.00     0.213 C 
HETATM   20  C17 UNL     1      12.574   4.178  53.363  1.00  0.00     0.117 C 
HETATM   21  O1  UNL     1      13.048   4.200  51.157  1.00  0.00    -0.274 OA
HETATM   22  H20 UNL     1      15.220   4.209  53.485  1.00  0.00     0.162 HD
ENDBRANCH  17  18
ENDBRANCH  14  17
ENDBRANCH   5   8
BRANCH   6  23
HETATM   23  O2  UNL     1      21.629   2.195  50.651  1.00  0.00    -0.340 OA
HETATM   24  C19 UNL     1      22.276   1.960  49.412  1.00  0.00     0.211 C 
ENDBRANCH   6  23
BRANCH   1  25
HETATM   25  C5  UNL     1      25.594   0.459  52.528  1.00  0.00     0.069 C 
BRANCH  25  26
HETATM   26  C4  UNL     1      26.278  -0.115  53.756  1.00  0.00     0.276 C 
BRANCH  26  27
HETATM   27  N1  UNL     1      27.260   0.784  54.322  1.00  0.00     0.084 N 
HETATM   28  C3  UNL     1      27.720   1.771  53.369  1.00  0.00     0.309 C 
BRANCH  27  29
HETATM   29  C2  UNL     1      28.429   0.057  54.794  1.00  0.00     0.267 C 
HETATM   30  C1  UNL     1      29.457   0.036  53.657  1.00  0.00     0.037 C 
ENDBRANCH  27  29
ENDBRANCH  26  27
ENDBRANCH  25  26
ENDBRANCH   1  25
TORSDOF 8
ENDMDL
