MODEL 1
REMARK VINA RESULT:      -8.9      0.000      0.000
REMARK  7 active torsions:
REMARK  status: ('A' for Active; 'I' for Inactive)
REMARK    1  A    between atoms: C4_4  and  N1_5 
REMARK    2  A    between atoms: N1_5  and  C5_6 
REMARK    3  A    between atoms: C5_6  and  C6_7 
REMARK    4  A    between atoms: N2_10  and  C9_11 
REMARK    5  A    between atoms: C9_11  and  C10_12 
REMARK    6  A    between atoms: C10_12  and  C11_13 
REMARK    7  A    between atoms: C11_13  and  N3_14 
ROOT
HETATM    1  C6  UNL     1      26.269   3.842  50.198  1.00  0.00     0.038 A 
HETATM    2  C7  UNL     1      25.167   4.435  50.400  1.00  0.00     0.023 A 
HETATM    3  C8  UNL     1      23.949   4.238  51.137  1.00  0.00     0.317 C 
HETATM    4  N2  UNL     1      22.892   3.519  50.334  1.00  0.00     0.109 N 
HETATM    5  C16 UNL     1      23.128   3.940  48.923  1.00  0.00     0.392 C 
HETATM    6  N4  UNL     1      22.665   5.239  48.674  1.00  0.00    -0.377 N 
HETATM    7  C17 UNL     1      22.952   5.916  47.479  1.00  0.00     0.287 C 
HETATM    8  O2  UNL     1      23.984   6.937  47.597  1.00  0.00    -0.369 OA
HETATM    9  C18 UNL     1      23.510   7.695  48.739  1.00  0.00     0.199 C 
HETATM   10  C19 UNL     1      23.884   6.781  49.907  1.00  0.00     0.031 C 
HETATM   11  C20 UNL     1      24.577   5.608  49.888  1.00  0.00     0.066 A 
HETATM   12  N5  UNL     1      25.525   6.139  48.929  1.00  0.00    -0.244 NA
HETATM   13  C21 UNL     1      26.672   5.586  48.663  1.00  0.00     0.208 A 
HETATM   14  N6  UNL     1      27.163   4.406  49.256  1.00  0.00    -0.352 N 
HETATM   15  H25 UNL     1      21.729   5.468  49.067  1.00  0.00     0.157 HD
HETATM   16  H32 UNL     1      28.075   3.959  49.056  1.00  0.00     0.166 HD
ENDROOT
BRANCH   1  17
HETATM   17  C5  UNL     1      26.560   2.575  50.833  1.00  0.00     0.179 C 
BRANCH  17  18
HETATM   18  N1  UNL     1      26.963   2.904  52.219  1.00  0.00    -0.364 N 
HETATM   19  H4  UNL     1      26.855   3.843  52.683  1.00  0.00     0.162 HD
BRANCH  18  20
HETATM   20  C4  UNL     1      27.555   2.034  53.152  1.00  0.00     0.155 C 
HETATM   21  C3  UNL     1      26.775   0.975  53.013  1.00  0.00     0.036 C 
HETATM   22  C2  UNL     1      27.260  -0.223  53.201  1.00  0.00    -0.045 C 
HETATM   23  C1  UNL     1      26.764  -1.411  52.466  1.00  0.00     0.049 C 
HETATM   24  C23 UNL     1      28.330  -0.404  54.171  1.00  0.00     0.032 C 
HETATM   25  C22 UNL     1      28.960   0.685  54.580  1.00  0.00     0.145 C 
HETATM   26  O3  UNL     1      28.595   1.929  54.087  1.00  0.00    -0.305 OA
ENDBRANCH  18  20
ENDBRANCH  17  18
ENDBRANCH   1  17
BRANCH   4  27
HETATM   27  C9  UNL     1      23.229   2.086  50.371  1.00  0.00     0.276 C 
BRANCH  27  28
HETATM   28  C10 UNL     1      23.226   1.477  51.734  1.00  0.00     0.060 C 
BRANCH  28  29
HETATM   29  C11 UNL     1      21.977   1.184  52.434  1.00  0.00     0.274 C 
BRANCH  29  30
HETATM   30  N3  UNL     1      22.131   0.497  53.705  1.00  0.00     0.092 N 
HETATM   31  C12 UNL     1      20.879  -0.005  54.164  1.00  0.00     0.298 C 
HETATM   32  C13 UNL     1      20.897  -1.534  54.294  1.00  0.00     0.198 C 
HETATM   33  O1  UNL     1      21.864  -1.816  55.231  1.00  0.00    -0.388 OA
HETATM   34  C14 UNL     1      23.090  -1.256  55.027  1.00  0.00     0.198 C 
HETATM   35  C15 UNL     1      23.232  -0.372  53.823  1.00  0.00     0.298 C 
ENDBRANCH  29  30
ENDBRANCH  28  29
ENDBRANCH  27  28
ENDBRANCH   4  27
TORSDOF 7
ENDMDL
MODEL 2
REMARK VINA RESULT:      -8.4      1.734      6.544
REMARK  7 active torsions:
REMARK  status: ('A' for Active; 'I' for Inactive)
REMARK    1  A    between atoms: C4_4  and  N1_5 
REMARK    2  A    between atoms: N1_5  and  C5_6 
REMARK    3  A    between atoms: C5_6  and  C6_7 
REMARK    4  A    between atoms: N2_10  and  C9_11 
REMARK    5  A    between atoms: C9_11  and  C10_12 
REMARK    6  A    between atoms: C10_12  and  C11_13 
REMARK    7  A    between atoms: C11_13  and  N3_14 
ROOT
HETATM    1  C6  UNL     1      22.791   2.351  49.665  1.00  0.00     0.038 A 
HETATM    2  C7  UNL     1      22.769   2.453  50.928  1.00  0.00     0.023 A 
HETATM    3  C8  UNL     1      23.497   3.115  51.976  1.00  0.00     0.317 C 
HETATM    4  N2  UNL     1      24.628   2.276  52.519  1.00  0.00     0.109 N 
HETATM    5  C16 UNL     1      24.158   0.866  52.390  1.00  0.00     0.392 C 
HETATM    6  N4  UNL     1      23.220   0.529  53.374  1.00  0.00    -0.377 N 
HETATM    7  C17 UNL     1      22.498  -0.673  53.334  1.00  0.00     0.287 C 
HETATM    8  O2  UNL     1      21.116  -0.532  52.897  1.00  0.00    -0.369 OA
HETATM    9  C18 UNL     1      20.650   0.541  53.754  1.00  0.00     0.199 C 
HETATM   10  C19 UNL     1      21.279   1.771  53.098  1.00  0.00     0.031 C 
HETATM   11  C20 UNL     1      22.003   1.850  51.946  1.00  0.00     0.066 A 
HETATM   12  N5  UNL     1      21.104   0.934  51.273  1.00  0.00    -0.244 NA
HETATM   13  C21 UNL     1      21.070   0.770  49.983  1.00  0.00     0.208 A 
HETATM   14  N6  UNL     1      21.888   1.447  49.056  1.00  0.00    -0.352 N 
HETATM   15  H25 UNL     1      23.443   0.847  54.339  1.00  0.00     0.157 HD
HETATM   16  H32 UNL     1      21.868   1.328  48.027  1.00  0.00     0.166 HD
ENDROOT
BRANCH   1  17
HETATM   17  C5  UNL     1      23.776   3.060  48.878  1.00  0.00     0.179 C 
BRANCH  17  18
HETATM   18  N1  UNL     1      23.298   4.459  48.801  1.00  0.00    -0.364 N 
HETATM   19  H4  UNL     1      22.294   4.759  48.697  1.00  0.00     0.162 HD
BRANCH  18  20
HETATM   20  C4  UNL     1      24.088   5.622  48.851  1.00  0.00     0.155 C 
HETATM   21  C3  UNL     1      25.242   5.106  49.237  1.00  0.00     0.036 C 
HETATM   22  C2  UNL     1      26.365   5.654  48.856  1.00  0.00    -0.045 C 
HETATM   23  C1  UNL     1      27.602   4.871  48.630  1.00  0.00     0.049 C 
HETATM   24  C23 UNL     1      26.406   7.094  48.643  1.00  0.00     0.032 C 
HETATM   25  C22 UNL     1      25.245   7.720  48.547  1.00  0.00     0.145 C 
HETATM   26  O3  UNL     1      24.057   7.009  48.647  1.00  0.00    -0.305 OA
ENDBRANCH  18  20
ENDBRANCH  17  18
ENDBRANCH   1  17
BRANCH   4  27
HETATM   27  C9  UNL     1      25.746   2.399  51.567  1.00  0.00     0.276 C 
BRANCH  27  28
HETATM   28  C10 UNL     1      27.082   2.025  52.119  1.00  0.00     0.060 C 
BRANCH  28  29
HETATM   29  C11 UNL     1      27.326   1.979  53.558  1.00  0.00     0.274 C 
BRANCH  29  30
HETATM   30  N3  UNL     1      27.971   0.767  54.035  1.00  0.00     0.092 N 
HETATM   31  C12 UNL     1      27.091  -0.349  53.929  1.00  0.00     0.298 C 
HETATM   32  C13 UNL     1      27.655  -1.424  52.989  1.00  0.00     0.198 C 
HETATM   33  O1  UNL     1      28.836  -1.836  53.561  1.00  0.00    -0.388 OA
HETATM   34  C14 UNL     1      29.726  -0.858  53.890  1.00  0.00     0.198 C 
HETATM   35  C15 UNL     1      29.299   0.555  53.620  1.00  0.00     0.298 C 
ENDBRANCH  29  30
ENDBRANCH  28  29
ENDBRANCH  27  28
ENDBRANCH   4  27
TORSDOF 7
ENDMDL
MODEL 3
REMARK VINA RESULT:      -8.2      2.518      6.663
REMARK  7 active torsions:
REMARK  status: ('A' for Active; 'I' for Inactive)
REMARK    1  A    between atoms: C4_4  and  N1_5 
REMARK    2  A    between atoms: N1_5  and  C5_6 
REMARK    3  A    between atoms: C5_6  and  C6_7 
REMARK    4  A    between atoms: N2_10  and  C9_11 
REMARK    5  A    between atoms: C9_11  and  C10_12 
REMARK    6  A    between atoms: C10_12  and  C11_13 
REMARK    7  A    between atoms: C11_13  and  N3_14 
ROOT
HETATM    1  C6  UNL     1      25.333   1.588  51.904  1.00  0.00     0.038 A 
HETATM    2  C7  UNL     1      25.814   0.498  52.337  1.00  0.00     0.023 A 
HETATM    3  C8  UNL     1      25.361  -0.811  52.721  1.00  0.00     0.317 C 
HETATM    4  N2  UNL     1      25.026  -0.904  54.190  1.00  0.00     0.109 N 
HETATM    5  C16 UNL     1      25.961   0.046  54.859  1.00  0.00     0.392 C 
HETATM    6  N4  UNL     1      27.260  -0.470  54.956  1.00  0.00    -0.377 N 
HETATM    7  C17 UNL     1      28.345   0.317  55.370  1.00  0.00     0.287 C 
HETATM    8  O2  UNL     1      29.226   0.743  54.291  1.00  0.00    -0.369 OA
HETATM    9  C18 UNL     1      29.485  -0.513  53.615  1.00  0.00     0.199 C 
HETATM   10  C19 UNL     1      28.183  -0.736  52.844  1.00  0.00     0.031 C 
HETATM   11  C20 UNL     1      27.102   0.085  52.736  1.00  0.00     0.066 A 
HETATM   12  N5  UNL     1      27.952   1.249  52.586  1.00  0.00    -0.244 NA
HETATM   13  C21 UNL     1      27.532   2.402  52.153  1.00  0.00     0.208 A 
HETATM   14  N6  UNL     1      26.207   2.693  51.770  1.00  0.00    -0.352 N 
HETATM   15  H25 UNL     1      27.329  -1.464  55.256  1.00  0.00     0.157 HD
HETATM   16  H32 UNL     1      25.862   3.605  51.421  1.00  0.00     0.166 HD
ENDROOT
BRANCH   1  17
HETATM   17  C5  UNL     1      23.915   1.727  51.653  1.00  0.00     0.179 C 
BRANCH  17  18
HETATM   18  N1  UNL     1      23.475   2.886  52.461  1.00  0.00    -0.364 N 
HETATM   19  H4  UNL     1      23.742   3.072  53.462  1.00  0.00     0.162 HD
BRANCH  18  20
HETATM   20  C4  UNL     1      22.634   3.934  52.043  1.00  0.00     0.155 C 
HETATM   21  C3  UNL     1      23.452   4.963  52.184  1.00  0.00     0.036 C 
HETATM   22  C2  UNL     1      23.344   5.998  51.395  1.00  0.00    -0.045 C 
HETATM   23  C1  UNL     1      24.507   6.825  50.995  1.00  0.00     0.049 C 
HETATM   24  C23 UNL     1      22.028   6.358  50.886  1.00  0.00     0.032 C 
HETATM   25  C22 UNL     1      21.073   5.449  50.995  1.00  0.00     0.145 C 
HETATM   26  O3  UNL     1      21.344   4.217  51.573  1.00  0.00    -0.305 OA
ENDBRANCH  18  20
ENDBRANCH  17  18
ENDBRANCH   1  17
BRANCH   4  27
HETATM   27  C9  UNL     1      23.688  -0.313  54.360  1.00  0.00     0.276 C 
BRANCH  27  28
HETATM   28  C10 UNL     1      22.585  -1.053  53.679  1.00  0.00     0.060 C 
BRANCH  28  29
HETATM   29  C11 UNL     1      21.300  -1.280  54.336  1.00  0.00     0.274 C 
BRANCH  29  30
HETATM   30  N3  UNL     1      20.186  -0.526  53.786  1.00  0.00     0.092 N 
HETATM   31  C12 UNL     1      20.652   0.498  52.911  1.00  0.00     0.298 C 
HETATM   32  C13 UNL     1      20.128   0.300  51.482  1.00  0.00     0.198 C 
HETATM   33  O1  UNL     1      18.758   0.377  51.574  1.00  0.00    -0.388 OA
HETATM   34  C14 UNL     1      18.165  -0.425  52.504  1.00  0.00     0.198 C 
HETATM   35  C15 UNL     1      19.079  -1.271  53.340  1.00  0.00     0.298 C 
ENDBRANCH  29  30
ENDBRANCH  28  29
ENDBRANCH  27  28
ENDBRANCH   4  27
TORSDOF 7
ENDMDL
MODEL 4
REMARK VINA RESULT:      -8.2      1.047      1.459
REMARK  7 active torsions:
REMARK  status: ('A' for Active; 'I' for Inactive)
REMARK    1  A    between atoms: C4_4  and  N1_5 
REMARK    2  A    between atoms: N1_5  and  C5_6 
REMARK    3  A    between atoms: C5_6  and  C6_7 
REMARK    4  A    between atoms: N2_10  and  C9_11 
REMARK    5  A    between atoms: C9_11  and  C10_12 
REMARK    6  A    between atoms: C10_12  and  C11_13 
REMARK    7  A    between atoms: C11_13  and  N3_14 
ROOT
HETATM    1  C6  UNL     1      26.099   4.066  50.205  1.00  0.00     0.038 A 
HETATM    2  C7  UNL     1      25.023   4.573  50.642  1.00  0.00     0.023 A 
HETATM    3  C8  UNL     1      23.899   4.198  51.457  1.00  0.00     0.317 C 
HETATM    4  N2  UNL     1      22.763   3.618  50.650  1.00  0.00     0.109 N 
HETATM    5  C16 UNL     1      22.831   4.315  49.333  1.00  0.00     0.392 C 
HETATM    6  N4  UNL     1      22.332   5.622  49.399  1.00  0.00    -0.377 N 
HETATM    7  C17 UNL     1      22.473   6.528  48.338  1.00  0.00     0.287 C 
HETATM    8  O2  UNL     1      23.503   7.538  48.540  1.00  0.00    -0.369 OA
HETATM    9  C18 UNL     1      23.159   8.043  49.855  1.00  0.00     0.199 C 
HETATM   10  C19 UNL     1      23.672   6.930  50.770  1.00  0.00     0.031 C 
HETATM   11  C20 UNL     1      24.368   5.805  50.441  1.00  0.00     0.066 A 
HETATM   12  N5  UNL     1      25.194   6.543  49.507  1.00  0.00    -0.244 NA
HETATM   13  C21 UNL     1      26.308   6.089  49.010  1.00  0.00     0.208 A 
HETATM   14  N6  UNL     1      26.873   4.830  49.300  1.00  0.00    -0.352 N 
HETATM   15  H25 UNL     1      21.446   5.741  49.931  1.00  0.00     0.157 HD
HETATM   16  H32 UNL     1      27.760   4.460  48.914  1.00  0.00     0.166 HD
ENDROOT
BRANCH   1  17
HETATM   17  C5  UNL     1      26.472   2.709  50.540  1.00  0.00     0.179 C 
BRANCH  17  18
HETATM   18  N1  UNL     1      27.005   2.768  51.920  1.00  0.00    -0.364 N 
HETATM   19  H4  UNL     1      27.585   3.550  52.320  1.00  0.00     0.162 HD
BRANCH  18  20
HETATM   20  C4  UNL     1      26.834   1.804  52.930  1.00  0.00     0.155 C 
HETATM   21  C3  UNL     1      27.830   0.983  52.640  1.00  0.00     0.036 C 
HETATM   22  C2  UNL     1      28.423   0.314  53.592  1.00  0.00    -0.045 C 
HETATM   23  C1  UNL     1      29.858  -0.055  53.536  1.00  0.00     0.049 C 
HETATM   24  C23 UNL     1      27.648  -0.089  54.756  1.00  0.00     0.032 C 
HETATM   25  C22 UNL     1      26.478   0.503  54.933  1.00  0.00     0.145 C 
HETATM   26  O3  UNL     1      26.038   1.461  54.031  1.00  0.00    -0.305 OA
ENDBRANCH  18  20
ENDBRANCH  17  18
ENDBRANCH   1  17
BRANCH   4  27
HETATM   27  C9  UNL     1      23.114   2.217  50.365  1.00  0.00     0.276 C 
BRANCH  27  28
HETATM   28  C10 UNL     1      22.056   1.223  50.713  1.00  0.00     0.060 C 
BRANCH  28  29
HETATM   29  C11 UNL     1      21.481   1.161  52.055  1.00  0.00     0.274 C 
BRANCH  29  30
HETATM   30  N3  UNL     1      21.442  -0.167  52.646  1.00  0.00     0.092 N 
HETATM   31  C12 UNL     1      22.728  -0.543  53.129  1.00  0.00     0.298 C 
HETATM   32  C13 UNL     1      22.713  -0.787  54.645  1.00  0.00     0.198 C 
HETATM   33  O1  UNL     1      21.836  -1.827  54.845  1.00  0.00    -0.388 OA
HETATM   34  C14 UNL     1      20.599  -1.696  54.286  1.00  0.00     0.198 C 
HETATM   35  C15 UNL     1      20.352  -0.449  53.490  1.00  0.00     0.298 C 
ENDBRANCH  29  30
ENDBRANCH  28  29
ENDBRANCH  27  28
ENDBRANCH   4  27
TORSDOF 7
ENDMDL
MODEL 5
REMARK VINA RESULT:      -8.2      2.035      6.372
REMARK  7 active torsions:
REMARK  status: ('A' for Active; 'I' for Inactive)
REMARK    1  A    between atoms: C4_4  and  N1_5 
REMARK    2  A    between atoms: N1_5  and  C5_6 
REMARK    3  A    between atoms: C5_6  and  C6_7 
REMARK    4  A    between atoms: N2_10  and  C9_11 
REMARK    5  A    between atoms: C9_11  and  C10_12 
REMARK    6  A    between atoms: C10_12  and  C11_13 
REMARK    7  A    between atoms: C11_13  and  N3_14 
ROOT
HETATM    1  C6  UNL     1      23.391   0.384  53.138  1.00  0.00     0.038 A 
HETATM    2  C7  UNL     1      22.837   0.750  52.058  1.00  0.00     0.023 A 
HETATM    3  C8  UNL     1      23.168   1.471  50.859  1.00  0.00     0.317 C 
HETATM    4  N2  UNL     1      22.886   2.949  50.972  1.00  0.00     0.109 N 
HETATM    5  C16 UNL     1      21.710   3.049  51.883  1.00  0.00     0.392 C 
HETATM    6  N4  UNL     1      20.513   2.705  51.242  1.00  0.00    -0.377 N 
HETATM    7  C17 UNL     1      19.311   2.537  51.946  1.00  0.00     0.287 C 
HETATM    8  O2  UNL     1      18.919   1.149  52.147  1.00  0.00    -0.369 OA
HETATM    9  C18 UNL     1      19.024   0.621  50.801  1.00  0.00     0.199 C 
HETATM   10  C19 UNL     1      20.537   0.464  50.636  1.00  0.00     0.031 C 
HETATM   11  C20 UNL     1      21.523   0.668  51.554  1.00  0.00     0.066 A 
HETATM   12  N5  UNL     1      20.742   0.026  52.592  1.00  0.00    -0.244 NA
HETATM   13  C21 UNL     1      21.237  -0.374  53.727  1.00  0.00     0.208 A 
HETATM   14  N6  UNL     1      22.585  -0.245  54.117  1.00  0.00    -0.352 N 
HETATM   15  H25 UNL     1      20.383   3.097  50.287  1.00  0.00     0.157 HD
HETATM   16  H32 UNL     1      22.991  -0.562  55.015  1.00  0.00     0.166 HD
ENDROOT
BRANCH   1  17
HETATM   17  C5  UNL     1      24.780   0.691  53.403  1.00  0.00     0.179 C 
BRANCH  17  18
HETATM   18  N1  UNL     1      25.536  -0.531  53.048  1.00  0.00    -0.364 N 
HETATM   19  H4  UNL     1      25.116  -1.435  52.711  1.00  0.00     0.162 HD
BRANCH  18  20
HETATM   20  C4  UNL     1      26.932  -0.701  53.098  1.00  0.00     0.155 C 
HETATM   21  C3  UNL     1      27.328   0.528  52.811  1.00  0.00     0.036 C 
HETATM   22  C2  UNL     1      28.445   0.988  53.308  1.00  0.00    -0.045 C 
HETATM   23  C1  UNL     1      28.646   2.420  53.632  1.00  0.00     0.049 C 
HETATM   24  C23 UNL     1      29.538   0.060  53.555  1.00  0.00     0.032 C 
HETATM   25  C22 UNL     1      29.243  -1.230  53.555  1.00  0.00     0.145 C 
HETATM   26  O3  UNL     1      27.939  -1.647  53.328  1.00  0.00    -0.305 OA
ENDBRANCH  18  20
ENDBRANCH  17  18
ENDBRANCH   1  17
BRANCH   4  27
HETATM   27  C9  UNL     1      24.007   3.541  51.722  1.00  0.00     0.276 C 
BRANCH  27  28
HETATM   28  C10 UNL     1      25.236   3.796  50.914  1.00  0.00     0.060 C 
BRANCH  28  29
HETATM   29  C11 UNL     1      25.350   4.969  50.050  1.00  0.00     0.274 C 
BRANCH  29  30
HETATM   30  N3  UNL     1      24.293   5.954  50.207  1.00  0.00     0.092 N 
HETATM   31  C12 UNL     1      24.780   7.117  50.870  1.00  0.00     0.298 C 
HETATM   32  C13 UNL     1      24.656   8.365  49.985  1.00  0.00     0.198 C 
HETATM   33  O1  UNL     1      23.312   8.517  49.741  1.00  0.00    -0.388 OA
HETATM   34  C14 UNL     1      22.653   7.424  49.263  1.00  0.00     0.198 C 
HETATM   35  C15 UNL     1      23.465   6.174  49.090  1.00  0.00     0.298 C 
ENDBRANCH  29  30
ENDBRANCH  28  29
ENDBRANCH  27  28
ENDBRANCH   4  27
TORSDOF 7
ENDMDL
MODEL 6
REMARK VINA RESULT:      -8.1      2.066      5.573
REMARK  7 active torsions:
REMARK  status: ('A' for Active; 'I' for Inactive)
REMARK    1  A    between atoms: C4_4  and  N1_5 
REMARK    2  A    between atoms: N1_5  and  C5_6 
REMARK    3  A    between atoms: C5_6  and  C6_7 
REMARK    4  A    between atoms: N2_10  and  C9_11 
REMARK    5  A    between atoms: C9_11  and  C10_12 
REMARK    6  A    between atoms: C10_12  and  C11_13 
REMARK    7  A    between atoms: C11_13  and  N3_14 
ROOT
HETATM    1  C6  UNL     1      22.416   2.917  49.158  1.00  0.00     0.038 A 
HETATM    2  C7  UNL     1      23.550   3.411  49.440  1.00  0.00     0.023 A 
HETATM    3  C8  UNL     1      24.730   3.061  50.182  1.00  0.00     0.317 C 
HETATM    4  N2  UNL     1      24.678   3.530  51.616  1.00  0.00     0.109 N 
HETATM    5  C16 UNL     1      23.878   4.788  51.580  1.00  0.00     0.392 C 
HETATM    6  N4  UNL     1      24.615   5.871  51.083  1.00  0.00    -0.377 N 
HETATM    7  C17 UNL     1      24.017   7.102  50.777  1.00  0.00     0.287 C 
HETATM    8  O2  UNL     1      23.820   7.340  49.353  1.00  0.00    -0.369 OA
HETATM    9  C18 UNL     1      25.139   7.048  48.826  1.00  0.00     0.199 C 
HETATM   10  C19 UNL     1      25.165   5.519  48.856  1.00  0.00     0.031 C 
HETATM   11  C20 UNL     1      24.167   4.653  49.191  1.00  0.00     0.066 A 
HETATM   12  N5  UNL     1      23.188   5.441  48.469  1.00  0.00    -0.244 NA
HETATM   13  C21 UNL     1      22.004   5.008  48.147  1.00  0.00     0.208 A 
HETATM   14  N6  UNL     1      21.499   3.726  48.446  1.00  0.00    -0.352 N 
HETATM   15  H25 UNL     1      25.586   5.959  51.445  1.00  0.00     0.157 HD
HETATM   16  H32 UNL     1      20.561   3.369  48.192  1.00  0.00     0.166 HD
ENDROOT
BRANCH   1  17
HETATM   17  C5  UNL     1      22.036   1.606  49.637  1.00  0.00     0.179 C 
BRANCH  17  18
HETATM   18  N1  UNL     1      20.640   1.742  50.111  1.00  0.00    -0.364 N 
HETATM   19  H4  UNL     1      20.021   2.581  49.965  1.00  0.00     0.162 HD
BRANCH  18  20
HETATM   20  C4  UNL     1      19.900   0.787  50.832  1.00  0.00     0.155 C 
HETATM   21  C3  UNL     1      20.802   0.416  51.725  1.00  0.00     0.036 C 
HETATM   22  C2  UNL     1      20.424   0.030  52.915  1.00  0.00    -0.045 C 
HETATM   23  C1  UNL     1      21.251   0.247  54.126  1.00  0.00     0.049 C 
HETATM   24  C23 UNL     1      19.142  -0.642  53.061  1.00  0.00     0.032 C 
HETATM   25  C22 UNL     1      18.297  -0.551  52.046  1.00  0.00     0.145 C 
HETATM   26  O3  UNL     1      18.648   0.161  50.908  1.00  0.00    -0.305 OA
ENDBRANCH  18  20
ENDBRANCH  17  18
ENDBRANCH   1  17
BRANCH   4  27
HETATM   27  C9  UNL     1      23.844   2.564  52.350  1.00  0.00     0.276 C 
BRANCH  27  28
HETATM   28  C10 UNL     1      24.519   1.271  52.671  1.00  0.00     0.060 C 
BRANCH  28  29
HETATM   29  C11 UNL     1      25.343   1.119  53.868  1.00  0.00     0.274 C 
BRANCH  29  30
HETATM   30  N3  UNL     1      26.710   0.690  53.624  1.00  0.00     0.092 N 
HETATM   31  C12 UNL     1      27.417   1.666  52.864  1.00  0.00     0.298 C 
HETATM   32  C13 UNL     1      28.622   2.220  53.638  1.00  0.00     0.198 C 
HETATM   33  O1  UNL     1      29.446   1.143  53.864  1.00  0.00    -0.388 OA
HETATM   34  C14 UNL     1      28.871   0.046  54.433  1.00  0.00     0.198 C 
HETATM   35  C15 UNL     1      27.400   0.130  54.715  1.00  0.00     0.298 C 
ENDBRANCH  29  30
ENDBRANCH  28  29
ENDBRANCH  27  28
ENDBRANCH   4  27
TORSDOF 7
ENDMDL
MODEL 7
REMARK VINA RESULT:      -8.0      2.213      6.668
REMARK  7 active torsions:
REMARK  status: ('A' for Active; 'I' for Inactive)
REMARK    1  A    between atoms: C4_4  and  N1_5 
REMARK    2  A    between atoms: N1_5  and  C5_6 
REMARK    3  A    between atoms: C5_6  and  C6_7 
REMARK    4  A    between atoms: N2_10  and  C9_11 
REMARK    5  A    between atoms: C9_11  and  C10_12 
REMARK    6  A    between atoms: C10_12  and  C11_13 
REMARK    7  A    between atoms: C11_13  and  N3_14 
ROOT
HETATM    1  C6  UNL     1      25.698   1.796  51.810  1.00  0.00     0.038 A 
HETATM    2  C7  UNL     1      26.064   0.664  52.246  1.00  0.00     0.023 A 
HETATM    3  C8  UNL     1      25.497  -0.629  52.519  1.00  0.00     0.317 C 
HETATM    4  N2  UNL     1      24.990  -0.756  53.935  1.00  0.00     0.109 N 
HETATM    5  C16 UNL     1      25.893   0.110  54.746  1.00  0.00     0.392 C 
HETATM    6  N4  UNL     1      27.141  -0.487  54.967  1.00  0.00    -0.377 N 
HETATM    7  C17 UNL     1      28.214   0.216  55.535  1.00  0.00     0.287 C 
HETATM    8  O2  UNL     1      29.236   0.628  54.582  1.00  0.00    -0.369 OA
HETATM    9  C18 UNL     1      29.500  -0.616  53.886  1.00  0.00     0.199 C 
HETATM   10  C19 UNL     1      28.286  -0.731  52.963  1.00  0.00     0.031 C 
HETATM   11  C20 UNL     1      27.272   0.159  52.769  1.00  0.00     0.066 A 
HETATM   12  N5  UNL     1      28.198   1.273  52.768  1.00  0.00    -0.244 NA
HETATM   13  C21 UNL     1      27.896   2.465  52.342  1.00  0.00     0.208 A 
HETATM   14  N6  UNL     1      26.643   2.850  51.824  1.00  0.00    -0.352 N 
HETATM   15  H25 UNL     1      27.120  -1.494  55.229  1.00  0.00     0.157 HD
HETATM   16  H32 UNL     1      26.392   3.793  51.479  1.00  0.00     0.166 HD
ENDROOT
BRANCH   1  17
HETATM   17  C5  UNL     1      24.329   2.031  51.406  1.00  0.00     0.179 C 
BRANCH  17  18
HETATM   18  N1  UNL     1      24.201   3.497  51.253  1.00  0.00    -0.364 N 
HETATM   19  H4  UNL     1      24.549   4.218  51.937  1.00  0.00     0.162 HD
BRANCH  18  20
HETATM   20  C4  UNL     1      23.598   4.182  50.182  1.00  0.00     0.155 C 
HETATM   21  C3  UNL     1      23.662   3.252  49.244  1.00  0.00     0.036 C 
HETATM   22  C2  UNL     1      22.742   3.193  48.318  1.00  0.00    -0.045 C 
HETATM   23  C1  UNL     1      22.319   1.919  47.690  1.00  0.00     0.049 C 
HETATM   24  C23 UNL     1      22.105   4.427  47.881  1.00  0.00     0.032 C 
HETATM   25  C22 UNL     1      22.265   5.491  48.652  1.00  0.00     0.145 C 
HETATM   26  O3  UNL     1      23.011   5.402  49.818  1.00  0.00    -0.305 OA
ENDBRANCH  18  20
ENDBRANCH  17  18
ENDBRANCH   1  17
BRANCH   4  27
HETATM   27  C9  UNL     1      23.676  -0.092  53.978  1.00  0.00     0.276 C 
BRANCH  27  28
HETATM   28  C10 UNL     1      22.505  -1.014  53.897  1.00  0.00     0.060 C 
BRANCH  28  29
HETATM   29  C11 UNL     1      21.255  -0.603  53.261  1.00  0.00     0.274 C 
BRANCH  29  30
HETATM   30  N3  UNL     1      21.342   0.605  52.458  1.00  0.00     0.092 N 
HETATM   31  C12 UNL     1      21.196   0.304  51.074  1.00  0.00     0.298 C 
HETATM   32  C13 UNL     1      19.969   1.000  50.470  1.00  0.00     0.198 C 
HETATM   33  O1  UNL     1      20.197   2.348  50.614  1.00  0.00    -0.388 OA
HETATM   34  C14 UNL     1      20.526   2.779  51.865  1.00  0.00     0.198 C 
HETATM   35  C15 UNL     1      20.634   1.727  52.930  1.00  0.00     0.298 C 
ENDBRANCH  29  30
ENDBRANCH  28  29
ENDBRANCH  27  28
ENDBRANCH   4  27
TORSDOF 7
ENDMDL
MODEL 8
REMARK VINA RESULT:      -7.9      2.179      3.099
REMARK  7 active torsions:
REMARK  status: ('A' for Active; 'I' for Inactive)
REMARK    1  A    between atoms: C4_4  and  N1_5 
REMARK    2  A    between atoms: N1_5  and  C5_6 
REMARK    3  A    between atoms: C5_6  and  C6_7 
REMARK    4  A    between atoms: N2_10  and  C9_11 
REMARK    5  A    between atoms: C9_11  and  C10_12 
REMARK    6  A    between atoms: C10_12  and  C11_13 
REMARK    7  A    between atoms: C11_13  and  N3_14 
ROOT
HETATM    1  C6  UNL     1      26.174   4.492  49.702  1.00  0.00     0.038 A 
HETATM    2  C7  UNL     1      25.050   4.990  50.012  1.00  0.00     0.023 A 
HETATM    3  C8  UNL     1      23.801   4.572  50.588  1.00  0.00     0.317 C 
HETATM    4  N2  UNL     1      22.803   4.121  49.549  1.00  0.00     0.109 N 
HETATM    5  C16 UNL     1      23.100   4.949  48.345  1.00  0.00     0.392 C 
HETATM    6  N4  UNL     1      22.621   6.259  48.471  1.00  0.00    -0.377 N 
HETATM    7  C17 UNL     1      22.953   7.266  47.551  1.00  0.00     0.287 C 
HETATM    8  O2  UNL     1      23.954   8.211  48.027  1.00  0.00    -0.369 OA
HETATM    9  C18 UNL     1      23.406   8.588  49.316  1.00  0.00     0.199 C 
HETATM   10  C19 UNL     1      23.741   7.367  50.175  1.00  0.00     0.031 C 
HETATM   11  C20 UNL     1      24.460   6.259  49.843  1.00  0.00     0.066 A 
HETATM   12  N5  UNL     1      25.443   7.059  49.141  1.00  0.00    -0.244 NA
HETATM   13  C21 UNL     1      26.615   6.619  48.786  1.00  0.00     0.208 A 
HETATM   14  N6  UNL     1      27.101   5.318  49.024  1.00  0.00    -0.352 N 
HETATM   15  H25 UNL     1      21.662   6.354  48.862  1.00  0.00     0.157 HD
HETATM   16  H32 UNL     1      28.033   4.958  48.749  1.00  0.00     0.166 HD
ENDROOT
BRANCH   1  17
HETATM   17  C5  UNL     1      26.461   3.095  49.944  1.00  0.00     0.179 C 
BRANCH  17  18
HETATM   18  N1  UNL     1      26.890   3.012  51.358  1.00  0.00    -0.364 N 
HETATM   19  H4  UNL     1      27.309   3.798  51.919  1.00  0.00     0.162 HD
BRANCH  18  20
HETATM   20  C4  UNL     1      26.819   1.882  52.194  1.00  0.00     0.155 C 
HETATM   21  C3  UNL     1      25.559   1.963  52.590  1.00  0.00     0.036 C 
HETATM   22  C2  UNL     1      24.890   0.876  52.865  1.00  0.00    -0.045 C 
HETATM   23  C1  UNL     1      23.427   0.761  52.649  1.00  0.00     0.049 C 
HETATM   24  C23 UNL     1      25.604  -0.271  53.406  1.00  0.00     0.032 C 
HETATM   25  C22 UNL     1      26.922  -0.262  53.301  1.00  0.00     0.145 C 
HETATM   26  O3  UNL     1      27.567   0.808  52.696  1.00  0.00    -0.305 OA
ENDBRANCH  18  20
ENDBRANCH  17  18
ENDBRANCH   1  17
BRANCH   4  27
HETATM   27  C9  UNL     1      23.170   2.746  49.173  1.00  0.00     0.276 C 
BRANCH  27  28
HETATM   28  C10 UNL     1      22.067   1.747  49.297  1.00  0.00     0.060 C 
BRANCH  28  29
HETATM   29  C11 UNL     1      20.722   2.032  48.803  1.00  0.00     0.274 C 
BRANCH  29  30
HETATM   30  N3  UNL     1      19.733   2.305  49.833  1.00  0.00     0.092 N 
HETATM   31  C12 UNL     1      20.196   1.866  51.107  1.00  0.00     0.298 C 
HETATM   32  C13 UNL     1      20.315   3.033  52.097  1.00  0.00     0.198 C 
HETATM   33  O1  UNL     1      19.043   3.538  52.231  1.00  0.00    -0.388 OA
HETATM   34  C14 UNL     1      18.387   3.847  51.077  1.00  0.00     0.198 C 
HETATM   35  C15 UNL     1      19.116   3.569  49.796  1.00  0.00     0.298 C 
ENDBRANCH  29  30
ENDBRANCH  28  29
ENDBRANCH  27  28
ENDBRANCH   4  27
TORSDOF 7
ENDMDL
MODEL 9
REMARK VINA RESULT:      -7.9      2.683      6.491
REMARK  7 active torsions:
REMARK  status: ('A' for Active; 'I' for Inactive)
REMARK    1  A    between atoms: C4_4  and  N1_5 
REMARK    2  A    between atoms: N1_5  and  C5_6 
REMARK    3  A    between atoms: C5_6  and  C6_7 
REMARK    4  A    between atoms: N2_10  and  C9_11 
REMARK    5  A    between atoms: C9_11  and  C10_12 
REMARK    6  A    between atoms: C10_12  and  C11_13 
REMARK    7  A    between atoms: C11_13  and  N3_14 
ROOT
HETATM    1  C6  UNL     1      24.048   3.194  51.438  1.00  0.00     0.038 A 
HETATM    2  C7  UNL     1      23.764   3.876  50.408  1.00  0.00     0.023 A 
HETATM    3  C8  UNL     1      24.280   4.113  49.087  1.00  0.00     0.317 C 
HETATM    4  N2  UNL     1      25.236   5.279  49.037  1.00  0.00     0.109 N 
HETATM    5  C16 UNL     1      24.748   6.223  50.083  1.00  0.00     0.392 C 
HETATM    6  N4  UNL     1      23.611   6.929  49.671  1.00  0.00    -0.377 N 
HETATM    7  C17 UNL     1      22.866   7.723  50.555  1.00  0.00     0.287 C 
HETATM    8  O2  UNL     1      21.614   7.124  50.997  1.00  0.00    -0.369 OA
HETATM    9  C18 UNL     1      21.020   6.731  49.734  1.00  0.00     0.199 C 
HETATM   10  C19 UNL     1      21.823   5.478  49.379  1.00  0.00     0.031 C 
HETATM   11  C20 UNL     1      22.776   4.837  50.111  1.00  0.00     0.066 A 
HETATM   12  N5  UNL     1      22.005   4.997  51.327  1.00  0.00    -0.244 NA
HETATM   13  C21 UNL     1      22.238   4.337  52.424  1.00  0.00     0.208 A 
HETATM   14  N6  UNL     1      23.259   3.382  52.597  1.00  0.00    -0.352 N 
HETATM   15  H25 UNL     1      23.637   7.301  48.700  1.00  0.00     0.157 HD
HETATM   16  H32 UNL     1      23.452   2.849  53.464  1.00  0.00     0.166 HD
ENDROOT
BRANCH   1  17
HETATM   17  C5  UNL     1      25.205   2.325  51.459  1.00  0.00     0.179 C 
BRANCH  17  18
HETATM   18  N1  UNL     1      26.060   2.821  52.560  1.00  0.00    -0.364 N 
HETATM   19  H4  UNL     1      26.070   3.806  52.933  1.00  0.00     0.162 HD
BRANCH  18  20
HETATM   20  C4  UNL     1      27.000   2.077  53.296  1.00  0.00     0.155 C 
HETATM   21  C3  UNL     1      26.452   0.876  53.231  1.00  0.00     0.036 C 
HETATM   22  C2  UNL     1      27.208  -0.189  53.234  1.00  0.00    -0.045 C 
HETATM   23  C1  UNL     1      26.837  -1.435  52.521  1.00  0.00     0.049 C 
HETATM   24  C23 UNL     1      28.465  -0.156  53.966  1.00  0.00     0.032 C 
HETATM   25  C22 UNL     1      28.919   1.033  54.326  1.00  0.00     0.145 C 
HETATM   26  O3  UNL     1      28.205   2.179  54.005  1.00  0.00    -0.305 OA
ENDBRANCH  18  20
ENDBRANCH  17  18
ENDBRANCH   1  17
BRANCH   4  27
HETATM   27  C9  UNL     1      26.533   4.790  49.532  1.00  0.00     0.276 C 
BRANCH  27  28
HETATM   28  C10 UNL     1      27.681   5.006  48.603  1.00  0.00     0.060 C 
BRANCH  28  29
HETATM   29  C11 UNL     1      27.891   6.289  47.937  1.00  0.00     0.274 C 
BRANCH  29  30
HETATM   30  N3  UNL     1      28.336   7.367  48.804  1.00  0.00     0.092 N 
HETATM   31  C12 UNL     1      29.670   7.753  48.486  1.00  0.00     0.298 C 
HETATM   32  C13 UNL     1      29.742   9.218  48.034  1.00  0.00     0.198 C 
HETATM   33  O1  UNL     1      29.303   9.960  49.106  1.00  0.00    -0.388 OA
HETATM   34  C14 UNL     1      28.105   9.598  49.647  1.00  0.00     0.198 C 
HETATM   35  C15 UNL     1      27.422   8.413  49.030  1.00  0.00     0.298 C 
ENDBRANCH  29  30
ENDBRANCH  28  29
ENDBRANCH  27  28
ENDBRANCH   4  27
TORSDOF 7
ENDMDL
