MODEL 1
REMARK VINA RESULT:      -7.9      0.000      0.000
REMARK  10 active torsions:
REMARK  status: ('A' for Active; 'I' for Inactive)
REMARK    1  A    between atoms: O1_2  and  C2_3 
REMARK    2  A    between atoms: N1_7  and  C6_8 
REMARK    3  A    between atoms: C6_8  and  C7_9 
REMARK    4  A    between atoms: C7_9  and  N2_10 
REMARK    5  A    between atoms: N2_10  and  C8_11 
REMARK    6  A    between atoms: C8_11  and  O2_12 
REMARK    7  A    between atoms: O2_12  and  C9_13 
REMARK    8  A    between atoms: C13_17  and  N3_18 
REMARK       I    between atoms: N3_18  and  C14_19 
REMARK       I    between atoms: C14_19  and  N4_21 
REMARK    9  A    between atoms: N4_21  and  C15_22 
REMARK   10  A    between atoms: C23_30  and  O4_31 
ROOT
HETATM    1  C9  UNL     1      26.046   6.374  49.348  1.00  0.00     0.073 A 
HETATM    2  C10 UNL     1      25.989   7.535  50.094  1.00  0.00     0.037 A 
HETATM    3  C11 UNL     1      27.003   8.456  49.927  1.00  0.00     0.005 A 
HETATM    4  C12 UNL     1      28.045   8.231  49.043  1.00  0.00     0.030 A 
HETATM    5  C13 UNL     1      28.068   7.044  48.304  1.00  0.00     0.039 A 
HETATM    6  C21 UNL     1      27.066   6.110  48.456  1.00  0.00     0.066 A 
ENDROOT
BRANCH   1   7
HETATM    7  O2  UNL     1      25.071   5.389  49.449  1.00  0.00    -0.330 OA
BRANCH   7   8
HETATM    8  C8  UNL     1      23.743   5.752  49.116  1.00  0.00     0.323 C 
BRANCH   8   9
HETATM    9  N2  UNL     1      22.777   5.102  49.921  1.00  0.00    -0.278 NA
BRANCH   9  10
HETATM   10  C7  UNL     1      23.100   4.727  51.097  1.00  0.00     0.107 C 
BRANCH  10  11
HETATM   11  C6  UNL     1      23.360   4.256  52.470  1.00  0.00     0.195 C 
BRANCH  11  12
HETATM   12  N1  UNL     1      23.175   2.824  52.610  1.00  0.00    -0.289 NA
HETATM   13  C5  UNL     1      24.262   2.103  52.635  1.00  0.00     0.035 A 
HETATM   14  C4  UNL     1      23.877   0.658  52.784  1.00  0.00     0.088 A 
HETATM   15  C22 UNL     1      25.649   2.544  52.541  1.00  0.00     0.066 A 
HETATM   16  C3  UNL     1      25.040  -0.236  52.822  1.00  0.00     0.019 A 
HETATM   17  C2  UNL     1      26.266   0.221  52.733  1.00  0.00     0.098 A 
HETATM   18  C23 UNL     1      26.605   1.626  52.589  1.00  0.00     0.103 A 
BRANCH  17  19
HETATM   19  O1  UNL     1      27.333  -0.687  52.777  1.00  0.00    -0.353 OA
HETATM   20  C1  UNL     1      27.169  -2.079  52.696  1.00  0.00     0.210 C 
ENDBRANCH  17  19
BRANCH  18  21
HETATM   21  O4  UNL     1      27.898   2.101  52.496  1.00  0.00    -0.353 OA
HETATM   22  C24 UNL     1      28.718   2.425  53.582  1.00  0.00     0.210 C 
ENDBRANCH  18  21
ENDBRANCH  11  12
ENDBRANCH  10  11
ENDBRANCH   9  10
ENDBRANCH   8   9
ENDBRANCH   7   8
ENDBRANCH   1   7
BRANCH   5  23
HETATM   23  N3  UNL     1      29.217   6.984  47.443  1.00  0.00    -0.309 N 
HETATM   24  C14 UNL     1      30.218   6.041  47.794  1.00  0.00     0.325 C 
HETATM   25  O3  UNL     1      29.973   5.374  48.814  1.00  0.00    -0.247 OA
HETATM   26  N4  UNL     1      31.422   5.828  47.078  1.00  0.00    -0.309 N 
HETATM   27  H16 UNL     1      31.472   6.464  46.253  1.00  0.00     0.170 HD
HETATM   28  H15 UNL     1      29.380   7.578  46.579  1.00  0.00     0.170 HD
BRANCH  26  29
HETATM   29  C15 UNL     1      32.472   4.918  47.347  1.00  0.00     0.036 A 
HETATM   30  C16 UNL     1      32.436   3.566  47.205  1.00  0.00     0.029 A 
HETATM   31  C17 UNL     1      33.476   2.717  47.477  1.00  0.00     0.002 A 
HETATM   32  C18 UNL     1      34.667   3.262  47.934  1.00  0.00     0.000 A 
HETATM   33  C19 UNL     1      34.732   4.617  48.086  1.00  0.00     0.002 A 
HETATM   34  C20 UNL     1      33.652   5.419  47.796  1.00  0.00     0.029 A 
ENDBRANCH  26  29
ENDBRANCH   5  23
TORSDOF 10
ENDMDL
MODEL 2
REMARK VINA RESULT:      -7.8      4.910      6.375
REMARK  10 active torsions:
REMARK  status: ('A' for Active; 'I' for Inactive)
REMARK    1  A    between atoms: O1_2  and  C2_3 
REMARK    2  A    between atoms: N1_7  and  C6_8 
REMARK    3  A    between atoms: C6_8  and  C7_9 
REMARK    4  A    between atoms: C7_9  and  N2_10 
REMARK    5  A    between atoms: N2_10  and  C8_11 
REMARK    6  A    between atoms: C8_11  and  O2_12 
REMARK    7  A    between atoms: O2_12  and  C9_13 
REMARK    8  A    between atoms: C13_17  and  N3_18 
REMARK       I    between atoms: N3_18  and  C14_19 
REMARK       I    between atoms: C14_19  and  N4_21 
REMARK    9  A    between atoms: N4_21  and  C15_22 
REMARK   10  A    between atoms: C23_30  and  O4_31 
ROOT
HETATM    1  C9  UNL     1      22.453   6.083  49.096  1.00  0.00     0.073 A 
HETATM    2  C10 UNL     1      22.361   7.285  49.770  1.00  0.00     0.037 A 
HETATM    3  C11 UNL     1      23.391   7.622  50.624  1.00  0.00     0.005 A 
HETATM    4  C12 UNL     1      24.483   6.789  50.805  1.00  0.00     0.030 A 
HETATM    5  C13 UNL     1      24.540   5.580  50.104  1.00  0.00     0.039 A 
HETATM    6  C21 UNL     1      23.522   5.223  49.246  1.00  0.00     0.066 A 
ENDROOT
BRANCH   1   7
HETATM    7  O2  UNL     1      21.464   5.658  48.215  1.00  0.00    -0.330 OA
BRANCH   7   8
HETATM    8  C8  UNL     1      21.840   4.729  47.216  1.00  0.00     0.323 C 
BRANCH   8   9
HETATM    9  N2  UNL     1      20.960   3.623  47.135  1.00  0.00    -0.278 NA
BRANCH   9  10
HETATM   10  C7  UNL     1      20.649   2.998  48.203  1.00  0.00     0.107 C 
BRANCH  10  11
HETATM   11  C6  UNL     1      20.404   2.242  49.445  1.00  0.00     0.195 C 
BRANCH  11  12
HETATM   12  N1  UNL     1      21.634   1.848  50.106  1.00  0.00    -0.289 NA
HETATM   13  C5  UNL     1      21.502   1.127  51.185  1.00  0.00     0.035 A 
HETATM   14  C4  UNL     1      22.869   0.818  51.726  1.00  0.00     0.088 A 
HETATM   15  C22 UNL     1      20.276   0.659  51.824  1.00  0.00     0.066 A 
HETATM   16  C3  UNL     1      22.823   0.005  52.948  1.00  0.00     0.019 A 
HETATM   17  C2  UNL     1      21.687  -0.386  53.475  1.00  0.00     0.098 A 
HETATM   18  C23 UNL     1      20.381  -0.069  52.927  1.00  0.00     0.103 A 
BRANCH  17  19
HETATM   19  O1  UNL     1      21.715  -1.161  54.643  1.00  0.00    -0.353 OA
HETATM   20  C1  UNL     1      22.886  -1.431  55.367  1.00  0.00     0.210 C 
ENDBRANCH  17  19
BRANCH  18  21
HETATM   21  O4  UNL     1      19.189  -0.485  53.486  1.00  0.00    -0.353 OA
HETATM   22  C24 UNL     1      18.104  -1.010  52.776  1.00  0.00     0.210 C 
ENDBRANCH  18  21
ENDBRANCH  11  12
ENDBRANCH  10  11
ENDBRANCH   9  10
ENDBRANCH   8   9
ENDBRANCH   7   8
ENDBRANCH   1   7
BRANCH   5  23
HETATM   23  N3  UNL     1      25.739   4.850  50.416  1.00  0.00    -0.309 N 
HETATM   24  C14 UNL     1      25.579   3.692  51.220  1.00  0.00     0.325 C 
HETATM   25  O3  UNL     1      24.408   3.448  51.560  1.00  0.00    -0.247 OA
HETATM   26  N4  UNL     1      26.632   2.839  51.636  1.00  0.00    -0.309 N 
HETATM   27  H16 UNL     1      27.545   3.183  51.268  1.00  0.00     0.170 HD
HETATM   28  H15 UNL     1      26.720   5.100  50.100  1.00  0.00     0.170 HD
BRANCH  26  29
HETATM   29  C15 UNL     1      26.573   1.671  52.432  1.00  0.00     0.036 A 
HETATM   30  C16 UNL     1      26.489   1.611  53.788  1.00  0.00     0.029 A 
HETATM   31  C17 UNL     1      26.434   0.457  54.525  1.00  0.00     0.002 A 
HETATM   32  C18 UNL     1      26.464  -0.755  53.850  1.00  0.00     0.000 A 
HETATM   33  C19 UNL     1      26.547  -0.725  52.487  1.00  0.00     0.002 A 
HETATM   34  C20 UNL     1      26.599   0.468  51.803  1.00  0.00     0.029 A 
ENDBRANCH  26  29
ENDBRANCH   5  23
TORSDOF 10
ENDMDL
MODEL 3
REMARK VINA RESULT:      -7.7      5.274      6.984
REMARK  10 active torsions:
REMARK  status: ('A' for Active; 'I' for Inactive)
REMARK    1  A    between atoms: O1_2  and  C2_3 
REMARK    2  A    between atoms: N1_7  and  C6_8 
REMARK    3  A    between atoms: C6_8  and  C7_9 
REMARK    4  A    between atoms: C7_9  and  N2_10 
REMARK    5  A    between atoms: N2_10  and  C8_11 
REMARK    6  A    between atoms: C8_11  and  O2_12 
REMARK    7  A    between atoms: O2_12  and  C9_13 
REMARK    8  A    between atoms: C13_17  and  N3_18 
REMARK       I    between atoms: N3_18  and  C14_19 
REMARK       I    between atoms: C14_19  and  N4_21 
REMARK    9  A    between atoms: N4_21  and  C15_22 
REMARK   10  A    between atoms: C23_30  and  O4_31 
ROOT
HETATM    1  C9  UNL     1      22.562   5.122  50.530  1.00  0.00     0.073 A 
HETATM    2  C10 UNL     1      21.285   4.728  50.881  1.00  0.00     0.037 A 
HETATM    3  C11 UNL     1      21.137   3.990  52.037  1.00  0.00     0.005 A 
HETATM    4  C12 UNL     1      22.225   3.651  52.824  1.00  0.00     0.030 A 
HETATM    5  C13 UNL     1      23.502   4.068  52.436  1.00  0.00     0.039 A 
HETATM    6  C21 UNL     1      23.675   4.806  51.285  1.00  0.00     0.066 A 
ENDROOT
BRANCH   1   7
HETATM    7  O2  UNL     1      22.811   5.868  49.384  1.00  0.00    -0.330 OA
BRANCH   7   8
HETATM    8  C8  UNL     1      22.102   5.512  48.211  1.00  0.00     0.323 C 
BRANCH   8   9
HETATM    9  N2  UNL     1      22.722   4.462  47.491  1.00  0.00    -0.278 NA
BRANCH   9  10
HETATM   10  C7  UNL     1      22.365   3.258  47.719  1.00  0.00     0.107 C 
BRANCH  10  11
HETATM   11  C6  UNL     1      21.975   1.887  48.098  1.00  0.00     0.195 C 
BRANCH  11  12
HETATM   12  N1  UNL     1      20.595   1.806  48.538  1.00  0.00    -0.289 NA
HETATM   13  C5  UNL     1      20.391   1.217  49.684  1.00  0.00     0.035 A 
HETATM   14  C4  UNL     1      18.916   1.227  49.973  1.00  0.00     0.088 A 
HETATM   15  C22 UNL     1      21.368   0.625  50.591  1.00  0.00     0.066 A 
HETATM   16  C3  UNL     1      18.586   0.583  51.250  1.00  0.00     0.019 A 
HETATM   17  C2  UNL     1      19.511   0.068  52.024  1.00  0.00     0.098 A 
HETATM   18  C23 UNL     1      20.930   0.074  51.715  1.00  0.00     0.103 A 
BRANCH  17  19
HETATM   19  O1  UNL     1      19.127  -0.533  53.231  1.00  0.00    -0.353 OA
HETATM   20  C1  UNL     1      18.159  -1.545  53.320  1.00  0.00     0.210 C 
ENDBRANCH  17  19
BRANCH  18  21
HETATM   21  O4  UNL     1      21.899  -0.470  52.534  1.00  0.00    -0.353 OA
HETATM   22  C24 UNL     1      22.435   0.148  53.669  1.00  0.00     0.210 C 
ENDBRANCH  18  21
ENDBRANCH  11  12
ENDBRANCH  10  11
ENDBRANCH   9  10
ENDBRANCH   8   9
ENDBRANCH   7   8
ENDBRANCH   1   7
BRANCH   5  23
HETATM   23  N3  UNL     1      24.504   3.627  53.368  1.00  0.00    -0.309 N 
HETATM   24  C14 UNL     1      25.198   2.436  53.029  1.00  0.00     0.325 C 
HETATM   25  O3  UNL     1      24.851   1.917  51.954  1.00  0.00    -0.247 OA
HETATM   26  N4  UNL     1      26.217   1.838  53.812  1.00  0.00    -0.309 N 
HETATM   27  H16 UNL     1      26.386   2.396  54.676  1.00  0.00     0.170 HD
HETATM   28  H15 UNL     1      24.764   4.108  54.277  1.00  0.00     0.170 HD
BRANCH  26  29
HETATM   29  C15 UNL     1      26.962   0.662  53.559  1.00  0.00     0.036 A 
HETATM   30  C16 UNL     1      26.484  -0.520  53.086  1.00  0.00     0.029 A 
HETATM   31  C17 UNL     1      27.239  -1.640  52.854  1.00  0.00     0.002 A 
HETATM   32  C18 UNL     1      28.600  -1.580  53.116  1.00  0.00     0.000 A 
HETATM   33  C19 UNL     1      29.108  -0.405  53.592  1.00  0.00     0.002 A 
HETATM   34  C20 UNL     1      28.297   0.686  53.805  1.00  0.00     0.029 A 
ENDBRANCH  26  29
ENDBRANCH   5  23
TORSDOF 10
ENDMDL
MODEL 4
REMARK VINA RESULT:      -7.7      4.570      7.242
REMARK  10 active torsions:
REMARK  status: ('A' for Active; 'I' for Inactive)
REMARK    1  A    between atoms: O1_2  and  C2_3 
REMARK    2  A    between atoms: N1_7  and  C6_8 
REMARK    3  A    between atoms: C6_8  and  C7_9 
REMARK    4  A    between atoms: C7_9  and  N2_10 
REMARK    5  A    between atoms: N2_10  and  C8_11 
REMARK    6  A    between atoms: C8_11  and  O2_12 
REMARK    7  A    between atoms: O2_12  and  C9_13 
REMARK    8  A    between atoms: C13_17  and  N3_18 
REMARK       I    between atoms: N3_18  and  C14_19 
REMARK       I    between atoms: C14_19  and  N4_21 
REMARK    9  A    between atoms: N4_21  and  C15_22 
REMARK   10  A    between atoms: C23_30  and  O4_31 
ROOT
HETATM    1  C9  UNL     1      21.658   2.923  51.837  1.00  0.00     0.073 A 
HETATM    2  C10 UNL     1      21.389   4.239  51.515  1.00  0.00     0.037 A 
HETATM    3  C11 UNL     1      22.292   5.198  51.926  1.00  0.00     0.005 A 
HETATM    4  C12 UNL     1      23.433   4.860  52.636  1.00  0.00     0.030 A 
HETATM    5  C13 UNL     1      23.671   3.517  52.942  1.00  0.00     0.039 A 
HETATM    6  C21 UNL     1      22.782   2.542  52.543  1.00  0.00     0.066 A 
ENDROOT
BRANCH   1   7
HETATM    7  O2  UNL     1      20.807   1.888  51.467  1.00  0.00    -0.330 OA
BRANCH   7   8
HETATM    8  C8  UNL     1      19.505   2.241  51.038  1.00  0.00     0.323 C 
BRANCH   8   9
HETATM    9  N2  UNL     1      19.276   1.942  49.673  1.00  0.00    -0.278 NA
BRANCH   9  10
HETATM   10  C7  UNL     1      20.253   1.993  48.854  1.00  0.00     0.107 C 
BRANCH  10  11
HETATM   11  C6  UNL     1      21.376   2.172  47.915  1.00  0.00     0.195 C 
BRANCH  11  12
HETATM   12  N1  UNL     1      22.661   2.203  48.587  1.00  0.00    -0.289 NA
HETATM   13  C5  UNL     1      23.257   3.362  48.636  1.00  0.00     0.035 A 
HETATM   14  C4  UNL     1      24.562   3.201  49.363  1.00  0.00     0.088 A 
HETATM   15  C22 UNL     1      22.805   4.642  48.101  1.00  0.00     0.066 A 
HETATM   16  C3  UNL     1      25.310   4.460  49.468  1.00  0.00     0.019 A 
HETATM   17  C2  UNL     1      24.849   5.581  48.967  1.00  0.00     0.098 A 
HETATM   18  C23 UNL     1      23.582   5.703  48.268  1.00  0.00     0.103 A 
BRANCH  17  19
HETATM   19  O1  UNL     1      25.614   6.748  49.103  1.00  0.00    -0.353 OA
HETATM   20  C1  UNL     1      25.719   7.470  50.302  1.00  0.00     0.210 C 
ENDBRANCH  17  19
BRANCH  18  21
HETATM   21  O4  UNL     1      23.103   6.886  47.743  1.00  0.00    -0.353 OA
HETATM   22  C24 UNL     1      22.277   7.792  48.418  1.00  0.00     0.210 C 
ENDBRANCH  18  21
ENDBRANCH  11  12
ENDBRANCH  10  11
ENDBRANCH   9  10
ENDBRANCH   8   9
ENDBRANCH   7   8
ENDBRANCH   1   7
BRANCH   5  23
HETATM   23  N3  UNL     1      24.895   3.357  53.680  1.00  0.00    -0.309 N 
HETATM   24  C14 UNL     1      25.675   2.214  53.363  1.00  0.00     0.325 C 
HETATM   25  O3  UNL     1      25.198   1.484  52.476  1.00  0.00    -0.247 OA
HETATM   26  N4  UNL     1      26.909   1.877  53.974  1.00  0.00    -0.309 N 
HETATM   27  H16 UNL     1      27.165   2.588  54.692  1.00  0.00     0.170 HD
HETATM   28  H15 UNL     1      25.260   4.011  54.431  1.00  0.00     0.170 HD
BRANCH  26  29
HETATM   29  C15 UNL     1      27.753   0.768  53.727  1.00  0.00     0.036 A 
HETATM   30  C16 UNL     1      27.366  -0.498  53.418  1.00  0.00     0.029 A 
HETATM   31  C17 UNL     1      28.217  -1.547  53.186  1.00  0.00     0.002 A 
HETATM   32  C18 UNL     1      29.583  -1.318  53.269  1.00  0.00     0.000 A 
HETATM   33  C19 UNL     1      29.999  -0.054  53.579  1.00  0.00     0.002 A 
HETATM   34  C20 UNL     1      29.095   0.960  53.801  1.00  0.00     0.029 A 
ENDBRANCH  26  29
ENDBRANCH   5  23
TORSDOF 10
ENDMDL
MODEL 5
REMARK VINA RESULT:      -7.7      2.333      7.453
REMARK  10 active torsions:
REMARK  status: ('A' for Active; 'I' for Inactive)
REMARK    1  A    between atoms: O1_2  and  C2_3 
REMARK    2  A    between atoms: N1_7  and  C6_8 
REMARK    3  A    between atoms: C6_8  and  C7_9 
REMARK    4  A    between atoms: C7_9  and  N2_10 
REMARK    5  A    between atoms: N2_10  and  C8_11 
REMARK    6  A    between atoms: C8_11  and  O2_12 
REMARK    7  A    between atoms: O2_12  and  C9_13 
REMARK    8  A    between atoms: C13_17  and  N3_18 
REMARK       I    between atoms: N3_18  and  C14_19 
REMARK       I    between atoms: C14_19  and  N4_21 
REMARK    9  A    between atoms: N4_21  and  C15_22 
REMARK   10  A    between atoms: C23_30  and  O4_31 
ROOT
HETATM    1  C9  UNL     1      22.737   4.771  50.612  1.00  0.00     0.073 A 
HETATM    2  C10 UNL     1      21.694   3.868  50.533  1.00  0.00     0.037 A 
HETATM    3  C11 UNL     1      21.689   2.815  51.424  1.00  0.00     0.005 A 
HETATM    4  C12 UNL     1      22.690   2.661  52.369  1.00  0.00     0.030 A 
HETATM    5  C13 UNL     1      23.729   3.596  52.418  1.00  0.00     0.039 A 
HETATM    6  C21 UNL     1      23.755   4.656  51.537  1.00  0.00     0.066 A 
ENDROOT
BRANCH   1   7
HETATM    7  O2  UNL     1      22.827   5.863  49.757  1.00  0.00    -0.330 OA
BRANCH   7   8
HETATM    8  C8  UNL     1      22.030   6.993  50.060  1.00  0.00     0.323 C 
BRANCH   8   9
HETATM    9  N2  UNL     1      22.614   8.209  49.630  1.00  0.00    -0.278 NA
BRANCH   9  10
HETATM   10  C7  UNL     1      23.886   8.298  49.566  1.00  0.00     0.107 C 
BRANCH  10  11
HETATM   11  C6  UNL     1      25.358   8.281  49.473  1.00  0.00     0.195 C 
BRANCH  11  12
HETATM   12  N1  UNL     1      25.878   6.966  49.148  1.00  0.00    -0.289 NA
HETATM   13  C5  UNL     1      27.145   6.908  48.845  1.00  0.00     0.035 A 
HETATM   14  C4  UNL     1      27.501   5.480  48.541  1.00  0.00     0.088 A 
HETATM   15  C22 UNL     1      28.119   7.993  48.787  1.00  0.00     0.066 A 
HETATM   16  C3  UNL     1      28.916   5.313  48.187  1.00  0.00     0.019 A 
HETATM   17  C2  UNL     1      29.744   6.329  48.152  1.00  0.00     0.098 A 
HETATM   18  C23 UNL     1      29.368   7.699  48.452  1.00  0.00     0.103 A 
BRANCH  17  19
HETATM   19  O1  UNL     1      31.083   6.100  47.807  1.00  0.00    -0.353 OA
HETATM   20  C1  UNL     1      32.112   5.951  48.750  1.00  0.00     0.210 C 
ENDBRANCH  17  19
BRANCH  18  21
HETATM   21  O4  UNL     1      30.245   8.765  48.414  1.00  0.00    -0.353 OA
HETATM   22  C24 UNL     1      30.441   9.685  49.450  1.00  0.00     0.210 C 
ENDBRANCH  18  21
ENDBRANCH  11  12
ENDBRANCH  10  11
ENDBRANCH   9  10
ENDBRANCH   8   9
ENDBRANCH   7   8
ENDBRANCH   1   7
BRANCH   5  23
HETATM   23  N3  UNL     1      24.672   3.277  53.455  1.00  0.00    -0.309 N 
HETATM   24  C14 UNL     1      25.653   2.302  53.136  1.00  0.00     0.325 C 
HETATM   25  O3  UNL     1      25.575   1.840  51.985  1.00  0.00    -0.247 OA
HETATM   26  N4  UNL     1      26.668   1.851  54.016  1.00  0.00    -0.309 N 
HETATM   27  H16 UNL     1      26.593   2.336  54.936  1.00  0.00     0.170 HD
HETATM   28  H15 UNL     1      24.696   3.702  54.427  1.00  0.00     0.170 HD
BRANCH  26  29
HETATM   29  C15 UNL     1      27.683   0.891  53.791  1.00  0.00     0.036 A 
HETATM   30  C16 UNL     1      29.026   1.096  53.849  1.00  0.00     0.029 A 
HETATM   31  C17 UNL     1      29.980   0.139  53.624  1.00  0.00     0.002 A 
HETATM   32  C18 UNL     1      29.560  -1.146  53.311  1.00  0.00     0.000 A 
HETATM   33  C19 UNL     1      28.216  -1.380  53.246  1.00  0.00     0.002 A 
HETATM   34  C20 UNL     1      27.306  -0.376  53.483  1.00  0.00     0.029 A 
ENDBRANCH  26  29
ENDBRANCH   5  23
TORSDOF 10
ENDMDL
MODEL 6
REMARK VINA RESULT:      -7.6      2.036      8.157
REMARK  10 active torsions:
REMARK  status: ('A' for Active; 'I' for Inactive)
REMARK    1  A    between atoms: O1_2  and  C2_3 
REMARK    2  A    between atoms: N1_7  and  C6_8 
REMARK    3  A    between atoms: C6_8  and  C7_9 
REMARK    4  A    between atoms: C7_9  and  N2_10 
REMARK    5  A    between atoms: N2_10  and  C8_11 
REMARK    6  A    between atoms: C8_11  and  O2_12 
REMARK    7  A    between atoms: O2_12  and  C9_13 
REMARK    8  A    between atoms: C13_17  and  N3_18 
REMARK       I    between atoms: N3_18  and  C14_19 
REMARK       I    between atoms: C14_19  and  N4_21 
REMARK    9  A    between atoms: N4_21  and  C15_22 
REMARK   10  A    between atoms: C23_30  and  O4_31 
ROOT
HETATM    1  C9  UNL     1      24.969   4.980  49.247  1.00  0.00     0.073 A 
HETATM    2  C10 UNL     1      23.792   4.501  48.706  1.00  0.00     0.037 A 
HETATM    3  C11 UNL     1      23.138   3.493  49.384  1.00  0.00     0.005 A 
HETATM    4  C12 UNL     1      23.638   2.974  50.567  1.00  0.00     0.030 A 
HETATM    5  C13 UNL     1      24.832   3.486  51.084  1.00  0.00     0.039 A 
HETATM    6  C21 UNL     1      25.503   4.492  50.423  1.00  0.00     0.066 A 
ENDROOT
BRANCH   1   7
HETATM    7  O2  UNL     1      25.698   5.994  48.636  1.00  0.00    -0.330 OA
BRANCH   7   8
HETATM    8  C8  UNL     1      26.150   7.055  49.457  1.00  0.00     0.323 C 
BRANCH   8   9
HETATM    9  N2  UNL     1      26.756   8.101  48.720  1.00  0.00    -0.278 NA
BRANCH   9  10
HETATM   10  C7  UNL     1      27.734   7.828  47.946  1.00  0.00     0.107 C 
BRANCH  10  11
HETATM   11  C6  UNL     1      28.801   7.565  46.963  1.00  0.00     0.195 C 
BRANCH  11  12
HETATM   12  N1  UNL     1      30.069   8.155  47.349  1.00  0.00    -0.289 NA
HETATM   13  C5  UNL     1      31.035   7.319  47.615  1.00  0.00     0.035 A 
HETATM   14  C4  UNL     1      32.259   8.104  47.993  1.00  0.00     0.088 A 
HETATM   15  C22 UNL     1      31.014   5.861  47.576  1.00  0.00     0.066 A 
HETATM   16  C3  UNL     1      33.406   7.245  48.312  1.00  0.00     0.019 A 
HETATM   17  C2  UNL     1      33.325   5.937  48.259  1.00  0.00     0.098 A 
HETATM   18  C23 UNL     1      32.125   5.208  47.889  1.00  0.00     0.103 A 
BRANCH  17  19
HETATM   19  O1  UNL     1      34.458   5.175  48.575  1.00  0.00    -0.353 OA
HETATM   20  C1  UNL     1      35.567   5.686  49.268  1.00  0.00     0.210 C 
ENDBRANCH  17  19
BRANCH  18  21
HETATM   21  O4  UNL     1      32.046   3.830  47.835  1.00  0.00    -0.353 OA
HETATM   22  C24 UNL     1      32.164   3.062  46.672  1.00  0.00     0.210 C 
ENDBRANCH  18  21
ENDBRANCH  11  12
ENDBRANCH  10  11
ENDBRANCH   9  10
ENDBRANCH   8   9
ENDBRANCH   7   8
ENDBRANCH   1   7
BRANCH   5  23
HETATM   23  N3  UNL     1      25.195   2.830  52.311  1.00  0.00    -0.309 N 
HETATM   24  C14 UNL     1      26.155   1.789  52.208  1.00  0.00     0.325 C 
HETATM   25  O3  UNL     1      26.568   1.571  51.056  1.00  0.00    -0.247 OA
HETATM   26  N4  UNL     1      26.643   1.023  53.296  1.00  0.00    -0.309 N 
HETATM   27  H16 UNL     1      26.198   1.332  54.187  1.00  0.00     0.170 HD
HETATM   28  H15 UNL     1      24.812   3.055  53.275  1.00  0.00     0.170 HD
BRANCH  26  29
HETATM   29  C15 UNL     1      27.592  -0.026  53.293  1.00  0.00     0.036 A 
HETATM   30  C16 UNL     1      28.901   0.057  53.653  1.00  0.00     0.029 A 
HETATM   31  C17 UNL     1      29.791  -0.985  53.636  1.00  0.00     0.002 A 
HETATM   32  C18 UNL     1      29.337  -2.230  53.224  1.00  0.00     0.000 A 
HETATM   33  C19 UNL     1      28.027  -2.342  52.857  1.00  0.00     0.002 A 
HETATM   34  C20 UNL     1      27.181  -1.258  52.895  1.00  0.00     0.029 A 
ENDBRANCH  26  29
ENDBRANCH   5  23
TORSDOF 10
ENDMDL
MODEL 7
REMARK VINA RESULT:      -7.5      2.300      8.111
REMARK  10 active torsions:
REMARK  status: ('A' for Active; 'I' for Inactive)
REMARK    1  A    between atoms: O1_2  and  C2_3 
REMARK    2  A    between atoms: N1_7  and  C6_8 
REMARK    3  A    between atoms: C6_8  and  C7_9 
REMARK    4  A    between atoms: C7_9  and  N2_10 
REMARK    5  A    between atoms: N2_10  and  C8_11 
REMARK    6  A    between atoms: C8_11  and  O2_12 
REMARK    7  A    between atoms: O2_12  and  C9_13 
REMARK    8  A    between atoms: C13_17  and  N3_18 
REMARK       I    between atoms: N3_18  and  C14_19 
REMARK       I    between atoms: C14_19  and  N4_21 
REMARK    9  A    between atoms: N4_21  and  C15_22 
REMARK   10  A    between atoms: C23_30  and  O4_31 
ROOT
HETATM    1  C9  UNL     1      25.669   6.884  48.836  1.00  0.00     0.073 A 
HETATM    2  C10 UNL     1      24.325   6.747  48.544  1.00  0.00     0.037 A 
HETATM    3  C11 UNL     1      23.779   5.483  48.616  1.00  0.00     0.005 A 
HETATM    4  C12 UNL     1      24.543   4.383  48.969  1.00  0.00     0.030 A 
HETATM    5  C13 UNL     1      25.900   4.561  49.259  1.00  0.00     0.039 A 
HETATM    6  C21 UNL     1      26.467   5.815  49.192  1.00  0.00     0.066 A 
ENDROOT
BRANCH   1   7
HETATM    7  O2  UNL     1      26.308   8.118  48.789  1.00  0.00    -0.330 OA
BRANCH   7   8
HETATM    8  C8  UNL     1      26.174   8.962  49.918  1.00  0.00     0.323 C 
BRANCH   8   9
HETATM    9  N2  UNL     1      27.397   9.558  50.307  1.00  0.00    -0.278 NA
BRANCH   9  10
HETATM   10  C7  UNL     1      28.457   9.284  49.651  1.00  0.00     0.107 C 
BRANCH  10  11
HETATM   11  C6  UNL     1      29.667   8.853  48.927  1.00  0.00     0.195 C 
BRANCH  11  12
HETATM   12  N1  UNL     1      29.572   7.485  48.454  1.00  0.00    -0.289 NA
HETATM   13  C5  UNL     1      30.698   6.837  48.337  1.00  0.00     0.035 A 
HETATM   14  C4  UNL     1      30.404   5.450  47.839  1.00  0.00     0.088 A 
HETATM   15  C22 UNL     1      32.051   7.304  48.618  1.00  0.00     0.066 A 
HETATM   16  C3  UNL     1      31.617   4.639  47.675  1.00  0.00     0.019 A 
HETATM   17  C2  UNL     1      32.809   5.116  47.945  1.00  0.00     0.098 A 
HETATM   18  C23 UNL     1      33.059   6.464  48.425  1.00  0.00     0.103 A 
BRANCH  17  19
HETATM   19  O1  UNL     1      33.926   4.288  47.767  1.00  0.00    -0.353 OA
HETATM   20  C1  UNL     1      34.615   4.167  46.550  1.00  0.00     0.210 C 
ENDBRANCH  17  19
BRANCH  18  21
HETATM   21  O4  UNL     1      34.316   6.960  48.709  1.00  0.00    -0.353 OA
HETATM   22  C24 UNL     1      34.788   8.222  48.334  1.00  0.00     0.210 C 
ENDBRANCH  18  21
ENDBRANCH  11  12
ENDBRANCH  10  11
ENDBRANCH   9  10
ENDBRANCH   8   9
ENDBRANCH   7   8
ENDBRANCH   1   7
BRANCH   5  23
HETATM   23  N3  UNL     1      26.530   3.316  49.604  1.00  0.00    -0.309 N 
HETATM   24  C14 UNL     1      26.156   2.746  50.849  1.00  0.00     0.325 C 
HETATM   25  O3  UNL     1      25.319   3.400  51.494  1.00  0.00    -0.247 OA
HETATM   26  N4  UNL     1      26.661   1.528  51.370  1.00  0.00    -0.309 N 
HETATM   27  H16 UNL     1      27.349   1.108  50.708  1.00  0.00     0.170 HD
HETATM   28  H15 UNL     1      27.242   2.794  49.016  1.00  0.00     0.170 HD
BRANCH  26  29
HETATM   29  C15 UNL     1      26.351   0.883  52.590  1.00  0.00     0.036 A 
HETATM   30  C16 UNL     1      27.095   0.891  53.728  1.00  0.00     0.029 A 
HETATM   31  C17 UNL     1      26.760   0.252  54.893  1.00  0.00     0.002 A 
HETATM   32  C18 UNL     1      25.572  -0.464  54.933  1.00  0.00     0.000 A 
HETATM   33  C19 UNL     1      24.804  -0.488  53.804  1.00  0.00     0.002 A 
HETATM   34  C20 UNL     1      25.195   0.175  52.662  1.00  0.00     0.029 A 
ENDBRANCH  26  29
ENDBRANCH   5  23
TORSDOF 10
ENDMDL
MODEL 8
REMARK VINA RESULT:      -7.5      2.786      5.004
REMARK  10 active torsions:
REMARK  status: ('A' for Active; 'I' for Inactive)
REMARK    1  A    between atoms: O1_2  and  C2_3 
REMARK    2  A    between atoms: N1_7  and  C6_8 
REMARK    3  A    between atoms: C6_8  and  C7_9 
REMARK    4  A    between atoms: C7_9  and  N2_10 
REMARK    5  A    between atoms: N2_10  and  C8_11 
REMARK    6  A    between atoms: C8_11  and  O2_12 
REMARK    7  A    between atoms: O2_12  and  C9_13 
REMARK    8  A    between atoms: C13_17  and  N3_18 
REMARK       I    between atoms: N3_18  and  C14_19 
REMARK       I    between atoms: C14_19  and  N4_21 
REMARK    9  A    between atoms: N4_21  and  C15_22 
REMARK   10  A    between atoms: C23_30  and  O4_31 
ROOT
HETATM    1  C9  UNL     1      28.826  10.947  48.082  1.00  0.00     0.073 A 
HETATM    2  C10 UNL     1      29.688  11.965  48.440  1.00  0.00     0.037 A 
HETATM    3  C11 UNL     1      30.805  11.630  49.176  1.00  0.00     0.005 A 
HETATM    4  C12 UNL     1      31.061  10.320  49.548  1.00  0.00     0.030 A 
HETATM    5  C13 UNL     1      30.165   9.317  49.166  1.00  0.00     0.039 A 
HETATM    6  C21 UNL     1      29.042   9.629  48.431  1.00  0.00     0.066 A 
ENDROOT
BRANCH   1   7
HETATM    7  O2  UNL     1      27.674  11.187  47.342  1.00  0.00    -0.330 OA
BRANCH   7   8
HETATM    8  C8  UNL     1      26.669  11.983  47.943  1.00  0.00     0.323 C 
BRANCH   8   9
HETATM    9  N2  UNL     1      25.760  11.225  48.720  1.00  0.00    -0.278 NA
BRANCH   9  10
HETATM   10  C7  UNL     1      25.446  10.049  48.336  1.00  0.00     0.107 C 
BRANCH  10  11
HETATM   11  C6  UNL     1      25.164   8.703  47.803  1.00  0.00     0.195 C 
BRANCH  11  12
HETATM   12  N1  UNL     1      26.342   7.856  47.783  1.00  0.00    -0.289 NA
HETATM   13  C5  UNL     1      26.218   6.687  48.347  1.00  0.00     0.035 A 
HETATM   14  C4  UNL     1      27.527   5.957  48.230  1.00  0.00     0.088 A 
HETATM   15  C22 UNL     1      25.049   6.109  49.000  1.00  0.00     0.066 A 
HETATM   16  C3  UNL     1      27.486   4.622  48.840  1.00  0.00     0.019 A 
HETATM   17  C2  UNL     1      26.402   4.157  49.413  1.00  0.00     0.098 A 
HETATM   18  C23 UNL     1      25.152   4.889  49.509  1.00  0.00     0.103 A 
BRANCH  17  19
HETATM   19  O1  UNL     1      26.431   2.873  49.975  1.00  0.00    -0.353 OA
HETATM   20  C1  UNL     1      26.746   2.622  51.320  1.00  0.00     0.210 C 
ENDBRANCH  17  19
BRANCH  18  21
HETATM   21  O4  UNL     1      24.013   4.393  50.114  1.00  0.00    -0.353 OA
HETATM   22  C24 UNL     1      23.584   4.711  51.407  1.00  0.00     0.210 C 
ENDBRANCH  18  21
ENDBRANCH  11  12
ENDBRANCH  10  11
ENDBRANCH   9  10
ENDBRANCH   8   9
ENDBRANCH   7   8
ENDBRANCH   1   7
BRANCH   5  23
HETATM   23  N3  UNL     1      30.591   8.027  49.638  1.00  0.00    -0.309 N 
HETATM   24  C14 UNL     1      31.319   7.230  48.717  1.00  0.00     0.325 C 
HETATM   25  O3  UNL     1      31.502   7.752  47.604  1.00  0.00    -0.247 OA
HETATM   26  N4  UNL     1      31.825   5.933  48.987  1.00  0.00    -0.309 N 
HETATM   27  H16 UNL     1      31.586   5.645  49.960  1.00  0.00     0.170 HD
HETATM   28  H15 UNL     1      30.408   7.625  50.603  1.00  0.00     0.170 HD
BRANCH  26  29
HETATM   29  C15 UNL     1      32.557   5.067  48.140  1.00  0.00     0.036 A 
HETATM   30  C16 UNL     1      33.910   4.944  48.074  1.00  0.00     0.029 A 
HETATM   31  C17 UNL     1      34.583   4.092  47.238  1.00  0.00     0.002 A 
HETATM   32  C18 UNL     1      33.843   3.284  46.388  1.00  0.00     0.000 A 
HETATM   33  C19 UNL     1      32.482   3.386  46.434  1.00  0.00     0.002 A 
HETATM   34  C20 UNL     1      31.863   4.263  47.296  1.00  0.00     0.029 A 
ENDBRANCH  26  29
ENDBRANCH   5  23
TORSDOF 10
ENDMDL
MODEL 9
REMARK VINA RESULT:      -7.5      2.543      4.155
REMARK  10 active torsions:
REMARK  status: ('A' for Active; 'I' for Inactive)
REMARK    1  A    between atoms: O1_2  and  C2_3 
REMARK    2  A    between atoms: N1_7  and  C6_8 
REMARK    3  A    between atoms: C6_8  and  C7_9 
REMARK    4  A    between atoms: C7_9  and  N2_10 
REMARK    5  A    between atoms: N2_10  and  C8_11 
REMARK    6  A    between atoms: C8_11  and  O2_12 
REMARK    7  A    between atoms: O2_12  and  C9_13 
REMARK    8  A    between atoms: C13_17  and  N3_18 
REMARK       I    between atoms: N3_18  and  C14_19 
REMARK       I    between atoms: C14_19  and  N4_21 
REMARK    9  A    between atoms: N4_21  and  C15_22 
REMARK   10  A    between atoms: C23_30  and  O4_31 
ROOT
HETATM    1  C9  UNL     1      22.385   4.447  49.255  1.00  0.00     0.073 A 
HETATM    2  C10 UNL     1      21.843   5.242  50.246  1.00  0.00     0.037 A 
HETATM    3  C11 UNL     1      22.712   5.840  51.135  1.00  0.00     0.005 A 
HETATM    4  C12 UNL     1      24.082   5.655  51.044  1.00  0.00     0.030 A 
HETATM    5  C13 UNL     1      24.593   4.843  50.027  1.00  0.00     0.039 A 
HETATM    6  C21 UNL     1      23.743   4.235  49.128  1.00  0.00     0.066 A 
ENDROOT
BRANCH   1   7
HETATM    7  O2  UNL     1      21.589   3.803  48.315  1.00  0.00    -0.330 OA
BRANCH   7   8
HETATM    8  C8  UNL     1      21.870   2.441  48.050  1.00  0.00     0.323 C 
BRANCH   8   9
HETATM    9  N2  UNL     1      21.194   1.560  48.928  1.00  0.00    -0.278 NA
BRANCH   9  10
HETATM   10  C7  UNL     1      21.701   1.315  50.074  1.00  0.00     0.107 C 
BRANCH  10  11
HETATM   11  C6  UNL     1      22.383   0.991  51.340  1.00  0.00     0.195 C 
BRANCH  11  12
HETATM   12  N1  UNL     1      23.726   1.536  51.401  1.00  0.00    -0.289 NA
HETATM   13  C5  UNL     1      24.512   1.028  52.310  1.00  0.00     0.035 A 
HETATM   14  C4  UNL     1      25.849   1.709  52.224  1.00  0.00     0.088 A 
HETATM   15  C22 UNL     1      24.223  -0.020  53.282  1.00  0.00     0.066 A 
HETATM   16  C3  UNL     1      26.807   1.202  53.214  1.00  0.00     0.019 A 
HETATM   17  C2  UNL     1      26.486   0.255  54.064  1.00  0.00     0.098 A 
HETATM   18  C23 UNL     1      25.183  -0.383  54.121  1.00  0.00     0.103 A 
BRANCH  17  19
HETATM   19  O1  UNL     1      27.449  -0.183  54.983  1.00  0.00    -0.353 OA
HETATM   20  C1  UNL     1      28.808   0.159  54.906  1.00  0.00     0.210 C 
ENDBRANCH  17  19
BRANCH  18  21
HETATM   21  O4  UNL     1      24.852  -1.380  55.018  1.00  0.00    -0.353 OA
HETATM   22  C24 UNL     1      23.679  -1.423  55.778  1.00  0.00     0.210 C 
ENDBRANCH  18  21
ENDBRANCH  11  12
ENDBRANCH  10  11
ENDBRANCH   9  10
ENDBRANCH   8   9
ENDBRANCH   7   8
ENDBRANCH   1   7
BRANCH   5  23
HETATM   23  N3  UNL     1      26.027   4.767  50.087  1.00  0.00    -0.309 N 
HETATM   24  C14 UNL     1      26.738   5.518  49.116  1.00  0.00     0.325 C 
HETATM   25  O3  UNL     1      26.025   6.158  48.324  1.00  0.00    -0.247 OA
HETATM   26  N4  UNL     1      28.150   5.577  49.006  1.00  0.00    -0.309 N 
HETATM   27  H16 UNL     1      28.596   4.987  49.742  1.00  0.00     0.170 HD
HETATM   28  H15 UNL     1      26.592   4.204  50.787  1.00  0.00     0.170 HD
BRANCH  26  29
HETATM   29  C15 UNL     1      28.945   6.292  48.079  1.00  0.00     0.036 A 
HETATM   30  C16 UNL     1      28.544   7.319  47.284  1.00  0.00     0.029 A 
HETATM   31  C17 UNL     1      29.346   7.988  46.396  1.00  0.00     0.002 A 
HETATM   32  C18 UNL     1      30.674   7.600  46.288  1.00  0.00     0.000 A 
HETATM   33  C19 UNL     1      31.104   6.571  47.077  1.00  0.00     0.002 A 
HETATM   34  C20 UNL     1      30.249   5.938  47.950  1.00  0.00     0.029 A 
ENDBRANCH  26  29
ENDBRANCH   5  23
TORSDOF 10
ENDMDL
