MODEL 1
REMARK VINA RESULT:      -7.6      0.000      0.000
REMARK  7 active torsions:
REMARK  status: ('A' for Active; 'I' for Inactive)
REMARK    1  A    between atoms: C7_8  and  N1_9 
REMARK    2  A    between atoms: N1_9  and  C8_10 
REMARK    3  A    between atoms: C8_10  and  C9_11 
REMARK    4  A    between atoms: N3_15  and  C12_16 
REMARK    5  A    between atoms: C13_17  and  C14_18 
REMARK       I    between atoms: C14_18  and  N4_20 
REMARK    6  A    between atoms: N4_20  and  C16_22 
REMARK    7  A    between atoms: C16_22  and  C18_24 
ROOT
HETATM    1  C9  UNL     1      26.018   3.924  49.727  1.00  0.00     0.052 A 
HETATM    2  C10 UNL     1      26.421   5.181  49.345  1.00  0.00     0.145 A 
HETATM    3  N2  UNL     1      25.373   5.883  48.876  1.00  0.00    -0.254 NA
HETATM    4  C11 UNL     1      24.300   5.070  48.962  1.00  0.00     0.213 A 
HETATM    5  N3  UNL     1      24.682   3.868  49.482  1.00  0.00    -0.317 N 
ENDROOT
BRANCH   1   6
HETATM    6  C8  UNL     1      26.610   2.691  50.288  1.00  0.00     0.179 C 
BRANCH   6   7
HETATM    7  N1  UNL     1      26.645   2.653  51.732  1.00  0.00    -0.384 N 
HETATM    8  H7  UNL     1      25.918   3.286  52.163  1.00  0.00     0.160 HD
BRANCH   7   9
HETATM    9  C7  UNL     1      27.446   1.945  52.658  1.00  0.00     0.037 A 
HETATM   10  C2  UNL     1      27.269   0.568  52.851  1.00  0.00    -0.035 A 
HETATM   11  C1  UNL     1      26.229  -0.149  52.059  1.00  0.00     0.050 C 
HETATM   12  C3  UNL     1      28.051  -0.098  53.762  1.00  0.00     0.012 A 
HETATM   13  C4  UNL     1      29.019   0.539  54.506  1.00  0.00     0.043 A 
HETATM   14  C5  UNL     1      29.230   1.893  54.352  1.00  0.00     0.118 A 
HETATM   15  F1  UNL     1      30.174   2.547  55.070  1.00  0.00    -0.206 F 
HETATM   16  C6  UNL     1      28.427   2.528  53.430  1.00  0.00     0.072 A 
ENDBRANCH   7   9
ENDBRANCH   6   7
ENDBRANCH   1   6
BRANCH   5  17
HETATM   17  C12 UNL     1      23.631   2.928  49.619  1.00  0.00     0.103 C 
HETATM   18  C13 UNL     1      22.981   2.147  50.439  1.00  0.00     0.092 C 
BRANCH  18  19
HETATM   19  C14 UNL     1      23.059   1.831  51.853  1.00  0.00     0.244 C 
HETATM   20  O1  UNL     1      23.777   2.250  52.797  1.00  0.00    -0.268 OA
HETATM   21  N4  UNL     1      22.192   0.856  52.420  1.00  0.00    -0.346 N 
HETATM   22  C15 UNL     1      21.230   0.191  51.534  1.00  0.00     0.153 C 
BRANCH  21  23
HETATM   23  C16 UNL     1      22.131   0.426  53.776  1.00  0.00     0.111 C 
HETATM   24  C17 UNL     1      20.682   0.288  54.186  1.00  0.00     0.035 C 
BRANCH  23  25
HETATM   25  C18 UNL     1      22.823  -0.887  54.057  1.00  0.00     0.247 C 
HETATM   26  F2  UNL     1      22.830  -1.240  55.372  1.00  0.00    -0.253 F 
ENDBRANCH  23  25
ENDBRANCH  21  23
ENDBRANCH  18  19
ENDBRANCH   5  17
TORSDOF 7
ENDMDL
MODEL 2
REMARK VINA RESULT:      -7.6      2.648      4.890
REMARK  7 active torsions:
REMARK  status: ('A' for Active; 'I' for Inactive)
REMARK    1  A    between atoms: C7_8  and  N1_9 
REMARK    2  A    between atoms: N1_9  and  C8_10 
REMARK    3  A    between atoms: C8_10  and  C9_11 
REMARK    4  A    between atoms: N3_15  and  C12_16 
REMARK    5  A    between atoms: C13_17  and  C14_18 
REMARK       I    between atoms: C14_18  and  N4_20 
REMARK    6  A    between atoms: N4_20  and  C16_22 
REMARK    7  A    between atoms: C16_22  and  C18_24 
ROOT
HETATM    1  C9  UNL     1      23.234  -0.605  53.920  1.00  0.00     0.052 A 
HETATM    2  C10 UNL     1      23.046  -1.309  55.085  1.00  0.00     0.145 A 
HETATM    3  N2  UNL     1      21.782  -1.767  55.153  1.00  0.00    -0.254 NA
HETATM    4  C11 UNL     1      21.166  -1.353  54.027  1.00  0.00     0.213 A 
HETATM    5  N3  UNL     1      22.045  -0.641  53.264  1.00  0.00    -0.317 N 
ENDROOT
BRANCH   1   6
HETATM    6  C8  UNL     1      24.311   0.143  53.236  1.00  0.00     0.179 C 
BRANCH   6   7
HETATM    7  N1  UNL     1      25.549  -0.589  53.102  1.00  0.00    -0.384 N 
HETATM    8  H7  UNL     1      25.387  -1.593  52.816  1.00  0.00     0.160 HD
BRANCH   7   9
HETATM    9  C7  UNL     1      26.906  -0.228  53.274  1.00  0.00     0.037 A 
HETATM   10  C2  UNL     1      27.925  -1.176  53.110  1.00  0.00    -0.035 A 
HETATM   11  C1  UNL     1      27.563  -2.575  52.741  1.00  0.00     0.050 C 
HETATM   12  C3  UNL     1      29.235  -0.807  53.291  1.00  0.00     0.012 A 
HETATM   13  C4  UNL     1      29.597   0.477  53.631  1.00  0.00     0.043 A 
HETATM   14  C5  UNL     1      28.630   1.446  53.804  1.00  0.00     0.118 A 
HETATM   15  F1  UNL     1      28.956   2.716  54.140  1.00  0.00    -0.206 F 
HETATM   16  C6  UNL     1      27.328   1.039  53.615  1.00  0.00     0.072 A 
ENDBRANCH   7   9
ENDBRANCH   6   7
ENDBRANCH   1   6
BRANCH   5  17
HETATM   17  C12 UNL     1      21.504  -0.153  52.049  1.00  0.00     0.103 C 
HETATM   18  C13 UNL     1      21.555   0.788  51.145  1.00  0.00     0.092 C 
BRANCH  18  19
HETATM   19  C14 UNL     1      22.341   1.991  50.942  1.00  0.00     0.244 C 
HETATM   20  O1  UNL     1      23.399   2.240  50.310  1.00  0.00    -0.268 OA
HETATM   21  N4  UNL     1      21.934   3.221  51.531  1.00  0.00    -0.346 N 
HETATM   22  C15 UNL     1      20.708   3.227  52.338  1.00  0.00     0.153 C 
BRANCH  21  23
HETATM   23  C16 UNL     1      22.577   4.487  51.436  1.00  0.00     0.111 C 
HETATM   24  C17 UNL     1      21.533   5.557  51.203  1.00  0.00     0.035 C 
BRANCH  23  25
HETATM   25  C18 UNL     1      23.386   4.881  52.650  1.00  0.00     0.247 C 
HETATM   26  F2  UNL     1      24.019   3.840  53.257  1.00  0.00    -0.253 F 
ENDBRANCH  23  25
ENDBRANCH  21  23
ENDBRANCH  18  19
ENDBRANCH   5  17
TORSDOF 7
ENDMDL
MODEL 3
REMARK VINA RESULT:      -7.5      2.481      5.440
REMARK  7 active torsions:
REMARK  status: ('A' for Active; 'I' for Inactive)
REMARK    1  A    between atoms: C7_8  and  N1_9 
REMARK    2  A    between atoms: N1_9  and  C8_10 
REMARK    3  A    between atoms: C8_10  and  C9_11 
REMARK    4  A    between atoms: N3_15  and  C12_16 
REMARK    5  A    between atoms: C13_17  and  C14_18 
REMARK       I    between atoms: C14_18  and  N4_20 
REMARK    6  A    between atoms: N4_20  and  C16_22 
REMARK    7  A    between atoms: C16_22  and  C18_24 
ROOT
HETATM    1  C9  UNL     1      23.061   3.304  50.927  1.00  0.00     0.052 A 
HETATM    2  C10 UNL     1      22.464   4.394  50.341  1.00  0.00     0.145 A 
HETATM    3  N2  UNL     1      22.655   5.491  51.098  1.00  0.00    -0.254 NA
HETATM    4  C11 UNL     1      23.376   5.096  52.167  1.00  0.00     0.213 A 
HETATM    5  N3  UNL     1      23.632   3.759  52.074  1.00  0.00    -0.317 N 
ENDROOT
BRANCH   1   6
HETATM    6  C8  UNL     1      23.231   1.858  50.668  1.00  0.00     0.179 C 
BRANCH   6   7
HETATM    7  N1  UNL     1      22.135   1.039  51.132  1.00  0.00    -0.384 N 
HETATM    8  H7  UNL     1      21.329   1.033  50.449  1.00  0.00     0.160 HD
BRANCH   7   9
HETATM    9  C7  UNL     1      21.939   0.260  52.296  1.00  0.00     0.037 A 
HETATM   10  C2  UNL     1      20.652  -0.136  52.683  1.00  0.00    -0.035 A 
HETATM   11  C1  UNL     1      19.485   0.267  51.846  1.00  0.00     0.050 C 
HETATM   12  C3  UNL     1      20.482  -0.884  53.822  1.00  0.00     0.012 A 
HETATM   13  C4  UNL     1      21.541  -1.269  54.613  1.00  0.00     0.043 A 
HETATM   14  C5  UNL     1      22.827  -0.904  54.274  1.00  0.00     0.118 A 
HETATM   15  F1  UNL     1      23.888  -1.267  55.032  1.00  0.00    -0.206 F 
HETATM   16  C6  UNL     1      22.958  -0.153  53.126  1.00  0.00     0.072 A 
ENDBRANCH   7   9
ENDBRANCH   6   7
ENDBRANCH   1   6
BRANCH   5  17
HETATM   17  C12 UNL     1      24.387   3.230  53.149  1.00  0.00     0.103 C 
HETATM   18  C13 UNL     1      25.367   2.440  53.494  1.00  0.00     0.092 C 
BRANCH  18  19
HETATM   19  C14 UNL     1      26.303   1.580  52.793  1.00  0.00     0.244 C 
HETATM   20  O1  UNL     1      26.707   1.525  51.604  1.00  0.00    -0.268 OA
HETATM   21  N4  UNL     1      26.977   0.536  53.487  1.00  0.00    -0.346 N 
HETATM   22  C15 UNL     1      26.695   0.365  54.917  1.00  0.00     0.153 C 
BRANCH  21  23
HETATM   23  C16 UNL     1      27.921  -0.392  52.962  1.00  0.00     0.111 C 
HETATM   24  C17 UNL     1      29.080  -0.517  53.926  1.00  0.00     0.035 C 
BRANCH  23  25
HETATM   25  C18 UNL     1      27.374  -1.777  52.708  1.00  0.00     0.247 C 
HETATM   26  F2  UNL     1      26.043  -1.806  52.427  1.00  0.00    -0.253 F 
ENDBRANCH  23  25
ENDBRANCH  21  23
ENDBRANCH  18  19
ENDBRANCH   5  17
TORSDOF 7
ENDMDL
MODEL 4
REMARK VINA RESULT:      -7.5      2.280      6.088
REMARK  7 active torsions:
REMARK  status: ('A' for Active; 'I' for Inactive)
REMARK    1  A    between atoms: C7_8  and  N1_9 
REMARK    2  A    between atoms: N1_9  and  C8_10 
REMARK    3  A    between atoms: C8_10  and  C9_11 
REMARK    4  A    between atoms: N3_15  and  C12_16 
REMARK    5  A    between atoms: C13_17  and  C14_18 
REMARK       I    between atoms: C14_18  and  N4_20 
REMARK    6  A    between atoms: N4_20  and  C16_22 
REMARK    7  A    between atoms: C16_22  and  C18_24 
ROOT
HETATM    1  C9  UNL     1      23.099   1.613  52.417  1.00  0.00     0.052 A 
HETATM    2  C10 UNL     1      21.816   2.103  52.378  1.00  0.00     0.145 A 
HETATM    3  N2  UNL     1      21.004   1.338  53.131  1.00  0.00    -0.254 NA
HETATM    4  C11 UNL     1      21.774   0.360  53.650  1.00  0.00     0.213 A 
HETATM    5  N3  UNL     1      23.059   0.518  53.221  1.00  0.00    -0.317 N 
ENDROOT
BRANCH   1   6
HETATM    6  C8  UNL     1      24.426   1.931  51.847  1.00  0.00     0.179 C 
BRANCH   6   7
HETATM    7  N1  UNL     1      24.378   2.651  50.595  1.00  0.00    -0.384 N 
HETATM    8  H7  UNL     1      23.641   2.265  49.945  1.00  0.00     0.160 HD
BRANCH   7   9
HETATM    9  C7  UNL     1      25.110   3.749  50.086  1.00  0.00     0.037 A 
HETATM   10  C2  UNL     1      24.610   5.053  50.195  1.00  0.00    -0.035 A 
HETATM   11  C1  UNL     1      23.296   5.274  50.865  1.00  0.00     0.050 C 
HETATM   12  C3  UNL     1      25.332   6.104  49.685  1.00  0.00     0.012 A 
HETATM   13  C4  UNL     1      26.547   5.929  49.062  1.00  0.00     0.043 A 
HETATM   14  C5  UNL     1      27.081   4.663  48.931  1.00  0.00     0.118 A 
HETATM   15  F1  UNL     1      28.273   4.459  48.322  1.00  0.00    -0.206 F 
HETATM   16  C6  UNL     1      26.328   3.634  49.453  1.00  0.00     0.072 A 
ENDBRANCH   7   9
ENDBRANCH   6   7
ENDBRANCH   1   6
BRANCH   5  17
HETATM   17  C12 UNL     1      23.963  -0.458  53.706  1.00  0.00     0.103 C 
HETATM   18  C13 UNL     1      25.141  -0.675  54.225  1.00  0.00     0.092 C 
BRANCH  18  19
HETATM   19  C14 UNL     1      26.273   0.148  54.613  1.00  0.00     0.244 C 
HETATM   20  O1  UNL     1      26.458   0.994  55.523  1.00  0.00    -0.268 OA
HETATM   21  N4  UNL     1      27.495   0.074  53.888  1.00  0.00    -0.346 N 
HETATM   22  C15 UNL     1      27.568  -0.852  52.752  1.00  0.00     0.153 C 
BRANCH  21  23
HETATM   23  C16 UNL     1      28.696   0.800  54.128  1.00  0.00     0.111 C 
HETATM   24  C17 UNL     1      29.869   0.009  53.592  1.00  0.00     0.035 C 
BRANCH  23  25
HETATM   25  C18 UNL     1      28.740   2.177  53.508  1.00  0.00     0.247 C 
HETATM   26  F2  UNL     1      27.666   2.467  52.723  1.00  0.00    -0.253 F 
ENDBRANCH  23  25
ENDBRANCH  21  23
ENDBRANCH  18  19
ENDBRANCH   5  17
TORSDOF 7
ENDMDL
MODEL 5
REMARK VINA RESULT:      -7.4      3.004      5.328
REMARK  7 active torsions:
REMARK  status: ('A' for Active; 'I' for Inactive)
REMARK    1  A    between atoms: C7_8  and  N1_9 
REMARK    2  A    between atoms: N1_9  and  C8_10 
REMARK    3  A    between atoms: C8_10  and  C9_11 
REMARK    4  A    between atoms: N3_15  and  C12_16 
REMARK    5  A    between atoms: C13_17  and  C14_18 
REMARK       I    between atoms: C14_18  and  N4_20 
REMARK    6  A    between atoms: N4_20  and  C16_22 
REMARK    7  A    between atoms: C16_22  and  C18_24 
ROOT
HETATM    1  C9  UNL     1      23.961  -0.475  53.856  1.00  0.00     0.052 A 
HETATM    2  C10 UNL     1      24.122  -1.090  55.075  1.00  0.00     0.145 A 
HETATM    3  N2  UNL     1      22.938  -1.544  55.526  1.00  0.00    -0.254 NA
HETATM    4  C11 UNL     1      22.022  -1.217  54.591  1.00  0.00     0.213 A 
HETATM    5  N3  UNL     1      22.637  -0.563  53.564  1.00  0.00    -0.317 N 
ENDROOT
BRANCH   1   6
HETATM    6  C8  UNL     1      24.787   0.222  52.847  1.00  0.00     0.179 C 
BRANCH   6   7
HETATM    7  N1  UNL     1      26.057   0.697  53.344  1.00  0.00    -0.384 N 
HETATM    8  H7  UNL     1      25.981   1.663  53.765  1.00  0.00     0.160 HD
BRANCH   7   9
HETATM    9  C7  UNL     1      27.353   0.131  53.376  1.00  0.00     0.037 A 
HETATM   10  C2  UNL     1      28.486   0.946  53.495  1.00  0.00    -0.035 A 
HETATM   11  C1  UNL     1      28.312   2.423  53.597  1.00  0.00     0.050 C 
HETATM   12  C3  UNL     1      29.736   0.376  53.516  1.00  0.00     0.012 A 
HETATM   13  C4  UNL     1      29.925  -0.984  53.424  1.00  0.00     0.043 A 
HETATM   14  C5  UNL     1      28.840  -1.828  53.305  1.00  0.00     0.118 A 
HETATM   15  F1  UNL     1      28.995  -3.170  53.212  1.00  0.00    -0.206 F 
HETATM   16  C6  UNL     1      27.603  -1.221  53.287  1.00  0.00     0.072 A 
ENDBRANCH   7   9
ENDBRANCH   6   7
ENDBRANCH   1   6
BRANCH   5  17
HETATM   17  C12 UNL     1      21.768  -0.168  52.517  1.00  0.00     0.103 C 
HETATM   18  C13 UNL     1      21.107   0.819  51.976  1.00  0.00     0.092 C 
BRANCH  18  19
HETATM   19  C14 UNL     1      20.932   2.231  52.262  1.00  0.00     0.244 C 
HETATM   20  O1  UNL     1      20.121   2.879  52.971  1.00  0.00    -0.268 OA
HETATM   21  N4  UNL     1      21.802   3.194  51.678  1.00  0.00    -0.346 N 
HETATM   22  C15 UNL     1      22.866   2.713  50.790  1.00  0.00     0.153 C 
BRANCH  21  23
HETATM   23  C16 UNL     1      21.778   4.607  51.849  1.00  0.00     0.111 C 
HETATM   24  C17 UNL     1      23.197   5.115  51.977  1.00  0.00     0.035 C 
BRANCH  23  25
HETATM   25  C18 UNL     1      21.108   5.371  50.730  1.00  0.00     0.247 C 
HETATM   26  F2  UNL     1      21.909   5.589  49.651  1.00  0.00    -0.253 F 
ENDBRANCH  23  25
ENDBRANCH  21  23
ENDBRANCH  18  19
ENDBRANCH   5  17
TORSDOF 7
ENDMDL
MODEL 6
REMARK VINA RESULT:      -7.4      1.582      2.112
REMARK  7 active torsions:
REMARK  status: ('A' for Active; 'I' for Inactive)
REMARK    1  A    between atoms: C7_8  and  N1_9 
REMARK    2  A    between atoms: N1_9  and  C8_10 
REMARK    3  A    between atoms: C8_10  and  C9_11 
REMARK    4  A    between atoms: N3_15  and  C12_16 
REMARK    5  A    between atoms: C13_17  and  C14_18 
REMARK       I    between atoms: C14_18  and  N4_20 
REMARK    6  A    between atoms: N4_20  and  C16_22 
REMARK    7  A    between atoms: C16_22  and  C18_24 
ROOT
HETATM    1  C9  UNL     1      25.557   4.083  50.160  1.00  0.00     0.052 A 
HETATM    2  C10 UNL     1      25.630   5.451  50.054  1.00  0.00     0.145 A 
HETATM    3  N2  UNL     1      24.398   5.973  49.906  1.00  0.00    -0.254 NA
HETATM    4  C11 UNL     1      23.539   4.933  49.919  1.00  0.00     0.213 A 
HETATM    5  N3  UNL     1      24.237   3.770  50.074  1.00  0.00    -0.317 N 
ENDROOT
BRANCH   1   6
HETATM    6  C8  UNL     1      26.470   2.931  50.321  1.00  0.00     0.179 C 
BRANCH   6   7
HETATM    7  N1  UNL     1      26.557   2.427  51.672  1.00  0.00    -0.384 N 
HETATM    8  H7  UNL     1      26.150   3.104  52.374  1.00  0.00     0.160 HD
BRANCH   7   9
HETATM    9  C7  UNL     1      27.069   1.229  52.223  1.00  0.00     0.037 A 
HETATM   10  C2  UNL     1      28.102   1.261  53.168  1.00  0.00    -0.035 A 
HETATM   11  C1  UNL     1      28.654   2.579  53.598  1.00  0.00     0.050 C 
HETATM   12  C3  UNL     1      28.591   0.086  53.684  1.00  0.00     0.012 A 
HETATM   13  C4  UNL     1      28.101  -1.143  53.305  1.00  0.00     0.043 A 
HETATM   14  C5  UNL     1      27.084  -1.227  52.377  1.00  0.00     0.118 A 
HETATM   15  F1  UNL     1      26.581  -2.421  51.984  1.00  0.00    -0.206 F 
HETATM   16  C6  UNL     1      26.619  -0.027  51.882  1.00  0.00     0.072 A 
ENDBRANCH   7   9
ENDBRANCH   6   7
ENDBRANCH   1   6
BRANCH   5  17
HETATM   17  C12 UNL     1      23.433   2.604  50.103  1.00  0.00     0.103 C 
HETATM   18  C13 UNL     1      22.940   1.650  50.845  1.00  0.00     0.092 C 
BRANCH  18  19
HETATM   19  C14 UNL     1      23.008   1.287  52.249  1.00  0.00     0.244 C 
HETATM   20  O1  UNL     1      23.813   1.556  53.176  1.00  0.00    -0.268 OA
HETATM   21  N4  UNL     1      22.008   0.454  52.823  1.00  0.00    -0.346 N 
HETATM   22  C15 UNL     1      20.922  -0.017  51.957  1.00  0.00     0.153 C 
BRANCH  21  23
HETATM   23  C16 UNL     1      21.917   0.004  54.171  1.00  0.00     0.111 C 
HETATM   24  C17 UNL     1      20.601   0.464  54.759  1.00  0.00     0.035 C 
BRANCH  23  25
HETATM   25  C18 UNL     1      22.009  -1.494  54.348  1.00  0.00     0.247 C 
HETATM   26  F2  UNL     1      22.826  -1.883  55.364  1.00  0.00    -0.253 F 
ENDBRANCH  23  25
ENDBRANCH  21  23
ENDBRANCH  18  19
ENDBRANCH   5  17
TORSDOF 7
ENDMDL
MODEL 7
REMARK VINA RESULT:      -7.3      2.754      6.006
REMARK  7 active torsions:
REMARK  status: ('A' for Active; 'I' for Inactive)
REMARK    1  A    between atoms: C7_8  and  N1_9 
REMARK    2  A    between atoms: N1_9  and  C8_10 
REMARK    3  A    between atoms: C8_10  and  C9_11 
REMARK    4  A    between atoms: N3_15  and  C12_16 
REMARK    5  A    between atoms: C13_17  and  C14_18 
REMARK       I    between atoms: C14_18  and  N4_20 
REMARK    6  A    between atoms: N4_20  and  C16_22 
REMARK    7  A    between atoms: C16_22  and  C18_24 
ROOT
HETATM    1  C9  UNL     1      26.922   0.319  53.659  1.00  0.00     0.052 A 
HETATM    2  C10 UNL     1      27.873   0.203  54.644  1.00  0.00     0.145 A 
HETATM    3  N2  UNL     1      28.800   1.170  54.510  1.00  0.00    -0.254 NA
HETATM    4  C11 UNL     1      28.437   1.902  53.438  1.00  0.00     0.213 A 
HETATM    5  N3  UNL     1      27.288   1.391  52.908  1.00  0.00    -0.317 N 
ENDROOT
BRANCH   1   6
HETATM    6  C8  UNL     1      25.692  -0.372  53.217  1.00  0.00     0.179 C 
BRANCH   6   7
HETATM    7  N1  UNL     1      24.467   0.287  53.609  1.00  0.00    -0.384 N 
HETATM    8  H7  UNL     1      24.645   1.251  54.003  1.00  0.00     0.160 HD
BRANCH   7   9
HETATM    9  C7  UNL     1      23.107  -0.099  53.564  1.00  0.00     0.037 A 
HETATM   10  C2  UNL     1      22.570  -0.936  54.551  1.00  0.00    -0.035 A 
HETATM   11  C1  UNL     1      23.447  -1.410  55.659  1.00  0.00     0.050 C 
HETATM   12  C3  UNL     1      21.249  -1.307  54.484  1.00  0.00     0.012 A 
HETATM   13  C4  UNL     1      20.416  -0.884  53.472  1.00  0.00     0.043 A 
HETATM   14  C5  UNL     1      20.900  -0.059  52.478  1.00  0.00     0.118 A 
HETATM   15  F1  UNL     1      20.106   0.372  51.470  1.00  0.00    -0.206 F 
HETATM   16  C6  UNL     1      22.229   0.291  52.578  1.00  0.00     0.072 A 
ENDBRANCH   7   9
ENDBRANCH   6   7
ENDBRANCH   1   6
BRANCH   5  17
HETATM   17  C12 UNL     1      26.808   2.084  51.770  1.00  0.00     0.103 C 
HETATM   18  C13 UNL     1      25.842   2.809  51.275  1.00  0.00     0.092 C 
BRANCH  18  19
HETATM   19  C14 UNL     1      24.579   3.331  51.765  1.00  0.00     0.244 C 
HETATM   20  O1  UNL     1      24.052   3.396  52.904  1.00  0.00    -0.268 OA
HETATM   21  N4  UNL     1      23.650   3.923  50.865  1.00  0.00    -0.346 N 
HETATM   22  C15 UNL     1      24.010   3.986  49.444  1.00  0.00     0.153 C 
BRANCH  21  23
HETATM   23  C16 UNL     1      22.377   4.483  51.171  1.00  0.00     0.111 C 
HETATM   24  C17 UNL     1      22.148   5.699  50.300  1.00  0.00     0.035 C 
BRANCH  23  25
HETATM   25  C18 UNL     1      21.208   3.545  50.978  1.00  0.00     0.247 C 
HETATM   26  F2  UNL     1      20.533   3.256  52.124  1.00  0.00    -0.253 F 
ENDBRANCH  23  25
ENDBRANCH  21  23
ENDBRANCH  18  19
ENDBRANCH   5  17
TORSDOF 7
ENDMDL
MODEL 8
REMARK VINA RESULT:      -7.2      2.549      5.384
REMARK  7 active torsions:
REMARK  status: ('A' for Active; 'I' for Inactive)
REMARK    1  A    between atoms: C7_8  and  N1_9 
REMARK    2  A    between atoms: N1_9  and  C8_10 
REMARK    3  A    between atoms: C8_10  and  C9_11 
REMARK    4  A    between atoms: N3_15  and  C12_16 
REMARK    5  A    between atoms: C13_17  and  C14_18 
REMARK       I    between atoms: C14_18  and  N4_20 
REMARK    6  A    between atoms: N4_20  and  C16_22 
REMARK    7  A    between atoms: C16_22  and  C18_24 
ROOT
HETATM    1  C9  UNL     1      23.793   0.558  53.196  1.00  0.00     0.052 A 
HETATM    2  C10 UNL     1      23.607  -0.735  53.622  1.00  0.00     0.145 A 
HETATM    3  N2  UNL     1      22.350  -1.136  53.356  1.00  0.00    -0.254 NA
HETATM    4  C11 UNL     1      21.736  -0.095  52.757  1.00  0.00     0.213 A 
HETATM    5  N3  UNL     1      22.609   0.948  52.654  1.00  0.00    -0.317 N 
ENDROOT
BRANCH   1   6
HETATM    6  C8  UNL     1      24.863   1.578  53.179  1.00  0.00     0.179 C 
BRANCH   6   7
HETATM    7  N1  UNL     1      26.050   1.183  52.456  1.00  0.00    -0.384 N 
HETATM    8  H7  UNL     1      26.061   1.568  51.473  1.00  0.00     0.160 HD
BRANCH   7   9
HETATM    9  C7  UNL     1      27.174   0.398  52.804  1.00  0.00     0.037 A 
HETATM   10  C2  UNL     1      28.337   0.999  53.305  1.00  0.00    -0.035 A 
HETATM   11  C1  UNL     1      28.374   2.480  53.476  1.00  0.00     0.050 C 
HETATM   12  C3  UNL     1      29.421   0.221  53.628  1.00  0.00     0.012 A 
HETATM   13  C4  UNL     1      29.414  -1.148  53.480  1.00  0.00     0.043 A 
HETATM   14  C5  UNL     1      28.292  -1.786  52.991  1.00  0.00     0.118 A 
HETATM   15  F1  UNL     1      28.256  -3.130  52.834  1.00  0.00    -0.206 F 
HETATM   16  C6  UNL     1      27.225  -0.972  52.677  1.00  0.00     0.072 A 
ENDBRANCH   7   9
ENDBRANCH   6   7
ENDBRANCH   1   6
BRANCH   5  17
HETATM   17  C12 UNL     1      22.071   2.104  52.037  1.00  0.00     0.103 C 
HETATM   18  C13 UNL     1      22.325   3.297  51.570  1.00  0.00     0.092 C 
BRANCH  18  19
HETATM   19  C14 UNL     1      23.504   4.136  51.452  1.00  0.00     0.244 C 
HETATM   20  O1  UNL     1      24.037   4.993  52.202  1.00  0.00    -0.268 OA
HETATM   21  N4  UNL     1      24.318   4.070  50.287  1.00  0.00    -0.346 N 
HETATM   22  C15 UNL     1      23.928   3.135  49.226  1.00  0.00     0.153 C 
BRANCH  21  23
HETATM   23  C16 UNL     1      25.500   4.812  50.007  1.00  0.00     0.111 C 
HETATM   24  C17 UNL     1      26.623   3.851  49.683  1.00  0.00     0.035 C 
BRANCH  23  25
HETATM   25  C18 UNL     1      25.379   5.790  48.862  1.00  0.00     0.247 C 
HETATM   26  F2  UNL     1      26.551   6.034  48.214  1.00  0.00    -0.253 F 
ENDBRANCH  23  25
ENDBRANCH  21  23
ENDBRANCH  18  19
ENDBRANCH   5  17
TORSDOF 7
ENDMDL
MODEL 9
REMARK VINA RESULT:      -7.2      2.149      2.715
REMARK  7 active torsions:
REMARK  status: ('A' for Active; 'I' for Inactive)
REMARK    1  A    between atoms: C7_8  and  N1_9 
REMARK    2  A    between atoms: N1_9  and  C8_10 
REMARK    3  A    between atoms: C8_10  and  C9_11 
REMARK    4  A    between atoms: N3_15  and  C12_16 
REMARK    5  A    between atoms: C13_17  and  C14_18 
REMARK       I    between atoms: C14_18  and  N4_20 
REMARK    6  A    between atoms: N4_20  and  C16_22 
REMARK    7  A    between atoms: C16_22  and  C18_24 
ROOT
HETATM    1  C9  UNL     1      26.365   4.128  49.752  1.00  0.00     0.052 A 
HETATM    2  C10 UNL     1      27.335   4.597  48.900  1.00  0.00     0.145 A 
HETATM    3  N2  UNL     1      27.148   5.908  48.659  1.00  0.00    -0.254 NA
HETATM    4  C11 UNL     1      26.055   6.273  49.361  1.00  0.00     0.213 A 
HETATM    5  N3  UNL     1      25.567   5.191  50.034  1.00  0.00    -0.317 N 
ENDROOT
BRANCH   1   6
HETATM    6  C8  UNL     1      25.973   2.855  50.395  1.00  0.00     0.179 C 
BRANCH   6   7
HETATM    7  N1  UNL     1      26.704   2.551  51.603  1.00  0.00    -0.384 N 
HETATM    8  H7  UNL     1      26.962   3.423  52.141  1.00  0.00     0.160 HD
BRANCH   7   9
HETATM    9  C7  UNL     1      27.129   1.338  52.194  1.00  0.00     0.037 A 
HETATM   10  C2  UNL     1      28.130   1.332  53.174  1.00  0.00    -0.035 A 
HETATM   11  C1  UNL     1      28.740   2.625  53.598  1.00  0.00     0.050 C 
HETATM   12  C3  UNL     1      28.535   0.142  53.727  1.00  0.00     0.012 A 
HETATM   13  C4  UNL     1      27.989  -1.066  53.355  1.00  0.00     0.043 A 
HETATM   14  C5  UNL     1      27.001  -1.111  52.394  1.00  0.00     0.118 A 
HETATM   15  F1  UNL     1      26.446  -2.284  52.006  1.00  0.00    -0.206 F 
HETATM   16  C6  UNL     1      26.621   0.101  51.861  1.00  0.00     0.072 A 
ENDBRANCH   7   9
ENDBRANCH   6   7
ENDBRANCH   1   6
BRANCH   5  17
HETATM   17  C12 UNL     1      24.412   5.457  50.811  1.00  0.00     0.103 C 
HETATM   18  C13 UNL     1      23.574   4.987  51.695  1.00  0.00     0.092 C 
BRANCH  18  19
HETATM   19  C14 UNL     1      23.420   3.739  52.419  1.00  0.00     0.244 C 
HETATM   20  O1  UNL     1      24.109   3.151  53.291  1.00  0.00    -0.268 OA
HETATM   21  N4  UNL     1      22.289   2.909  52.185  1.00  0.00    -0.346 N 
HETATM   22  C15 UNL     1      21.298   3.355  51.199  1.00  0.00     0.153 C 
BRANCH  21  23
HETATM   23  C16 UNL     1      21.979   1.663  52.801  1.00  0.00     0.111 C 
HETATM   24  C17 UNL     1      20.480   1.558  52.980  1.00  0.00     0.035 C 
BRANCH  23  25
HETATM   25  C18 UNL     1      22.445   0.444  52.039  1.00  0.00     0.247 C 
HETATM   26  F2  UNL     1      21.608   0.064  51.036  1.00  0.00    -0.253 F 
ENDBRANCH  23  25
ENDBRANCH  21  23
ENDBRANCH  18  19
ENDBRANCH   5  17
TORSDOF 7
ENDMDL
