MODEL 1
REMARK VINA RESULT:      -8.8      0.000      0.000
REMARK  0 active torsions:
REMARK  status: ('A' for Active; 'I' for Inactive)
ROOT
HETATM    1  C1  UNL     1      24.740   8.353  50.086  1.00  0.00     0.012 C 
HETATM    2  C2  UNL     1      24.903   6.928  50.612  1.00  0.00     0.011 C 
HETATM    3  C3  UNL     1      24.008   6.744  51.713  1.00  0.00     0.146 C 
HETATM    4  N1  UNL     1      23.754   5.492  52.320  1.00  0.00    -0.312 N 
HETATM    5  N2  UNL     1      23.873   4.225  52.836  1.00  0.00    -0.166 NA
HETATM    6  C4  UNL     1      23.444   3.251  52.016  1.00  0.00     0.124 C 
HETATM    7  C5  UNL     1      23.003   3.975  50.835  1.00  0.00     0.081 C 
HETATM    8  C6  UNL     1      23.828   3.597  49.635  1.00  0.00    -0.015 C 
HETATM    9  C7  UNL     1      24.635   4.612  49.210  1.00  0.00     0.030 A 
HETATM   10  C8  UNL     1      25.094   6.082  49.461  1.00  0.00    -0.017 A 
HETATM   11  C9  UNL     1      25.490   5.323  48.542  1.00  0.00     0.023 A 
HETATM   12  C10 UNL     1      26.926   5.045  48.931  1.00  0.00     0.181 C 
HETATM   13  N3  UNL     1      27.059   3.630  49.367  1.00  0.00    -0.175 NA
HETATM   14  N4  UNL     1      26.859   3.572  50.638  1.00  0.00    -0.073 NA
HETATM   15  N5  UNL     1      26.845   2.609  51.550  1.00  0.00    -0.258 N 
HETATM   16  C11 UNL     1      26.122   1.541  52.190  1.00  0.00     0.078 A 
HETATM   17  C12 UNL     1      26.848   0.394  52.066  1.00  0.00     0.033 A 
HETATM   18  C13 UNL     1      26.453  -0.835  52.559  1.00  0.00     0.002 A 
HETATM   19  C14 UNL     1      25.237  -0.845  53.207  1.00  0.00     0.002 A 
HETATM   20  C15 UNL     1      24.514   0.323  53.325  1.00  0.00     0.032 A 
HETATM   21  C16 UNL     1      24.904   1.559  52.835  1.00  0.00     0.062 A 
HETATM   22  N6  UNL     1      23.864   2.506  53.146  1.00  0.00    -0.341 N 
HETATM   23  H7  UNL     1      22.753   5.447  52.725  1.00  0.00     0.182 HD
HETATM   24  H15 UNL     1      27.821   2.794  51.877  1.00  0.00     0.191 HD
HETATM   25  H20 UNL     1      23.530   2.515  54.169  1.00  0.00     0.167 HD
ENDROOT
TORSDOF 0
ENDMDL
MODEL 2
REMARK VINA RESULT:      -8.7      2.468      4.221
REMARK  0 active torsions:
REMARK  status: ('A' for Active; 'I' for Inactive)
ROOT
HETATM    1  C1  UNL     1      26.904   4.357  49.212  1.00  0.00     0.012 C 
HETATM    2  C2  UNL     1      25.949   3.420  49.950  1.00  0.00     0.011 C 
HETATM    3  C3  UNL     1      26.721   2.428  50.633  1.00  0.00     0.146 C 
HETATM    4  N1  UNL     1      26.179   1.515  51.568  1.00  0.00    -0.312 N 
HETATM    5  N2  UNL     1      25.361   0.639  52.239  1.00  0.00    -0.166 NA
HETATM    6  C4  UNL     1      24.700   1.182  53.274  1.00  0.00     0.124 C 
HETATM    7  C5  UNL     1      25.141   2.567  53.266  1.00  0.00     0.081 C 
HETATM    8  C6  UNL     1      23.986   3.495  53.007  1.00  0.00    -0.015 C 
HETATM    9  C7  UNL     1      24.061   4.100  51.786  1.00  0.00     0.030 A 
HETATM   10  C8  UNL     1      24.882   4.240  50.467  1.00  0.00    -0.017 A 
HETATM   11  C9  UNL     1      23.817   4.841  50.749  1.00  0.00     0.023 A 
HETATM   12  C10 UNL     1      22.818   4.219  49.797  1.00  0.00     0.181 C 
HETATM   13  N3  UNL     1      21.862   3.374  50.560  1.00  0.00    -0.175 NA
HETATM   14  N4  UNL     1      22.329   2.176  50.618  1.00  0.00    -0.073 NA
HETATM   15  N5  UNL     1      21.930   1.029  51.152  1.00  0.00    -0.258 N 
HETATM   16  C11 UNL     1      21.829   0.195  52.321  1.00  0.00     0.078 A 
HETATM   17  C12 UNL     1      20.516  -0.112  52.519  1.00  0.00     0.033 A 
HETATM   18  C13 UNL     1      20.046  -0.893  53.559  1.00  0.00     0.002 A 
HETATM   19  C14 UNL     1      21.011  -1.365  54.422  1.00  0.00     0.002 A 
HETATM   20  C15 UNL     1      22.336  -1.047  54.208  1.00  0.00     0.032 A 
HETATM   21  C16 UNL     1      22.814  -0.266  53.168  1.00  0.00     0.062 A 
HETATM   22  N6  UNL     1      24.243  -0.159  53.317  1.00  0.00    -0.341 N 
HETATM   23  H7  UNL     1      26.909   1.238  52.315  1.00  0.00     0.182 HD
HETATM   24  H15 UNL     1      21.536   0.657  50.258  1.00  0.00     0.191 HD
HETATM   25  H20 UNL     1      24.770  -1.087  53.459  1.00  0.00     0.167 HD
ENDROOT
TORSDOF 0
ENDMDL
MODEL 3
REMARK VINA RESULT:      -8.6      1.615      5.520
REMARK  0 active torsions:
REMARK  status: ('A' for Active; 'I' for Inactive)
ROOT
HETATM    1  C1  UNL     1      22.970  -0.878  53.450  1.00  0.00     0.012 C 
HETATM    2  C2  UNL     1      23.509   0.256  52.578  1.00  0.00     0.011 C 
HETATM    3  C3  UNL     1      22.407   0.882  51.914  1.00  0.00     0.146 C 
HETATM    4  N1  UNL     1      22.514   2.084  51.177  1.00  0.00    -0.312 N 
HETATM    5  N2  UNL     1      22.951   3.106  50.369  1.00  0.00    -0.166 NA
HETATM    6  C4  UNL     1      23.458   4.158  51.033  1.00  0.00     0.124 C 
HETATM    7  C5  UNL     1      23.337   3.766  52.428  1.00  0.00     0.081 C 
HETATM    8  C6  UNL     1      24.691   3.656  53.073  1.00  0.00    -0.015 C 
HETATM    9  C7  UNL     1      25.029   2.368  53.372  1.00  0.00     0.030 A 
HETATM   10  C8  UNL     1      24.579   0.875  53.319  1.00  0.00    -0.017 A 
HETATM   11  C9  UNL     1      25.656   1.313  53.794  1.00  0.00     0.023 A 
HETATM   12  C10 UNL     1      26.689   0.804  52.813  1.00  0.00     0.181 C 
HETATM   13  N3  UNL     1      27.242   1.943  52.035  1.00  0.00    -0.175 NA
HETATM   14  N4  UNL     1      26.529   2.101  50.975  1.00  0.00    -0.073 NA
HETATM   15  N5  UNL     1      26.541   2.933  49.942  1.00  0.00    -0.258 N 
HETATM   16  C11 UNL     1      26.192   4.223  49.407  1.00  0.00     0.078 A 
HETATM   17  C12 UNL     1      27.328   4.823  48.953  1.00  0.00     0.033 A 
HETATM   18  C13 UNL     1      27.370   6.080  48.379  1.00  0.00     0.002 A 
HETATM   19  C14 UNL     1      26.156   6.724  48.286  1.00  0.00     0.002 A 
HETATM   20  C15 UNL     1      25.014   6.104  48.748  1.00  0.00     0.032 A 
HETATM   21  C16 UNL     1      24.965   4.844  49.323  1.00  0.00     0.062 A 
HETATM   22  N6  UNL     1      23.596   4.579  49.686  1.00  0.00    -0.341 N 
HETATM   23  H7  UNL     1      21.591   2.646  51.206  1.00  0.00     0.182 HD
HETATM   24  H15 UNL     1      27.040   2.267  49.309  1.00  0.00     0.191 HD
HETATM   25  H20 UNL     1      22.865   4.748  48.915  1.00  0.00     0.167 HD
ENDROOT
TORSDOF 0
ENDMDL
MODEL 4
REMARK VINA RESULT:      -8.5      2.774      4.853
REMARK  0 active torsions:
REMARK  status: ('A' for Active; 'I' for Inactive)
ROOT
HETATM    1  C1  UNL     1      20.777   1.380  49.368  1.00  0.00     0.012 C 
HETATM    2  C2  UNL     1      22.118   1.361  50.100  1.00  0.00     0.011 C 
HETATM    3  C3  UNL     1      22.999   2.290  49.461  1.00  0.00     0.146 C 
HETATM    4  N1  UNL     1      24.256   2.670  49.987  1.00  0.00    -0.312 N 
HETATM    5  N2  UNL     1      25.482   2.680  50.605  1.00  0.00    -0.166 NA
HETATM    6  C4  UNL     1      25.470   3.181  51.852  1.00  0.00     0.124 C 
HETATM    7  C5  UNL     1      24.074   3.531  52.060  1.00  0.00     0.081 C 
HETATM    8  C6  UNL     1      23.482   2.721  53.181  1.00  0.00    -0.015 C 
HETATM    9  C7  UNL     1      22.559   1.815  52.746  1.00  0.00     0.030 A 
HETATM   10  C8  UNL     1      21.820   1.226  51.504  1.00  0.00    -0.017 A 
HETATM   11  C9  UNL     1      21.655   0.885  52.701  1.00  0.00     0.023 A 
HETATM   12  C10 UNL     1      22.238  -0.511  52.736  1.00  0.00     0.181 C 
HETATM   13  N3  UNL     1      23.503  -0.504  53.518  1.00  0.00    -0.175 NA
HETATM   14  N4  UNL     1      24.482  -0.275  52.714  1.00  0.00    -0.073 NA
HETATM   15  N5  UNL     1      25.797  -0.154  52.835  1.00  0.00    -0.258 N 
HETATM   16  C11 UNL     1      26.922   0.678  53.173  1.00  0.00     0.078 A 
HETATM   17  C12 UNL     1      27.635   0.059  54.156  1.00  0.00     0.033 A 
HETATM   18  C13 UNL     1      28.780   0.576  54.732  1.00  0.00     0.002 A 
HETATM   19  C14 UNL     1      29.183   1.800  54.244  1.00  0.00     0.002 A 
HETATM   20  C15 UNL     1      28.452   2.414  53.248  1.00  0.00     0.032 A 
HETATM   21  C16 UNL     1      27.304   1.901  52.666  1.00  0.00     0.062 A 
HETATM   22  N6  UNL     1      26.840   2.855  51.690  1.00  0.00    -0.341 N 
HETATM   23  H7  UNL     1      24.513   3.679  49.697  1.00  0.00     0.182 HD
HETATM   24  H15 UNL     1      25.995  -1.136  52.536  1.00  0.00     0.191 HD
HETATM   25  H20 UNL     1      27.578   3.206  50.991  1.00  0.00     0.167 HD
ENDROOT
TORSDOF 0
ENDMDL
MODEL 5
REMARK VINA RESULT:      -8.1      2.558      6.517
REMARK  0 active torsions:
REMARK  status: ('A' for Active; 'I' for Inactive)
ROOT
HETATM    1  C1  UNL     1      21.916  -1.416  53.752  1.00  0.00     0.012 C 
HETATM    2  C2  UNL     1      22.119   0.032  53.304  1.00  0.00     0.011 C 
HETATM    3  C3  UNL     1      23.448   0.432  53.649  1.00  0.00     0.146 C 
HETATM    4  N1  UNL     1      24.042   1.641  53.216  1.00  0.00    -0.312 N 
HETATM    5  N2  UNL     1      24.269   2.943  52.843  1.00  0.00    -0.166 NA
HETATM    6  C4  UNL     1      24.297   3.141  51.514  1.00  0.00     0.124 C 
HETATM    7  C5  UNL     1      24.057   1.814  50.971  1.00  0.00     0.081 C 
HETATM    8  C6  UNL     1      22.773   1.781  50.188  1.00  0.00    -0.015 C 
HETATM    9  C7  UNL     1      21.802   1.043  50.799  1.00  0.00     0.030 A 
HETATM   10  C8  UNL     1      21.437   0.173  52.042  1.00  0.00    -0.017 A 
HETATM   11  C9  UNL     1      20.687   0.435  51.070  1.00  0.00     0.023 A 
HETATM   12  C10 UNL     1      19.648   1.348  51.683  1.00  0.00     0.181 C 
HETATM   13  N3  UNL     1      19.832   2.730  51.168  1.00  0.00    -0.175 NA
HETATM   14  N4  UNL     1      20.633   3.358  51.956  1.00  0.00    -0.073 NA
HETATM   15  N5  UNL     1      21.151   4.579  52.002  1.00  0.00    -0.258 N 
HETATM   16  C11 UNL     1      22.159   5.497  51.539  1.00  0.00     0.078 A 
HETATM   17  C12 UNL     1      21.536   6.586  51.006  1.00  0.00     0.033 A 
HETATM   18  C13 UNL     1      22.196   7.670  50.456  1.00  0.00     0.002 A 
HETATM   19  C14 UNL     1      23.571   7.591  50.474  1.00  0.00     0.002 A 
HETATM   20  C15 UNL     1      24.187   6.483  51.018  1.00  0.00     0.032 A 
HETATM   21  C16 UNL     1      23.533   5.395  51.571  1.00  0.00     0.062 A 
HETATM   22  N6  UNL     1      24.533   4.451  52.002  1.00  0.00    -0.341 N 
HETATM   23  H7  UNL     1      25.113   1.539  53.117  1.00  0.00     0.182 HD
HETATM   24  H15 UNL     1      20.453   4.936  52.693  1.00  0.00     0.191 HD
HETATM   25  H20 UNL     1      25.325   4.853  52.609  1.00  0.00     0.167 HD
ENDROOT
TORSDOF 0
ENDMDL
MODEL 6
REMARK VINA RESULT:      -8.1      2.222      3.002
REMARK  0 active torsions:
REMARK  status: ('A' for Active; 'I' for Inactive)
ROOT
HETATM    1  C1  UNL     1      25.018   6.791  50.198  1.00  0.00     0.012 C 
HETATM    2  C2  UNL     1      24.379   5.564  50.847  1.00  0.00     0.011 C 
HETATM    3  C3  UNL     1      23.031   5.886  51.201  1.00  0.00     0.146 C 
HETATM    4  N1  UNL     1      22.086   4.933  51.648  1.00  0.00    -0.312 N 
HETATM    5  N2  UNL     1      21.472   3.861  52.247  1.00  0.00    -0.166 NA
HETATM    6  C4  UNL     1      21.260   2.816  51.429  1.00  0.00     0.124 C 
HETATM    7  C5  UNL     1      21.804   3.268  50.159  1.00  0.00     0.081 C 
HETATM    8  C6  UNL     1      22.963   2.407  49.737  1.00  0.00    -0.015 C 
HETATM    9  C7  UNL     1      24.156   3.068  49.789  1.00  0.00     0.030 A 
HETATM   10  C8  UNL     1      24.867   4.415  50.127  1.00  0.00    -0.017 A 
HETATM   11  C9  UNL     1      25.416   3.367  49.706  1.00  0.00     0.023 A 
HETATM   12  C10 UNL     1      26.217   2.902  50.902  1.00  0.00     0.181 C 
HETATM   13  N3  UNL     1      25.608   1.667  51.460  1.00  0.00    -0.175 NA
HETATM   14  N4  UNL     1      24.745   2.003  52.355  1.00  0.00    -0.073 NA
HETATM   15  N5  UNL     1      23.916   1.352  53.161  1.00  0.00    -0.258 N 
HETATM   16  C11 UNL     1      22.653   0.683  53.334  1.00  0.00     0.078 A 
HETATM   17  C12 UNL     1      22.894  -0.583  53.780  1.00  0.00     0.033 A 
HETATM   18  C13 UNL     1      21.910  -1.515  54.048  1.00  0.00     0.002 A 
HETATM   19  C14 UNL     1      20.618  -1.085  53.833  1.00  0.00     0.002 A 
HETATM   20  C15 UNL     1      20.390   0.199  53.384  1.00  0.00     0.032 A 
HETATM   21  C16 UNL     1      21.372   1.139  53.114  1.00  0.00     0.062 A 
HETATM   22  N6  UNL     1      20.719   2.336  52.649  1.00  0.00    -0.341 N 
HETATM   23  H7  UNL     1      21.081   5.218  51.372  1.00  0.00     0.182 HD
HETATM   24  H15 UNL     1      24.552   1.405  53.989  1.00  0.00     0.191 HD
HETATM   25  H20 UNL     1      19.910   2.697  53.260  1.00  0.00     0.167 HD
ENDROOT
TORSDOF 0
ENDMDL
MODEL 7
REMARK VINA RESULT:      -7.8      1.836      2.415
REMARK  0 active torsions:
REMARK  status: ('A' for Active; 'I' for Inactive)
ROOT
HETATM    1  C1  UNL     1      20.442   6.413  49.773  1.00  0.00     0.012 C 
HETATM    2  C2  UNL     1      21.405   5.367  50.334  1.00  0.00     0.011 C 
HETATM    3  C3  UNL     1      20.700   4.560  51.282  1.00  0.00     0.146 C 
HETATM    4  N1  UNL     1      21.226   3.379  51.854  1.00  0.00    -0.312 N 
HETATM    5  N2  UNL     1      22.056   2.428  52.396  1.00  0.00    -0.166 NA
HETATM    6  C4  UNL     1      22.455   1.483  51.529  1.00  0.00     0.124 C 
HETATM    7  C5  UNL     1      21.810   1.873  50.286  1.00  0.00     0.081 C 
HETATM    8  C6  UNL     1      22.832   2.211  49.235  1.00  0.00    -0.015 C 
HETATM    9  C7  UNL     1      22.855   3.541  48.932  1.00  0.00     0.030 A 
HETATM   10  C8  UNL     1      22.237   4.941  49.237  1.00  0.00    -0.017 A 
HETATM   11  C9  UNL     1      23.139   4.691  48.400  1.00  0.00     0.023 A 
HETATM   12  C10 UNL     1      24.358   5.344  49.013  1.00  0.00     0.181 C 
HETATM   13  N3  UNL     1      25.303   4.296  49.480  1.00  0.00    -0.175 NA
HETATM   14  N4  UNL     1      25.025   4.008  50.704  1.00  0.00    -0.073 NA
HETATM   15  N5  UNL     1      25.511   3.172  51.613  1.00  0.00    -0.258 N 
HETATM   16  C11 UNL     1      25.557   1.834  52.142  1.00  0.00     0.078 A 
HETATM   17  C12 UNL     1      26.855   1.418  52.147  1.00  0.00     0.033 A 
HETATM   18  C13 UNL     1      27.274   0.175  52.584  1.00  0.00     0.002 A 
HETATM   19  C14 UNL     1      26.272  -0.658  53.032  1.00  0.00     0.002 A 
HETATM   20  C15 UNL     1      24.963  -0.223  53.021  1.00  0.00     0.032 A 
HETATM   21  C16 UNL     1      24.537   1.022  52.586  1.00  0.00     0.062 A 
HETATM   22  N6  UNL     1      23.103   1.068  52.719  1.00  0.00    -0.341 N 
HETATM   23  H7  UNL     1      20.441   2.677  52.096  1.00  0.00     0.182 HD
HETATM   24  H15 UNL     1      26.092   3.900  52.088  1.00  0.00     0.191 HD
HETATM   25  H20 UNL     1      22.712   0.771  53.677  1.00  0.00     0.167 HD
ENDROOT
TORSDOF 0
ENDMDL
MODEL 8
REMARK VINA RESULT:      -7.7      1.914      5.435
REMARK  0 active torsions:
REMARK  status: ('A' for Active; 'I' for Inactive)
ROOT
HETATM    1  C1  UNL     1      21.075   0.472  52.429  1.00  0.00     0.012 C 
HETATM    2  C2  UNL     1      22.019   1.427  51.701  1.00  0.00     0.011 C 
HETATM    3  C3  UNL     1      21.234   2.345  50.933  1.00  0.00     0.146 C 
HETATM    4  N1  UNL     1      21.767   3.484  50.286  1.00  0.00    -0.312 N 
HETATM    5  N2  UNL     1      22.574   4.359  49.601  1.00  0.00    -0.166 NA
HETATM    6  C4  UNL     1      23.248   5.218  50.384  1.00  0.00     0.124 C 
HETATM    7  C5  UNL     1      22.828   4.851  51.726  1.00  0.00     0.081 C 
HETATM    8  C6  UNL     1      23.996   4.359  52.537  1.00  0.00    -0.015 C 
HETATM    9  C7  UNL     1      23.926   3.023  52.805  1.00  0.00     0.030 A 
HETATM   10  C8  UNL     1      23.100   1.713  52.610  1.00  0.00    -0.017 A 
HETATM   11  C9  UNL     1      24.176   1.828  53.247  1.00  0.00     0.023 A 
HETATM   12  C10 UNL     1      25.161   1.071  52.383  1.00  0.00     0.181 C 
HETATM   13  N3  UNL     1      26.107   2.027  51.750  1.00  0.00    -0.175 NA
HETATM   14  N4  UNL     1      25.622   2.394  50.616  1.00  0.00    -0.073 NA
HETATM   15  N5  UNL     1      26.006   3.208  49.641  1.00  0.00    -0.258 N 
HETATM   16  C11 UNL     1      26.099   4.554  49.138  1.00  0.00     0.078 A 
HETATM   17  C12 UNL     1      27.408   4.824  48.872  1.00  0.00     0.033 A 
HETATM   18  C13 UNL     1      27.871   6.030  48.380  1.00  0.00     0.002 A 
HETATM   19  C14 UNL     1      26.903   6.987  48.164  1.00  0.00     0.002 A 
HETATM   20  C15 UNL     1      25.582   6.698  48.436  1.00  0.00     0.032 A 
HETATM   21  C16 UNL     1      25.111   5.491  48.928  1.00  0.00     0.062 A 
HETATM   22  N6  UNL     1      23.685   5.608  49.093  1.00  0.00    -0.341 N 
HETATM   23  H7  UNL     1      21.036   4.278  50.224  1.00  0.00     0.182 HD
HETATM   24  H15 UNL     1      26.391   2.441  49.043  1.00  0.00     0.191 HD
HETATM   25  H20 UNL     1      23.144   5.986  48.243  1.00  0.00     0.167 HD
ENDROOT
TORSDOF 0
ENDMDL
MODEL 9
REMARK VINA RESULT:      -7.5      3.273      4.276
REMARK  0 active torsions:
REMARK  status: ('A' for Active; 'I' for Inactive)
ROOT
HETATM    1  C1  UNL     1      21.201   5.736  48.255  1.00  0.00     0.012 C 
HETATM    2  C2  UNL     1      21.230   4.624  49.303  1.00  0.00     0.011 C 
HETATM    3  C3  UNL     1      19.889   4.370  49.733  1.00  0.00     0.146 C 
HETATM    4  N1  UNL     1      19.520   3.279  50.554  1.00  0.00    -0.312 N 
HETATM    5  N2  UNL     1      19.495   2.290  51.508  1.00  0.00    -0.166 NA
HETATM    6  C4  UNL     1      19.834   1.073  51.052  1.00  0.00     0.124 C 
HETATM    7  C5  UNL     1      20.111   1.306  49.644  1.00  0.00     0.081 C 
HETATM    8  C6  UNL     1      21.551   1.005  49.325  1.00  0.00    -0.015 C 
HETATM    9  C7  UNL     1      22.269   2.125  49.027  1.00  0.00     0.030 A 
HETATM   10  C8  UNL     1      22.228   3.677  48.873  1.00  0.00    -0.017 A 
HETATM   11  C9  UNL     1      23.225   2.937  48.692  1.00  0.00     0.023 A 
HETATM   12  C10 UNL     1      24.130   3.299  49.849  1.00  0.00     0.181 C 
HETATM   13  N3  UNL     1      24.190   2.166  50.809  1.00  0.00    -0.175 NA
HETATM   14  N4  UNL     1      23.256   2.318  51.683  1.00  0.00    -0.073 NA
HETATM   15  N5  UNL     1      22.835   1.643  52.745  1.00  0.00    -0.258 N 
HETATM   16  C11 UNL     1      22.055   0.552  53.269  1.00  0.00     0.078 A 
HETATM   17  C12 UNL     1      22.874  -0.243  54.014  1.00  0.00     0.033 A 
HETATM   18  C13 UNL     1      22.464  -1.392  54.664  1.00  0.00     0.002 A 
HETATM   19  C14 UNL     1      21.131  -1.707  54.517  1.00  0.00     0.002 A 
HETATM   20  C15 UNL     1      20.314  -0.891  53.761  1.00  0.00     0.032 A 
HETATM   21  C16 UNL     1      20.718   0.261  53.107  1.00  0.00     0.062 A 
HETATM   22  N6  UNL     1      19.574   0.802  52.419  1.00  0.00    -0.341 N 
HETATM   23  H7  UNL     1      18.509   2.958  50.350  1.00  0.00     0.182 HD
HETATM   24  H15 UNL     1      23.350   2.242  53.430  1.00  0.00     0.191 HD
HETATM   25  H20 UNL     1      18.681   0.912  53.009  1.00  0.00     0.167 HD
ENDROOT
TORSDOF 0
ENDMDL
