MODEL 1
REMARK VINA RESULT:      -9.2      0.000      0.000
REMARK  4 active torsions:
REMARK  status: ('A' for Active; 'I' for Inactive)
REMARK    1  A    between atoms: O1_2  and  C2_3 
REMARK    2  A    between atoms: C5_6  and  P1_7 
REMARK    3  A    between atoms: P1_7  and  C6_8 
REMARK    4  A    between atoms: N2_19  and  C16_20 
ROOT
HETATM    1  C2  UNL     1      21.263   1.210  50.786  1.00  0.00     0.075 A 
HETATM    2  C3  UNL     1      22.524   1.257  51.253  1.00  0.00     0.051 A 
HETATM    3  C4  UNL     1      22.770   0.550  52.495  1.00  0.00    -0.004 A 
HETATM    4  C5  UNL     1      23.953   0.502  53.073  1.00  0.00     0.024 C 
HETATM    5  C15 UNL     1      21.738  -0.174  53.214  1.00  0.00     0.069 A 
HETATM    6  N2  UNL     1      21.689  -0.837  54.274  1.00  0.00    -0.242 NA
HETATM    7  C17 UNL     1      20.393  -0.149  52.593  1.00  0.00     0.042 A 
HETATM    8  C18 UNL     1      20.169   0.503  51.450  1.00  0.00    -0.026 A 
HETATM    9  C19 UNL     1      18.857   0.573  50.772  1.00  0.00     0.051 C 
ENDROOT
BRANCH   4  10
HETATM   10  P1  UNL     1      25.234   1.406  52.158  1.00  0.00    -0.049 P 
HETATM   11  H6  UNL     1      25.178   1.216  50.728  1.00  0.00     0.068 HD
BRANCH  10  12
HETATM   12  C6  UNL     1      26.894   1.254  52.868  1.00  0.00     0.072 A 
HETATM   13  N1  UNL     1      27.585   2.294  53.335  1.00  0.00    -0.260 NA
HETATM   14  C7  UNL     1      28.830   2.141  53.859  1.00  0.00     0.118 A 
HETATM   15  C8  UNL     1      29.422   0.894  53.925  1.00  0.00     0.031 A 
HETATM   16  C9  UNL     1      28.690  -0.187  53.434  1.00  0.00    -0.022 A 
HETATM   17  C10 UNL     1      29.235  -1.473  53.473  1.00  0.00     0.012 A 
HETATM   18  C14 UNL     1      27.414  -0.027  52.897  1.00  0.00     0.004 A 
HETATM   19  C11 UNL     1      28.529  -2.578  52.989  1.00  0.00     0.001 A 
HETATM   20  C12 UNL     1      27.264  -2.409  52.459  1.00  0.00     0.001 A 
HETATM   21  C13 UNL     1      26.754  -1.123  52.435  1.00  0.00     0.014 A 
ENDBRANCH  10  12
ENDBRANCH   4  10
BRANCH   1  22
HETATM   22  O1  UNL     1      21.067   1.894  49.602  1.00  0.00    -0.355 OA
HETATM   23  C1  UNL     1      21.584   1.588  48.350  1.00  0.00     0.210 C 
ENDBRANCH   1  22
BRANCH   6  24
HETATM   24  C16 UNL     1      22.655  -1.149  55.221  1.00  0.00     0.224 C 
HETATM   25  N3  UNL     1      23.428  -1.870  55.946  1.00  0.00    -0.293 NA
HETATM   26  H14 UNL     1      24.096  -1.473  56.646  1.00  0.00     0.187 HD
ENDBRANCH   6  24
TORSDOF 4
ENDMDL
MODEL 2
REMARK VINA RESULT:      -9.0      2.385      3.900
REMARK  4 active torsions:
REMARK  status: ('A' for Active; 'I' for Inactive)
REMARK    1  A    between atoms: O1_2  and  C2_3 
REMARK    2  A    between atoms: C5_6  and  P1_7 
REMARK    3  A    between atoms: P1_7  and  C6_8 
REMARK    4  A    between atoms: N2_19  and  C16_20 
ROOT
HETATM    1  C2  UNL     1      22.284   1.180  50.855  1.00  0.00     0.075 A 
HETATM    2  C3  UNL     1      23.354   1.456  51.623  1.00  0.00     0.051 A 
HETATM    3  C4  UNL     1      24.284   2.434  51.093  1.00  0.00    -0.004 A 
HETATM    4  C5  UNL     1      25.373   2.810  51.731  1.00  0.00     0.024 C 
HETATM    5  C15 UNL     1      24.097   3.095  49.814  1.00  0.00     0.069 A 
HETATM    6  N2  UNL     1      24.733   3.942  49.147  1.00  0.00    -0.242 NA
HETATM    7  C17 UNL     1      22.879   2.703  49.068  1.00  0.00     0.042 A 
HETATM    8  C18 UNL     1      22.025   1.802  49.557  1.00  0.00    -0.026 A 
HETATM    9  C19 UNL     1      20.792   1.361  48.871  1.00  0.00     0.051 C 
ENDROOT
BRANCH   4  10
HETATM   10  P1  UNL     1      25.588   1.981  53.331  1.00  0.00    -0.049 P 
HETATM   11  H6  UNL     1      24.982   2.680  54.439  1.00  0.00     0.068 HD
BRANCH  10  12
HETATM   12  C6  UNL     1      27.278   1.407  53.644  1.00  0.00     0.072 A 
HETATM   13  N1  UNL     1      28.236   2.193  54.136  1.00  0.00    -0.260 NA
HETATM   14  C7  UNL     1      29.494   1.727  54.355  1.00  0.00     0.118 A 
HETATM   15  C8  UNL     1      29.821   0.414  54.072  1.00  0.00     0.031 A 
HETATM   16  C9  UNL     1      28.812  -0.399  53.558  1.00  0.00    -0.022 A 
HETATM   17  C10 UNL     1      29.081  -1.736  53.253  1.00  0.00     0.012 A 
HETATM   18  C14 UNL     1      27.523   0.082  53.335  1.00  0.00     0.004 A 
HETATM   19  C11 UNL     1      28.093  -2.579  52.736  1.00  0.00     0.001 A 
HETATM   20  C12 UNL     1      26.818  -2.092  52.518  1.00  0.00     0.001 A 
HETATM   21  C13 UNL     1      26.585  -0.764  52.831  1.00  0.00     0.014 A 
ENDBRANCH  10  12
ENDBRANCH   4  10
BRANCH   1  22
HETATM   22  O1  UNL     1      21.422   0.244  51.392  1.00  0.00    -0.355 OA
HETATM   23  C1  UNL     1      21.378  -0.216  52.702  1.00  0.00     0.210 C 
ENDBRANCH   1  22
BRANCH   6  24
HETATM   24  C16 UNL     1      25.927   4.608  49.388  1.00  0.00     0.224 C 
HETATM   25  N3  UNL     1      27.170   4.904  49.290  1.00  0.00    -0.293 NA
HETATM   26  H14 UNL     1      27.623   5.674  49.836  1.00  0.00     0.187 HD
ENDBRANCH   6  24
TORSDOF 4
ENDMDL
MODEL 3
REMARK VINA RESULT:      -8.6      4.065      5.884
REMARK  4 active torsions:
REMARK  status: ('A' for Active; 'I' for Inactive)
REMARK    1  A    between atoms: O1_2  and  C2_3 
REMARK    2  A    between atoms: C5_6  and  P1_7 
REMARK    3  A    between atoms: P1_7  and  C6_8 
REMARK    4  A    between atoms: N2_19  and  C16_20 
ROOT
HETATM    1  C2  UNL     1      22.182   0.128  52.670  1.00  0.00     0.075 A 
HETATM    2  C3  UNL     1      22.807   1.104  51.989  1.00  0.00     0.051 A 
HETATM    3  C4  UNL     1      24.166   1.400  52.400  1.00  0.00    -0.004 A 
HETATM    4  C5  UNL     1      24.906   2.325  51.826  1.00  0.00     0.024 C 
HETATM    5  C15 UNL     1      24.837   0.699  53.479  1.00  0.00     0.069 A 
HETATM    6  N2  UNL     1      25.965   0.765  54.019  1.00  0.00    -0.242 NA
HETATM    7  C17 UNL     1      24.039  -0.355  54.148  1.00  0.00     0.042 A 
HETATM    8  C18 UNL     1      22.789  -0.624  53.767  1.00  0.00    -0.026 A 
HETATM    9  C19 UNL     1      21.932  -1.658  54.386  1.00  0.00     0.051 C 
ENDROOT
BRANCH   4  10
HETATM   10  P1  UNL     1      24.054   3.187  50.474  1.00  0.00    -0.049 P 
HETATM   11  H6  UNL     1      24.169   2.528  49.195  1.00  0.00     0.068 HD
BRANCH  10  12
HETATM   12  C6  UNL     1      24.363   4.972  50.426  1.00  0.00     0.072 A 
HETATM   13  N1  UNL     1      23.539   5.868  50.968  1.00  0.00    -0.260 NA
HETATM   14  C7  UNL     1      23.803   7.201  50.910  1.00  0.00     0.118 A 
HETATM   15  C8  UNL     1      24.942   7.670  50.283  1.00  0.00     0.031 A 
HETATM   16  C9  UNL     1      25.797   6.723  49.720  1.00  0.00    -0.022 A 
HETATM   17  C10 UNL     1      26.964   7.135  49.073  1.00  0.00     0.012 A 
HETATM   18  C14 UNL     1      25.523   5.357  49.781  1.00  0.00     0.004 A 
HETATM   19  C11 UNL     1      27.843   6.213  48.497  1.00  0.00     0.001 A 
HETATM   20  C12 UNL     1      27.563   4.862  48.563  1.00  0.00     0.001 A 
HETATM   21  C13 UNL     1      26.399   4.487  49.211  1.00  0.00     0.014 A 
ENDBRANCH  10  12
ENDBRANCH   4  10
BRANCH   1  22
HETATM   22  O1  UNL     1      20.890  -0.125  52.250  1.00  0.00    -0.355 OA
HETATM   23  C1  UNL     1      19.828   0.767  52.190  1.00  0.00     0.210 C 
ENDBRANCH   1  22
BRANCH   6  24
HETATM   24  C16 UNL     1      27.064   1.579  53.779  1.00  0.00     0.224 C 
HETATM   25  N3  UNL     1      27.881   2.555  53.926  1.00  0.00    -0.293 NA
HETATM   26  H14 UNL     1      28.721   2.699  53.320  1.00  0.00     0.187 HD
ENDBRANCH   6  24
TORSDOF 4
ENDMDL
MODEL 4
REMARK VINA RESULT:      -8.4      4.499      6.725
REMARK  4 active torsions:
REMARK  status: ('A' for Active; 'I' for Inactive)
REMARK    1  A    between atoms: O1_2  and  C2_3 
REMARK    2  A    between atoms: C5_6  and  P1_7 
REMARK    3  A    between atoms: P1_7  and  C6_8 
REMARK    4  A    between atoms: N2_19  and  C16_20 
ROOT
HETATM    1  C2  UNL     1      23.434   0.890  52.092  1.00  0.00     0.075 A 
HETATM    2  C3  UNL     1      24.182   1.743  51.371  1.00  0.00     0.051 A 
HETATM    3  C4  UNL     1      25.554   1.917  51.811  1.00  0.00    -0.004 A 
HETATM    4  C5  UNL     1      26.408   2.715  51.204  1.00  0.00     0.024 C 
HETATM    5  C15 UNL     1      26.113   1.224  52.957  1.00  0.00     0.069 A 
HETATM    6  N2  UNL     1      27.225   1.204  53.530  1.00  0.00    -0.242 NA
HETATM    7  C17 UNL     1      25.184   0.312  53.664  1.00  0.00     0.042 A 
HETATM    8  C18 UNL     1      23.923   0.154  53.257  1.00  0.00    -0.026 A 
HETATM    9  C19 UNL     1      22.940  -0.736  53.912  1.00  0.00     0.051 C 
ENDROOT
BRANCH   4  10
HETATM   10  P1  UNL     1      25.695   3.568  49.768  1.00  0.00    -0.049 P 
HETATM   11  H6  UNL     1      25.040   2.690  48.830  1.00  0.00     0.068 HD
BRANCH  10  12
HETATM   12  C6  UNL     1      26.803   4.783  49.008  1.00  0.00     0.072 A 
HETATM   13  N1  UNL     1      28.114   4.586  48.865  1.00  0.00    -0.260 NA
HETATM   14  C7  UNL     1      28.915   5.522  48.290  1.00  0.00     0.118 A 
HETATM   15  C8  UNL     1      28.391   6.717  47.834  1.00  0.00     0.031 A 
HETATM   16  C9  UNL     1      27.019   6.913  47.988  1.00  0.00    -0.022 A 
HETATM   17  C10 UNL     1      26.431   8.100  47.545  1.00  0.00     0.012 A 
HETATM   18  C14 UNL     1      26.200   5.951  48.577  1.00  0.00     0.004 A 
HETATM   19  C11 UNL     1      25.059   8.330  47.684  1.00  0.00     0.001 A 
HETATM   20  C12 UNL     1      24.256   7.370  48.270  1.00  0.00     0.001 A 
HETATM   21  C13 UNL     1      24.870   6.206  48.697  1.00  0.00     0.014 A 
ENDBRANCH  10  12
ENDBRANCH   4  10
BRANCH   1  22
HETATM   22  O1  UNL     1      22.135   0.750  51.644  1.00  0.00    -0.355 OA
HETATM   23  C1  UNL     1      21.618   1.126  50.410  1.00  0.00     0.210 C 
ENDBRANCH   1  22
BRANCH   6  24
HETATM   24  C16 UNL     1      28.413   1.876  53.277  1.00  0.00     0.224 C 
HETATM   25  N3  UNL     1      29.249   2.846  53.227  1.00  0.00    -0.293 NA
HETATM   26  H14 UNL     1      30.221   2.750  52.853  1.00  0.00     0.187 HD
ENDBRANCH   6  24
TORSDOF 4
ENDMDL
MODEL 5
REMARK VINA RESULT:      -8.3      4.339      6.122
REMARK  4 active torsions:
REMARK  status: ('A' for Active; 'I' for Inactive)
REMARK    1  A    between atoms: O1_2  and  C2_3 
REMARK    2  A    between atoms: C5_6  and  P1_7 
REMARK    3  A    between atoms: P1_7  and  C6_8 
REMARK    4  A    between atoms: N2_19  and  C16_20 
ROOT
HETATM    1  C2  UNL     1      23.905  -0.101  53.612  1.00  0.00     0.075 A 
HETATM    2  C3  UNL     1      24.011   0.931  52.757  1.00  0.00     0.051 A 
HETATM    3  C4  UNL     1      22.776   1.620  52.433  1.00  0.00    -0.004 A 
HETATM    4  C5  UNL     1      22.721   2.651  51.616  1.00  0.00     0.024 C 
HETATM    5  C15 UNL     1      21.488   1.240  52.984  1.00  0.00     0.069 A 
HETATM    6  N2  UNL     1      20.312   1.650  52.863  1.00  0.00    -0.242 NA
HETATM    7  C17 UNL     1      21.509   0.086  53.913  1.00  0.00     0.042 A 
HETATM    8  C18 UNL     1      22.646  -0.545  54.209  1.00  0.00    -0.026 A 
HETATM    9  C19 UNL     1      22.745  -1.702  55.125  1.00  0.00     0.051 C 
ENDROOT
BRANCH   4  10
HETATM   10  P1  UNL     1      24.341   3.118  50.942  1.00  0.00    -0.049 P 
HETATM   11  H6  UNL     1      25.457   2.494  51.611  1.00  0.00     0.068 HD
BRANCH  10  12
HETATM   12  C6  UNL     1      24.538   4.897  50.660  1.00  0.00     0.072 A 
HETATM   13  N1  UNL     1      23.694   5.809  51.144  1.00  0.00    -0.260 NA
HETATM   14  C7  UNL     1      23.873   7.136  50.909  1.00  0.00     0.118 A 
HETATM   15  C8  UNL     1      24.942   7.585  50.157  1.00  0.00     0.031 A 
HETATM   16  C9  UNL     1      25.818   6.622  49.656  1.00  0.00    -0.022 A 
HETATM   17  C10 UNL     1      26.919   7.012  48.889  1.00  0.00     0.012 A 
HETATM   18  C14 UNL     1      25.632   5.261  49.898  1.00  0.00     0.004 A 
HETATM   19  C11 UNL     1      27.816   6.074  48.371  1.00  0.00     0.001 A 
HETATM   20  C12 UNL     1      27.623   4.728  48.617  1.00  0.00     0.001 A 
HETATM   21  C13 UNL     1      26.524   4.375  49.380  1.00  0.00     0.014 A 
ENDBRANCH  10  12
ENDBRANCH   4  10
BRANCH   1  22
HETATM   22  O1  UNL     1      25.101  -0.732  53.897  1.00  0.00    -0.355 OA
HETATM   23  C1  UNL     1      26.305  -0.616  53.214  1.00  0.00     0.210 C 
ENDBRANCH   1  22
BRANCH   6  24
HETATM   24  C16 UNL     1      19.759   2.680  52.115  1.00  0.00     0.224 C 
HETATM   25  N3  UNL     1      19.448   3.876  51.776  1.00  0.00    -0.293 NA
HETATM   26  H14 UNL     1      18.892   4.106  50.920  1.00  0.00     0.187 HD
ENDBRANCH   6  24
TORSDOF 4
ENDMDL
MODEL 6
REMARK VINA RESULT:      -7.8      5.563      7.729
REMARK  4 active torsions:
REMARK  status: ('A' for Active; 'I' for Inactive)
REMARK    1  A    between atoms: O1_2  and  C2_3 
REMARK    2  A    between atoms: C5_6  and  P1_7 
REMARK    3  A    between atoms: P1_7  and  C6_8 
REMARK    4  A    between atoms: N2_19  and  C16_20 
ROOT
HETATM    1  C2  UNL     1      28.313   6.716  48.156  1.00  0.00     0.075 A 
HETATM    2  C3  UNL     1      27.590   5.702  48.663  1.00  0.00     0.051 A 
HETATM    3  C4  UNL     1      26.388   6.074  49.384  1.00  0.00    -0.004 A 
HETATM    4  C5  UNL     1      25.577   5.193  49.932  1.00  0.00     0.024 C 
HETATM    5  C15 UNL     1      25.965   7.451  49.563  1.00  0.00     0.069 A 
HETATM    6  N2  UNL     1      25.006   8.022  50.130  1.00  0.00    -0.242 NA
HETATM    7  C17 UNL     1      26.849   8.472  48.955  1.00  0.00     0.042 A 
HETATM    8  C18 UNL     1      27.955   8.127  48.293  1.00  0.00    -0.026 A 
HETATM    9  C19 UNL     1      28.884   9.088  47.661  1.00  0.00     0.051 C 
ENDROOT
BRANCH   4  10
HETATM   10  P1  UNL     1      26.116   3.476  49.693  1.00  0.00    -0.049 P 
HETATM   11  H6  UNL     1      25.395   2.774  48.658  1.00  0.00     0.068 HD
BRANCH  10  12
HETATM   12  C6  UNL     1      26.311   2.543  51.234  1.00  0.00     0.072 A 
HETATM   13  N1  UNL     1      27.468   2.454  51.890  1.00  0.00    -0.260 NA
HETATM   14  C7  UNL     1      27.577   1.742  53.043  1.00  0.00     0.118 A 
HETATM   15  C8  UNL     1      26.485   1.083  53.574  1.00  0.00     0.031 A 
HETATM   16  C9  UNL     1      25.279   1.183  52.879  1.00  0.00    -0.022 A 
HETATM   17  C10 UNL     1      24.138   0.540  53.366  1.00  0.00     0.012 A 
HETATM   18  C14 UNL     1      25.171   1.914  51.697  1.00  0.00     0.004 A 
HETATM   19  C11 UNL     1      22.915   0.619  52.694  1.00  0.00     0.001 A 
HETATM   20  C12 UNL     1      22.818   1.346  51.524  1.00  0.00     0.001 A 
HETATM   21  C13 UNL     1      23.966   1.971  51.069  1.00  0.00     0.014 A 
ENDBRANCH  10  12
ENDBRANCH   4  10
BRANCH   1  22
HETATM   22  O1  UNL     1      29.451   6.324  47.477  1.00  0.00    -0.355 OA
HETATM   23  C1  UNL     1      30.422   5.424  47.898  1.00  0.00     0.210 C 
ENDBRANCH   1  22
BRANCH   6  24
HETATM   24  C16 UNL     1      23.924   7.529  50.847  1.00  0.00     0.224 C 
HETATM   25  N3  UNL     1      22.701   7.314  51.165  1.00  0.00    -0.293 NA
HETATM   26  H14 UNL     1      22.414   6.743  51.993  1.00  0.00     0.187 HD
ENDBRANCH   6  24
TORSDOF 4
ENDMDL
MODEL 7
REMARK VINA RESULT:      -7.8      3.082      7.637
REMARK  4 active torsions:
REMARK  status: ('A' for Active; 'I' for Inactive)
REMARK    1  A    between atoms: O1_2  and  C2_3 
REMARK    2  A    between atoms: C5_6  and  P1_7 
REMARK    3  A    between atoms: P1_7  and  C6_8 
REMARK    4  A    between atoms: N2_19  and  C16_20 
ROOT
HETATM    1  C2  UNL     1      24.829   0.322  53.010  1.00  0.00     0.075 A 
HETATM    2  C3  UNL     1      24.056   1.361  52.649  1.00  0.00     0.051 A 
HETATM    3  C4  UNL     1      24.663   2.325  51.751  1.00  0.00    -0.004 A 
HETATM    4  C5  UNL     1      24.030   3.391  51.307  1.00  0.00     0.024 C 
HETATM    5  C15 UNL     1      26.020   2.200  51.254  1.00  0.00     0.069 A 
HETATM    6  N2  UNL     1      26.759   2.874  50.501  1.00  0.00    -0.242 NA
HETATM    7  C17 UNL     1      26.764   1.009  51.726  1.00  0.00     0.042 A 
HETATM    8  C18 UNL     1      26.203   0.125  52.553  1.00  0.00    -0.026 A 
HETATM    9  C19 UNL     1      26.882  -1.084  53.067  1.00  0.00     0.051 C 
ENDROOT
BRANCH   4  10
HETATM   10  P1  UNL     1      22.331   3.529  51.931  1.00  0.00    -0.049 P 
HETATM   11  H6  UNL     1      22.127   2.906  53.218  1.00  0.00     0.068 HD
BRANCH  10  12
HETATM   12  C6  UNL     1      21.059   3.139  50.702  1.00  0.00     0.072 A 
HETATM   13  N1  UNL     1      20.893   3.837  49.578  1.00  0.00    -0.260 NA
HETATM   14  C7  UNL     1      19.925   3.516  48.679  1.00  0.00     0.118 A 
HETATM   15  C8  UNL     1      19.076   2.449  48.904  1.00  0.00     0.031 A 
HETATM   16  C9  UNL     1      19.259   1.725  50.082  1.00  0.00    -0.022 A 
HETATM   17  C10 UNL     1      18.433   0.635  50.365  1.00  0.00     0.012 A 
HETATM   18  C14 UNL     1      20.252   2.057  51.002  1.00  0.00     0.004 A 
HETATM   19  C11 UNL     1      18.588  -0.112  51.537  1.00  0.00     0.001 A 
HETATM   20  C12 UNL     1      19.576   0.225  52.443  1.00  0.00     0.001 A 
HETATM   21  C13 UNL     1      20.376   1.310  52.131  1.00  0.00     0.014 A 
ENDBRANCH  10  12
ENDBRANCH   4  10
BRANCH   1  22
HETATM   22  O1  UNL     1      24.217  -0.574  53.866  1.00  0.00    -0.355 OA
HETATM   23  C1  UNL     1      22.869  -0.905  53.927  1.00  0.00     0.210 C 
ENDBRANCH   1  22
BRANCH   6  24
HETATM   24  C16 UNL     1      26.551   4.065  49.819  1.00  0.00     0.224 C 
HETATM   25  N3  UNL     1      26.832   5.169  49.230  1.00  0.00    -0.293 NA
HETATM   26  H14 UNL     1      26.108   5.799  48.813  1.00  0.00     0.187 HD
ENDBRANCH   6  24
TORSDOF 4
ENDMDL
MODEL 8
REMARK VINA RESULT:      -7.7      3.314      4.829
REMARK  4 active torsions:
REMARK  status: ('A' for Active; 'I' for Inactive)
REMARK    1  A    between atoms: O1_2  and  C2_3 
REMARK    2  A    between atoms: C5_6  and  P1_7 
REMARK    3  A    between atoms: P1_7  and  C6_8 
REMARK    4  A    between atoms: N2_19  and  C16_20 
ROOT
HETATM    1  C2  UNL     1      20.175   0.279  53.362  1.00  0.00     0.075 A 
HETATM    2  C3  UNL     1      20.841   1.345  52.882  1.00  0.00     0.051 A 
HETATM    3  C4  UNL     1      20.421   1.825  51.580  1.00  0.00    -0.004 A 
HETATM    4  C5  UNL     1      20.974   2.861  50.983  1.00  0.00     0.024 C 
HETATM    5  C15 UNL     1      19.349   1.214  50.816  1.00  0.00     0.069 A 
HETATM    6  N2  UNL     1      18.816   1.423  49.703  1.00  0.00    -0.242 NA
HETATM    7  C17 UNL     1      18.696   0.049  51.457  1.00  0.00     0.042 A 
HETATM    8  C18 UNL     1      19.085  -0.392  52.655  1.00  0.00    -0.026 A 
HETATM    9  C19 UNL     1      18.483  -1.547  53.356  1.00  0.00     0.051 C 
ENDROOT
BRANCH   4  10
HETATM   10  P1  UNL     1      22.308   3.619  51.953  1.00  0.00    -0.049 P 
HETATM   11  H6  UNL     1      22.014   4.956  52.410  1.00  0.00     0.068 HD
BRANCH  10  12
HETATM   12  C6  UNL     1      23.955   3.423  51.223  1.00  0.00     0.072 A 
HETATM   13  N1  UNL     1      24.439   4.240  50.287  1.00  0.00    -0.260 NA
HETATM   14  C7  UNL     1      25.679   4.061  49.761  1.00  0.00     0.118 A 
HETATM   15  C8  UNL     1      26.483   3.018  50.183  1.00  0.00     0.031 A 
HETATM   16  C9  UNL     1      25.967   2.171  51.163  1.00  0.00    -0.022 A 
HETATM   17  C10 UNL     1      26.732   1.099  51.631  1.00  0.00     0.012 A 
HETATM   18  C14 UNL     1      24.695   2.357  51.701  1.00  0.00     0.004 A 
HETATM   19  C11 UNL     1      26.245   0.230  52.611  1.00  0.00     0.001 A 
HETATM   20  C12 UNL     1      24.983   0.424  53.138  1.00  0.00     0.001 A 
HETATM   21  C13 UNL     1      24.252   1.494  52.653  1.00  0.00     0.014 A 
ENDBRANCH  10  12
ENDBRANCH   4  10
BRANCH   1  22
HETATM   22  O1  UNL     1      20.602  -0.150  54.603  1.00  0.00    -0.355 OA
HETATM   23  C1  UNL     1      21.821  -0.733  54.926  1.00  0.00     0.210 C 
ENDBRANCH   1  22
BRANCH   6  24
HETATM   24  C16 UNL     1      19.061   2.370  48.719  1.00  0.00     0.224 C 
HETATM   25  N3  UNL     1      19.495   2.864  47.618  1.00  0.00    -0.293 NA
HETATM   26  H14 UNL     1      19.358   3.864  47.343  1.00  0.00     0.187 HD
ENDBRANCH   6  24
TORSDOF 4
ENDMDL
MODEL 9
REMARK VINA RESULT:      -7.6      4.940      6.638
REMARK  4 active torsions:
REMARK  status: ('A' for Active; 'I' for Inactive)
REMARK    1  A    between atoms: O1_2  and  C2_3 
REMARK    2  A    between atoms: C5_6  and  P1_7 
REMARK    3  A    between atoms: P1_7  and  C6_8 
REMARK    4  A    between atoms: N2_19  and  C16_20 
ROOT
HETATM    1  C2  UNL     1      27.305   5.975  48.369  1.00  0.00     0.075 A 
HETATM    2  C3  UNL     1      26.910   4.933  49.122  1.00  0.00     0.051 A 
HETATM    3  C4  UNL     1      25.599   5.048  49.732  1.00  0.00    -0.004 A 
HETATM    4  C5  UNL     1      25.075   4.109  50.492  1.00  0.00     0.024 C 
HETATM    5  C15 UNL     1      24.741   6.205  49.555  1.00  0.00     0.069 A 
HETATM    6  N2  UNL     1      23.608   6.544  49.964  1.00  0.00    -0.242 NA
HETATM    7  C17 UNL     1      25.293   7.282  48.701  1.00  0.00     0.042 A 
HETATM    8  C18 UNL     1      26.500   7.174  48.143  1.00  0.00    -0.026 A 
HETATM    9  C19 UNL     1      27.117   8.206  47.281  1.00  0.00     0.051 C 
ENDROOT
BRANCH   4  10
HETATM   10  P1  UNL     1      26.157   2.665  50.696  1.00  0.00    -0.049 P 
HETATM   11  H6  UNL     1      26.499   2.009  49.457  1.00  0.00     0.068 HD
BRANCH  10  12
HETATM   12  C6  UNL     1      25.645   1.541  52.021  1.00  0.00     0.072 A 
HETATM   13  N1  UNL     1      24.403   1.070  52.138  1.00  0.00    -0.260 NA
HETATM   14  C7  UNL     1      24.055   0.229  53.148  1.00  0.00     0.118 A 
HETATM   15  C8  UNL     1      24.985  -0.166  54.092  1.00  0.00     0.031 A 
HETATM   16  C9  UNL     1      26.280   0.332  53.960  1.00  0.00    -0.022 A 
HETATM   17  C10 UNL     1      27.265  -0.032  54.882  1.00  0.00     0.012 A 
HETATM   18  C14 UNL     1      26.634   1.194  52.923  1.00  0.00     0.004 A 
HETATM   19  C11 UNL     1      28.573   0.450  54.779  1.00  0.00     0.001 A 
HETATM   20  C12 UNL     1      28.914   1.304  53.748  1.00  0.00     0.001 A 
HETATM   21  C13 UNL     1      27.915   1.644  52.852  1.00  0.00     0.014 A 
ENDBRANCH  10  12
ENDBRANCH   4  10
BRANCH   1  22
HETATM   22  O1  UNL     1      28.558   5.830  47.805  1.00  0.00    -0.355 OA
HETATM   23  C1  UNL     1      29.784   6.161  48.368  1.00  0.00     0.210 C 
ENDBRANCH   1  22
BRANCH   6  24
HETATM   24  C16 UNL     1      22.689   5.910  50.789  1.00  0.00     0.224 C 
HETATM   25  N3  UNL     1      22.093   5.566  51.870  1.00  0.00    -0.293 NA
HETATM   26  H14 UNL     1      21.276   4.913  51.895  1.00  0.00     0.187 HD
ENDBRANCH   6  24
TORSDOF 4
ENDMDL
