MODEL 1
REMARK VINA RESULT:      -8.2      0.000      0.000
REMARK  1 active torsions:
REMARK  status: ('A' for Active; 'I' for Inactive)
REMARK    1  A    between atoms: C15_19  and  C16_20 
ROOT
HETATM    1  C1  UNL     1      21.785   1.877  51.293  1.00  0.00     0.023 C 
HETATM    2  C2  UNL     1      22.916   1.740  52.015  1.00  0.00    -0.021 C 
HETATM    3  C3  UNL     1      22.872   0.710  53.046  1.00  0.00    -0.021 A 
HETATM    4  C4  UNL     1      21.649   0.491  53.652  1.00  0.00     0.012 A 
HETATM    5  C5  UNL     1      21.563  -0.477  54.634  1.00  0.00     0.001 A 
HETATM    6  C6  UNL     1      22.671  -1.213  55.007  1.00  0.00     0.001 A 
HETATM    7  C7  UNL     1      23.890  -0.992  54.399  1.00  0.00     0.008 A 
HETATM    8  C8  UNL     1      23.977  -0.026  53.418  1.00  0.00    -0.045 A 
HETATM    9  C9  UNL     1      25.289   0.219  52.764  1.00  0.00     0.068 C 
HETATM   10  C10 UNL     1      26.223   1.000  53.655  1.00  0.00     0.133 C 
HETATM   11  C11 UNL     1      27.504   1.242  52.903  1.00  0.00     0.036 C 
HETATM   12  N1  UNL     1      25.697   2.192  54.207  1.00  0.00    -0.170 NA
HETATM   13  N2  UNL     1      25.166   3.078  53.498  1.00  0.00    -0.077 NA
HETATM   14  N3  UNL     1      25.096   2.880  52.126  1.00  0.00    -0.275 N 
HETATM   15  C12 UNL     1      23.840   2.733  51.481  1.00  0.00     0.123 C 
HETATM   16  C13 UNL     1      23.989   2.499  49.975  1.00  0.00     0.066 C 
HETATM   17  C14 UNL     1      23.049   3.464  49.325  1.00  0.00     0.152 C 
HETATM   18  N4  UNL     1      22.804   4.472  50.320  1.00  0.00    -0.289 NA
HETATM   19  C15 UNL     1      23.214   4.105  51.462  1.00  0.00     0.080 C 
HETATM   20  H13 UNL     1      25.966   2.838  51.556  1.00  0.00     0.185 HD
ENDROOT
BRANCH  19  21
HETATM   21  C16 UNL     1      23.080   4.957  52.642  1.00  0.00     0.136 C 
HETATM   22  N5  UNL     1      24.031   5.772  52.947  1.00  0.00    -0.310 NA
HETATM   23  H19 UNL     1      24.019   6.402  53.755  1.00  0.00     0.186 HD
ENDBRANCH  19  21
TORSDOF 1
ENDMDL
MODEL 2
REMARK VINA RESULT:      -7.5      1.866      2.290
REMARK  1 active torsions:
REMARK  status: ('A' for Active; 'I' for Inactive)
REMARK    1  A    between atoms: C15_19  and  C16_20 
ROOT
HETATM    1  C1  UNL     1      20.726   0.045  51.390  1.00  0.00     0.023 C 
HETATM    2  C2  UNL     1      21.851   0.649  51.823  1.00  0.00    -0.021 C 
HETATM    3  C3  UNL     1      22.484   0.022  52.978  1.00  0.00    -0.021 A 
HETATM    4  C4  UNL     1      21.643  -0.584  53.892  1.00  0.00     0.012 A 
HETATM    5  C5  UNL     1      22.201  -1.190  55.001  1.00  0.00     0.001 A 
HETATM    6  C6  UNL     1      23.568  -1.193  55.198  1.00  0.00     0.001 A 
HETATM    7  C7  UNL     1      24.404  -0.587  54.282  1.00  0.00     0.008 A 
HETATM    8  C8  UNL     1      23.849   0.017  53.174  1.00  0.00    -0.045 A 
HETATM    9  C9  UNL     1      24.745   0.676  52.188  1.00  0.00     0.068 C 
HETATM   10  C10 UNL     1      25.255   2.004  52.692  1.00  0.00     0.133 C 
HETATM   11  C11 UNL     1      26.113   2.619  51.620  1.00  0.00     0.036 C 
HETATM   12  N1  UNL     1      24.272   2.902  53.168  1.00  0.00    -0.170 NA
HETATM   13  N2  UNL     1      23.269   3.218  52.484  1.00  0.00    -0.077 NA
HETATM   14  N3  UNL     1      23.126   2.667  51.218  1.00  0.00    -0.275 N 
HETATM   15  C12 UNL     1      22.051   1.786  50.933  1.00  0.00     0.123 C 
HETATM   16  C13 UNL     1      22.093   1.273  49.490  1.00  0.00     0.066 C 
HETATM   17  C14 UNL     1      20.712   1.477  48.952  1.00  0.00     0.152 C 
HETATM   18  N4  UNL     1      20.121   2.467  49.810  1.00  0.00    -0.289 NA
HETATM   19  C15 UNL     1      20.813   2.643  50.859  1.00  0.00     0.080 C 
HETATM   20  H13 UNL     1      23.807   2.896  50.465  1.00  0.00     0.185 HD
ENDROOT
BRANCH  19  21
HETATM   21  C16 UNL     1      20.421   3.601  51.891  1.00  0.00     0.136 C 
HETATM   22  N5  UNL     1      19.184   3.678  52.248  1.00  0.00    -0.310 NA
HETATM   23  H19 UNL     1      18.825   4.320  52.961  1.00  0.00     0.186 HD
ENDBRANCH  19  21
TORSDOF 1
ENDMDL
MODEL 3
REMARK VINA RESULT:      -7.3      2.084      3.244
REMARK  1 active torsions:
REMARK  status: ('A' for Active; 'I' for Inactive)
REMARK    1  A    between atoms: C15_19  and  C16_20 
ROOT
HETATM    1  C1  UNL     1      23.851   3.925  48.515  1.00  0.00     0.023 C 
HETATM    2  C2  UNL     1      23.823   3.428  49.768  1.00  0.00    -0.021 C 
HETATM    3  C3  UNL     1      22.753   2.472  50.031  1.00  0.00    -0.021 A 
HETATM    4  C4  UNL     1      21.566   2.669  49.352  1.00  0.00     0.012 A 
HETATM    5  C5  UNL     1      20.526   1.786  49.572  1.00  0.00     0.001 A 
HETATM    6  C6  UNL     1      20.664   0.729  50.450  1.00  0.00     0.001 A 
HETATM    7  C7  UNL     1      21.851   0.536  51.126  1.00  0.00     0.008 A 
HETATM    8  C8  UNL     1      22.891   1.416  50.907  1.00  0.00    -0.045 A 
HETATM    9  C9  UNL     1      24.170   1.214  51.636  1.00  0.00     0.068 C 
HETATM   10  C10 UNL     1      24.068   1.649  53.078  1.00  0.00     0.133 C 
HETATM   11  C11 UNL     1      25.412   1.454  53.727  1.00  0.00     0.036 C 
HETATM   12  N1  UNL     1      23.555   2.949  53.296  1.00  0.00    -0.170 NA
HETATM   13  N2  UNL     1      24.028   3.958  52.722  1.00  0.00    -0.077 NA
HETATM   14  N3  UNL     1      25.092   3.789  51.847  1.00  0.00    -0.275 N 
HETATM   15  C12 UNL     1      24.937   4.061  50.463  1.00  0.00     0.123 C 
HETATM   16  C13 UNL     1      26.222   3.785  49.675  1.00  0.00     0.066 C 
HETATM   17  C14 UNL     1      26.445   5.003  48.835  1.00  0.00     0.152 C 
HETATM   18  N4  UNL     1      25.678   6.039  49.471  1.00  0.00    -0.289 NA
HETATM   19  C15 UNL     1      24.879   5.561  50.332  1.00  0.00     0.080 C 
HETATM   20  H13 UNL     1      26.016   3.462  52.200  1.00  0.00     0.185 HD
ENDROOT
BRANCH  19  21
HETATM   21  C16 UNL     1      23.988   6.414  51.116  1.00  0.00     0.136 C 
HETATM   22  N5  UNL     1      24.420   6.948  52.207  1.00  0.00    -0.310 NA
HETATM   23  H19 UNL     1      23.864   7.557  52.816  1.00  0.00     0.186 HD
ENDBRANCH  19  21
TORSDOF 1
ENDMDL
MODEL 4
REMARK VINA RESULT:      -7.2      2.222      3.961
REMARK  1 active torsions:
REMARK  status: ('A' for Active; 'I' for Inactive)
REMARK    1  A    between atoms: C15_19  and  C16_20 
ROOT
HETATM    1  C1  UNL     1      25.012   3.515  51.072  1.00  0.00     0.023 C 
HETATM    2  C2  UNL     1      24.144   2.535  51.395  1.00  0.00    -0.021 C 
HETATM    3  C3  UNL     1      24.744   1.346  51.989  1.00  0.00    -0.021 A 
HETATM    4  C4  UNL     1      26.015   1.013  51.557  1.00  0.00     0.012 A 
HETATM    5  C5  UNL     1      26.621  -0.106  52.095  1.00  0.00     0.001 A 
HETATM    6  C6  UNL     1      25.978  -0.879  53.042  1.00  0.00     0.001 A 
HETATM    7  C7  UNL     1      24.709  -0.542  53.469  1.00  0.00     0.008 A 
HETATM    8  C8  UNL     1      24.103   0.575  52.935  1.00  0.00    -0.045 A 
HETATM    9  C9  UNL     1      22.735   0.938  53.389  1.00  0.00     0.068 C 
HETATM   10  C10 UNL     1      21.685   0.042  52.779  1.00  0.00     0.133 C 
HETATM   11  C11 UNL     1      20.334   0.505  53.254  1.00  0.00     0.036 C 
HETATM   12  N1  UNL     1      21.735  -0.100  51.373  1.00  0.00    -0.170 NA
HETATM   13  N2  UNL     1      21.754   0.888  50.602  1.00  0.00    -0.077 NA
HETATM   14  N3  UNL     1      21.721   2.162  51.152  1.00  0.00    -0.275 N 
HETATM   15  C12 UNL     1      22.830   3.037  51.011  1.00  0.00     0.123 C 
HETATM   16  C13 UNL     1      22.598   4.379  51.713  1.00  0.00     0.066 C 
HETATM   17  C14 UNL     1      22.960   5.425  50.706  1.00  0.00     0.152 C 
HETATM   18  N4  UNL     1      22.891   4.757  49.434  1.00  0.00    -0.289 NA
HETATM   19  C15 UNL     1      22.822   3.498  49.576  1.00  0.00     0.080 C 
HETATM   20  H13 UNL     1      20.881   2.488  51.674  1.00  0.00     0.185 HD
ENDROOT
BRANCH  19  21
HETATM   21  C16 UNL     1      22.741   2.596  48.429  1.00  0.00     0.136 C 
HETATM   22  N5  UNL     1      21.586   2.258  47.968  1.00  0.00    -0.310 NA
HETATM   23  H19 UNL     1      21.439   1.632  47.171  1.00  0.00     0.186 HD
ENDBRANCH  19  21
TORSDOF 1
ENDMDL
MODEL 5
REMARK VINA RESULT:      -7.1      3.560      6.686
REMARK  1 active torsions:
REMARK  status: ('A' for Active; 'I' for Inactive)
REMARK    1  A    between atoms: C15_19  and  C16_20 
ROOT
HETATM    1  C1  UNL     1      24.816   3.220  49.324  1.00  0.00     0.023 C 
HETATM    2  C2  UNL     1      24.769   4.562  49.443  1.00  0.00    -0.021 C 
HETATM    3  C3  UNL     1      25.927   5.271  48.911  1.00  0.00    -0.021 A 
HETATM    4  C4  UNL     1      27.145   4.623  49.000  1.00  0.00     0.012 A 
HETATM    5  C5  UNL     1      28.268   5.259  48.507  1.00  0.00     0.001 A 
HETATM    6  C6  UNL     1      28.183   6.515  47.938  1.00  0.00     0.001 A 
HETATM    7  C7  UNL     1      26.965   7.158  47.852  1.00  0.00     0.008 A 
HETATM    8  C8  UNL     1      25.842   6.524  48.342  1.00  0.00    -0.045 A 
HETATM    9  C9  UNL     1      24.529   7.215  48.256  1.00  0.00     0.068 C 
HETATM   10  C10 UNL     1      24.400   8.306  49.291  1.00  0.00     0.133 C 
HETATM   11  C11 UNL     1      23.032   8.920  49.163  1.00  0.00     0.036 C 
HETATM   12  N1  UNL     1      24.693   7.931  50.623  1.00  0.00    -0.170 NA
HETATM   13  N2  UNL     1      24.150   6.944  51.173  1.00  0.00    -0.077 NA
HETATM   14  N3  UNL     1      23.229   6.200  50.448  1.00  0.00    -0.275 N 
HETATM   15  C12 UNL     1      23.503   4.850  50.105  1.00  0.00     0.123 C 
HETATM   16  C13 UNL     1      22.371   4.224  49.284  1.00  0.00     0.066 C 
HETATM   17  C14 UNL     1      22.075   2.915  49.946  1.00  0.00     0.152 C 
HETATM   18  N4  UNL     1      22.606   3.041  51.276  1.00  0.00    -0.289 NA
HETATM   19  C15 UNL     1      23.361   4.056  51.378  1.00  0.00     0.080 C 
HETATM   20  H13 UNL     1      22.327   6.627  50.148  1.00  0.00     0.185 HD
ENDROOT
BRANCH  19  21
HETATM   21  C16 UNL     1      24.023   4.402  52.634  1.00  0.00     0.136 C 
HETATM   22  N5  UNL     1      23.471   5.256  53.427  1.00  0.00    -0.310 NA
HETATM   23  H19 UNL     1      23.866   5.554  54.324  1.00  0.00     0.186 HD
ENDBRANCH  19  21
TORSDOF 1
ENDMDL
MODEL 6
REMARK VINA RESULT:      -6.9      8.141      9.678
REMARK  1 active torsions:
REMARK  status: ('A' for Active; 'I' for Inactive)
REMARK    1  A    between atoms: C15_19  and  C16_20 
ROOT
HETATM    1  C1  UNL     1      28.399   9.136  46.716  1.00  0.00     0.023 C 
HETATM    2  C2  UNL     1      29.182   8.246  47.358  1.00  0.00    -0.021 C 
HETATM    3  C3  UNL     1      28.486   7.083  47.896  1.00  0.00    -0.021 A 
HETATM    4  C4  UNL     1      27.189   7.284  48.330  1.00  0.00     0.012 A 
HETATM    5  C5  UNL     1      26.493   6.208  48.847  1.00  0.00     0.001 A 
HETATM    6  C6  UNL     1      27.074   4.958  48.932  1.00  0.00     0.001 A 
HETATM    7  C7  UNL     1      28.369   4.762  48.497  1.00  0.00     0.008 A 
HETATM    8  C8  UNL     1      29.066   5.835  47.980  1.00  0.00    -0.045 A 
HETATM    9  C9  UNL     1      30.462   5.629  47.515  1.00  0.00     0.068 C 
HETATM   10  C10 UNL     1      31.428   5.523  48.670  1.00  0.00     0.133 C 
HETATM   11  C11 UNL     1      32.817   5.363  48.113  1.00  0.00     0.036 C 
HETATM   12  N1  UNL     1      31.356   6.558  49.632  1.00  0.00    -0.170 NA
HETATM   13  N2  UNL     1      31.417   7.769  49.315  1.00  0.00    -0.077 NA
HETATM   14  N3  UNL     1      31.562   8.100  47.975  1.00  0.00    -0.275 N 
HETATM   15  C12 UNL     1      30.531   8.793  47.288  1.00  0.00     0.123 C 
HETATM   16  C13 UNL     1      30.882   9.036  45.816  1.00  0.00     0.066 C 
HETATM   17  C14 UNL     1      30.604  10.485  45.573  1.00  0.00     0.152 C 
HETATM   18  N4  UNL     1      30.608  11.090  46.877  1.00  0.00    -0.289 NA
HETATM   19  C15 UNL     1      30.570  10.213  47.793  1.00  0.00     0.080 C 
HETATM   20  H13 UNL     1      32.431   7.843  47.460  1.00  0.00     0.185 HD
ENDROOT
BRANCH  19  21
HETATM   21  C16 UNL     1      30.565  10.576  49.209  1.00  0.00     0.136 C 
HETATM   22  N5  UNL     1      29.705  10.031  50.000  1.00  0.00    -0.310 NA
HETATM   23  H19 UNL     1      29.633  10.228  51.003  1.00  0.00     0.186 HD
ENDBRANCH  19  21
TORSDOF 1
ENDMDL
MODEL 7
REMARK VINA RESULT:      -6.9      2.440      3.859
REMARK  1 active torsions:
REMARK  status: ('A' for Active; 'I' for Inactive)
REMARK    1  A    between atoms: C15_19  and  C16_20 
ROOT
HETATM    1  C1  UNL     1      22.184   1.390  50.148  1.00  0.00     0.023 C 
HETATM    2  C2  UNL     1      23.098   2.380  50.201  1.00  0.00    -0.021 C 
HETATM    3  C3  UNL     1      24.216   2.142  51.107  1.00  0.00    -0.021 A 
HETATM    4  C4  UNL     1      23.946   1.405  52.244  1.00  0.00     0.012 A 
HETATM    5  C5  UNL     1      24.977   1.156  53.129  1.00  0.00     0.001 A 
HETATM    6  C6  UNL     1      26.252   1.631  52.889  1.00  0.00     0.001 A 
HETATM    7  C7  UNL     1      26.517   2.366  51.751  1.00  0.00     0.008 A 
HETATM    8  C8  UNL     1      25.489   2.615  50.866  1.00  0.00    -0.045 A 
HETATM    9  C9  UNL     1      25.769   3.411  49.643  1.00  0.00     0.068 C 
HETATM   10  C10 UNL     1      25.899   4.883  49.949  1.00  0.00     0.133 C 
HETATM   11  C11 UNL     1      26.136   5.616  48.656  1.00  0.00     0.036 C 
HETATM   12  N1  UNL     1      24.844   5.454  50.699  1.00  0.00    -0.170 NA
HETATM   13  N2  UNL     1      23.644   5.334  50.360  1.00  0.00    -0.077 NA
HETATM   14  N3  UNL     1      23.345   4.620  49.208  1.00  0.00    -0.275 N 
HETATM   15  C12 UNL     1      22.617   3.404  49.282  1.00  0.00     0.123 C 
HETATM   16  C13 UNL     1      22.419   2.766  47.903  1.00  0.00     0.066 C 
HETATM   17  C14 UNL     1      20.962   2.434  47.822  1.00  0.00     0.152 C 
HETATM   18  N4  UNL     1      20.335   3.266  48.812  1.00  0.00    -0.289 NA
HETATM   19  C15 UNL     1      21.191   3.785  49.590  1.00  0.00     0.080 C 
HETATM   20  H13 UNL     1      23.652   4.971  48.277  1.00  0.00     0.185 HD
ENDROOT
BRANCH  19  21
HETATM   21  C16 UNL     1      20.802   4.674  50.683  1.00  0.00     0.136 C 
HETATM   22  N5  UNL     1      20.732   5.944  50.473  1.00  0.00    -0.310 NA
HETATM   23  H19 UNL     1      20.469   6.636  51.181  1.00  0.00     0.186 HD
ENDBRANCH  19  21
TORSDOF 1
ENDMDL
MODEL 8
REMARK VINA RESULT:      -6.8      2.128      3.373
REMARK  1 active torsions:
REMARK  status: ('A' for Active; 'I' for Inactive)
REMARK    1  A    between atoms: C15_19  and  C16_20 
ROOT
HETATM    1  C1  UNL     1      20.664   0.793  50.027  1.00  0.00     0.023 C 
HETATM    2  C2  UNL     1      21.589   1.653  50.501  1.00  0.00    -0.021 C 
HETATM    3  C3  UNL     1      22.524   1.086  51.466  1.00  0.00    -0.021 A 
HETATM    4  C4  UNL     1      22.035   0.091  52.292  1.00  0.00     0.012 A 
HETATM    5  C5  UNL     1      22.888  -0.474  53.220  1.00  0.00     0.001 A 
HETATM    6  C6  UNL     1      24.201  -0.058  53.326  1.00  0.00     0.001 A 
HETATM    7  C7  UNL     1      24.685   0.935  52.499  1.00  0.00     0.008 A 
HETATM    8  C8  UNL     1      23.835   1.500  51.571  1.00  0.00    -0.045 A 
HETATM    9  C9  UNL     1      24.351   2.574  50.682  1.00  0.00     0.068 C 
HETATM   10  C10 UNL     1      24.478   3.890  51.409  1.00  0.00     0.133 C 
HETATM   11  C11 UNL     1      24.961   4.926  50.430  1.00  0.00     0.036 C 
HETATM   12  N1  UNL     1      23.330   4.319  52.115  1.00  0.00    -0.170 NA
HETATM   13  N2  UNL     1      22.202   4.396  51.572  1.00  0.00    -0.077 NA
HETATM   14  N3  UNL     1      22.083   4.050  50.233  1.00  0.00    -0.275 N 
HETATM   15  C12 UNL     1      21.310   2.925  49.846  1.00  0.00     0.123 C 
HETATM   16  C13 UNL     1      21.332   2.706  48.330  1.00  0.00     0.066 C 
HETATM   17  C14 UNL     1      19.901   2.529  47.931  1.00  0.00     0.152 C 
HETATM   18  N4  UNL     1      19.141   3.108  49.005  1.00  0.00    -0.289 NA
HETATM   19  C15 UNL     1      19.867   3.323  50.022  1.00  0.00     0.080 C 
HETATM   20  H13 UNL     1      22.559   4.616  49.500  1.00  0.00     0.185 HD
ENDROOT
BRANCH  19  21
HETATM   21  C16 UNL     1      19.327   3.909  51.247  1.00  0.00     0.136 C 
HETATM   22  N5  UNL     1      19.563   3.340  52.380  1.00  0.00    -0.310 NA
HETATM   23  H19 UNL     1      19.223   3.683  53.283  1.00  0.00     0.186 HD
ENDBRANCH  19  21
TORSDOF 1
ENDMDL
MODEL 9
REMARK VINA RESULT:      -6.7     18.178     21.226
REMARK  1 active torsions:
REMARK  status: ('A' for Active; 'I' for Inactive)
REMARK    1  A    between atoms: C15_19  and  C16_20 
ROOT
HETATM    1  C1  UNL     1      42.278   8.003  56.330  1.00  0.00     0.023 C 
HETATM    2  C2  UNL     1      43.267   7.097  56.190  1.00  0.00    -0.021 C 
HETATM    3  C3  UNL     1      44.305   7.150  57.213  1.00  0.00    -0.021 A 
HETATM    4  C4  UNL     1      44.593   8.396  57.739  1.00  0.00     0.012 A 
HETATM    5  C5  UNL     1      45.570   8.491  58.711  1.00  0.00     0.001 A 
HETATM    6  C6  UNL     1      46.247   7.371  59.152  1.00  0.00     0.001 A 
HETATM    7  C7  UNL     1      45.955   6.129  58.625  1.00  0.00     0.008 A 
HETATM    8  C8  UNL     1      44.980   6.032  57.655  1.00  0.00    -0.045 A 
HETATM    9  C9  UNL     1      44.666   4.698  57.080  1.00  0.00     0.068 C 
HETATM   10  C10 UNL     1      45.723   4.244  56.103  1.00  0.00     0.133 C 
HETATM   11  C11 UNL     1      45.306   2.913  55.539  1.00  0.00     0.036 C 
HETATM   12  N1  UNL     1      46.063   5.170  55.089  1.00  0.00    -0.170 NA
HETATM   13  N2  UNL     1      45.199   5.702  54.353  1.00  0.00    -0.077 NA
HETATM   14  N3  UNL     1      43.865   5.367  54.543  1.00  0.00    -0.275 N 
HETATM   15  C12 UNL     1      42.933   6.340  54.990  1.00  0.00     0.123 C 
HETATM   16  C13 UNL     1      41.527   5.756  55.159  1.00  0.00     0.066 C 
HETATM   17  C14 UNL     1      40.613   6.705  54.450  1.00  0.00     0.152 C 
HETATM   18  N4  UNL     1      41.461   7.436  53.549  1.00  0.00    -0.289 NA
HETATM   19  C15 UNL     1      42.687   7.256  53.818  1.00  0.00     0.080 C 
HETATM   20  H13 UNL     1      43.535   4.396  54.359  1.00  0.00     0.185 HD
ENDROOT
BRANCH  19  21
HETATM   21  C16 UNL     1      43.750   7.893  53.043  1.00  0.00     0.136 C 
HETATM   22  N5  UNL     1      44.197   7.312  51.983  1.00  0.00    -0.310 NA
HETATM   23  H19 UNL     1      44.938   7.687  51.383  1.00  0.00     0.186 HD
ENDBRANCH  19  21
TORSDOF 1
ENDMDL
