MODEL 1
REMARK VINA RESULT:      -8.0      0.000      0.000
REMARK  7 active torsions:
REMARK  status: ('A' for Active; 'I' for Inactive)
REMARK    1  A    between atoms: N1_1  and  C1_2 
REMARK    2  A    between atoms: C6_7  and  C7_8 
REMARK    3  A    between atoms: C8_9  and  C9_10 
REMARK       I    between atoms: C9_10  and  N2_12 
REMARK    4  A    between atoms: N2_12  and  C10_13 
REMARK    5  A    between atoms: C14_17  and  C15_18 
REMARK    6  A    between atoms: C15_18  and  C16_19 
REMARK    7  A    between atoms: C16_19  and  O2_20 
ROOT
HETATM    1  C9  UNL     1      26.035   3.296  50.456  1.00  0.00     0.245 C 
HETATM    2  O1  UNL     1      24.967   2.831  49.940  1.00  0.00    -0.268 OA
HETATM    3  N2  UNL     1      26.805   2.863  51.543  1.00  0.00    -0.324 N 
HETATM    4  H11 UNL     1      27.651   3.401  51.795  1.00  0.00     0.169 HD
ENDROOT
BRANCH   1   5
HETATM    5  C8  UNL     1      26.396   4.459  49.694  1.00  0.00     0.075 C 
HETATM    6  C7  UNL     1      27.402   4.873  48.963  1.00  0.00     0.015 C 
BRANCH   6   7
HETATM    7  C6  UNL     1      27.683   6.103  48.210  1.00  0.00    -0.025 A 
HETATM    8  C1  UNL     1      29.118   6.130  47.885  1.00  0.00     0.254 A 
HETATM    9  C2  UNL     1      29.453   7.369  47.115  1.00  0.00     0.067 A 
HETATM   10  C3  UNL     1      28.235   8.178  46.922  1.00  0.00    -0.024 A 
HETATM   11  C4  UNL     1      26.956   8.099  47.244  1.00  0.00    -0.003 A 
HETATM   12  C5  UNL     1      26.652   6.889  47.990  1.00  0.00     0.009 A 
BRANCH   8  13
HETATM   13  N1  UNL     1      29.947   5.988  49.075  1.00  0.00     0.087 N 
HETATM   14  H1  UNL     1      29.850   6.869  49.656  1.00  0.00     0.313 HD
HETATM   15  H2  UNL     1      29.649   5.187  49.675  1.00  0.00     0.313 HD
ENDBRANCH   8  13
ENDBRANCH   6   7
ENDBRANCH   1   5
BRANCH   3  16
HETATM   16  C10 UNL     1      26.258   1.679  52.159  1.00  0.00     0.035 A 
HETATM   17  C11 UNL     1      25.128   1.742  52.971  1.00  0.00     0.029 A 
HETATM   18  C12 UNL     1      24.586   0.626  53.570  1.00  0.00     0.003 A 
HETATM   19  C13 UNL     1      25.213  -0.579  53.335  1.00  0.00     0.007 A 
HETATM   20  C14 UNL     1      26.321  -0.705  52.550  1.00  0.00    -0.054 A 
HETATM   21  C17 UNL     1      26.846   0.438  51.957  1.00  0.00     0.036 A 
BRANCH  20  22
HETATM   22  C15 UNL     1      26.952  -2.051  52.336  1.00  0.00     0.064 C 
BRANCH  22  23
HETATM   23  C16 UNL     1      28.309  -2.091  53.017  1.00  0.00     0.168 C 
BRANCH  23  24
HETATM   24  O2  UNL     1      28.583  -3.427  53.357  1.00  0.00    -0.401 OA
HETATM   25  H19 UNL     1      29.367  -3.775  52.834  1.00  0.00     0.209 HD
ENDBRANCH  23  24
ENDBRANCH  22  23
ENDBRANCH  20  22
ENDBRANCH   3  16
TORSDOF 7
ENDMDL
MODEL 2
REMARK VINA RESULT:      -7.7      5.077      7.957
REMARK  7 active torsions:
REMARK  status: ('A' for Active; 'I' for Inactive)
REMARK    1  A    between atoms: N1_1  and  C1_2 
REMARK    2  A    between atoms: C6_7  and  C7_8 
REMARK    3  A    between atoms: C8_9  and  C9_10 
REMARK       I    between atoms: C9_10  and  N2_12 
REMARK    4  A    between atoms: N2_12  and  C10_13 
REMARK    5  A    between atoms: C14_17  and  C15_18 
REMARK    6  A    between atoms: C15_18  and  C16_19 
REMARK    7  A    between atoms: C16_19  and  O2_20 
ROOT
HETATM    1  C9  UNL     1      24.303  -0.062  53.438  1.00  0.00     0.245 C 
HETATM    2  O1  UNL     1      24.583  -0.486  54.607  1.00  0.00    -0.268 OA
HETATM    3  N2  UNL     1      25.089   0.577  52.471  1.00  0.00    -0.324 N 
HETATM    4  H11 UNL     1      24.650   0.840  51.573  1.00  0.00     0.169 HD
ENDROOT
BRANCH   1   5
HETATM    5  C8  UNL     1      22.916  -0.356  53.207  1.00  0.00     0.075 C 
HETATM    6  C7  UNL     1      21.814   0.297  52.928  1.00  0.00     0.015 C 
BRANCH   6   7
HETATM    7  C6  UNL     1      20.417  -0.099  52.706  1.00  0.00    -0.025 A 
HETATM    8  C1  UNL     1      19.954   0.514  51.451  1.00  0.00     0.254 A 
HETATM    9  C2  UNL     1      18.531   0.136  51.183  1.00  0.00     0.067 A 
HETATM   10  C3  UNL     1      18.036  -0.735  52.265  1.00  0.00    -0.024 A 
HETATM   11  C4  UNL     1      18.507  -1.258  53.383  1.00  0.00    -0.003 A 
HETATM   12  C5  UNL     1      19.890  -0.880  53.624  1.00  0.00     0.009 A 
BRANCH   8  13
HETATM   13  N1  UNL     1      20.144   1.958  51.451  1.00  0.00     0.087 N 
HETATM   14  H1  UNL     1      21.071   2.173  50.985  1.00  0.00     0.313 HD
HETATM   15  H2  UNL     1      19.403   2.457  50.909  1.00  0.00     0.313 HD
ENDBRANCH   8  13
ENDBRANCH   6   7
ENDBRANCH   1   5
BRANCH   3  16
HETATM   16  C10 UNL     1      26.447   0.771  52.916  1.00  0.00     0.035 A 
HETATM   17  C11 UNL     1      26.925   2.036  53.250  1.00  0.00     0.029 A 
HETATM   18  C12 UNL     1      28.217   2.248  53.678  1.00  0.00     0.003 A 
HETATM   19  C13 UNL     1      29.038   1.144  53.765  1.00  0.00     0.007 A 
HETATM   20  C14 UNL     1      28.629  -0.119  53.451  1.00  0.00    -0.054 A 
HETATM   21  C17 UNL     1      27.319  -0.304  53.024  1.00  0.00     0.036 A 
BRANCH  20  22
HETATM   22  C15 UNL     1      29.578  -1.277  53.571  1.00  0.00     0.064 C 
BRANCH  22  23
HETATM   23  C16 UNL     1      29.089  -2.427  52.706  1.00  0.00     0.168 C 
BRANCH  23  24
HETATM   24  O2  UNL     1      28.720  -3.481  53.559  1.00  0.00    -0.401 OA
HETATM   25  H19 UNL     1      27.981  -3.197  54.178  1.00  0.00     0.209 HD
ENDBRANCH  23  24
ENDBRANCH  22  23
ENDBRANCH  20  22
ENDBRANCH   3  16
TORSDOF 7
ENDMDL
MODEL 3
REMARK VINA RESULT:      -7.4      3.081      8.272
REMARK  7 active torsions:
REMARK  status: ('A' for Active; 'I' for Inactive)
REMARK    1  A    between atoms: N1_1  and  C1_2 
REMARK    2  A    between atoms: C6_7  and  C7_8 
REMARK    3  A    between atoms: C8_9  and  C9_10 
REMARK       I    between atoms: C9_10  and  N2_12 
REMARK    4  A    between atoms: N2_12  and  C10_13 
REMARK    5  A    between atoms: C14_17  and  C15_18 
REMARK    6  A    between atoms: C15_18  and  C16_19 
REMARK    7  A    between atoms: C16_19  and  O2_20 
ROOT
HETATM    1  C9  UNL     1      26.242   3.980  50.030  1.00  0.00     0.245 C 
HETATM    2  O1  UNL     1      27.011   4.046  49.015  1.00  0.00    -0.268 OA
HETATM    3  N2  UNL     1      25.237   4.839  50.488  1.00  0.00    -0.324 N 
HETATM    4  H11 UNL     1      24.728   4.588  51.352  1.00  0.00     0.169 HD
ENDROOT
BRANCH   1   5
HETATM    5  C8  UNL     1      26.576   2.770  50.729  1.00  0.00     0.075 C 
HETATM    6  C7  UNL     1      26.855   2.397  51.955  1.00  0.00     0.015 C 
BRANCH   6   7
HETATM    7  C6  UNL     1      27.189   1.112  52.583  1.00  0.00    -0.025 A 
HETATM    8  C1  UNL     1      27.957   1.380  53.808  1.00  0.00     0.254 A 
HETATM    9  C2  UNL     1      28.322   0.095  54.485  1.00  0.00     0.067 A 
HETATM   10  C3  UNL     1      27.794  -1.042  53.708  1.00  0.00    -0.024 A 
HETATM   11  C4  UNL     1      27.101  -1.221  52.598  1.00  0.00    -0.003 A 
HETATM   12  C5  UNL     1      26.758   0.038  51.957  1.00  0.00     0.009 A 
BRANCH   8  13
HETATM   13  N1  UNL     1      29.127   2.207  53.545  1.00  0.00     0.087 N 
HETATM   14  H1  UNL     1      29.279   2.846  54.377  1.00  0.00     0.313 HD
HETATM   15  H2  UNL     1      29.997   1.642  53.427  1.00  0.00     0.313 HD
ENDBRANCH   8  13
ENDBRANCH   6   7
ENDBRANCH   1   5
BRANCH   3  16
HETATM   16  C10 UNL     1      25.073   5.989  49.634  1.00  0.00     0.035 A 
HETATM   17  C11 UNL     1      24.222   5.957  48.532  1.00  0.00     0.029 A 
HETATM   18  C12 UNL     1      24.047   7.042  47.701  1.00  0.00     0.003 A 
HETATM   19  C13 UNL     1      24.760   8.183  48.002  1.00  0.00     0.007 A 
HETATM   20  C14 UNL     1      25.608   8.276  49.066  1.00  0.00    -0.054 A 
HETATM   21  C17 UNL     1      25.764   7.166  49.889  1.00  0.00     0.036 A 
BRANCH  20  22
HETATM   22  C15 UNL     1      26.352   9.553  49.335  1.00  0.00     0.064 C 
BRANCH  22  23
HETATM   23  C16 UNL     1      27.723   9.233  49.906  1.00  0.00     0.168 C 
BRANCH  23  24
HETATM   24  O2  UNL     1      27.717   9.588  51.266  1.00  0.00    -0.401 OA
HETATM   25  H19 UNL     1      28.004   8.814  51.838  1.00  0.00     0.209 HD
ENDBRANCH  23  24
ENDBRANCH  22  23
ENDBRANCH  20  22
ENDBRANCH   3  16
TORSDOF 7
ENDMDL
MODEL 4
REMARK VINA RESULT:      -7.3      5.334      7.829
REMARK  7 active torsions:
REMARK  status: ('A' for Active; 'I' for Inactive)
REMARK    1  A    between atoms: N1_1  and  C1_2 
REMARK    2  A    between atoms: C6_7  and  C7_8 
REMARK    3  A    between atoms: C8_9  and  C9_10 
REMARK       I    between atoms: C9_10  and  N2_12 
REMARK    4  A    between atoms: N2_12  and  C10_13 
REMARK    5  A    between atoms: C14_17  and  C15_18 
REMARK    6  A    between atoms: C15_18  and  C16_19 
REMARK    7  A    between atoms: C16_19  and  O2_20 
ROOT
HETATM    1  C9  UNL     1      23.331   0.798  52.590  1.00  0.00     0.245 C 
HETATM    2  O1  UNL     1      23.383   1.101  51.352  1.00  0.00    -0.268 OA
HETATM    3  N2  UNL     1      22.261   0.760  53.491  1.00  0.00    -0.324 N 
HETATM    4  H11 UNL     1      22.448   0.481  54.469  1.00  0.00     0.169 HD
ENDROOT
BRANCH   1   5
HETATM    5  C8  UNL     1      24.669   0.460  52.993  1.00  0.00     0.075 C 
HETATM    6  C7  UNL     1      25.893   0.642  52.560  1.00  0.00     0.015 C 
BRANCH   6   7
HETATM    7  C6  UNL     1      27.221   0.250  53.052  1.00  0.00    -0.025 A 
HETATM    8  C1  UNL     1      27.845   1.422  53.685  1.00  0.00     0.254 A 
HETATM    9  C2  UNL     1      29.205   1.069  54.203  1.00  0.00     0.067 A 
HETATM   10  C3  UNL     1      29.494  -0.348  53.915  1.00  0.00    -0.024 A 
HETATM   11  C4  UNL     1      28.883  -1.364  53.333  1.00  0.00    -0.003 A 
HETATM   12  C5  UNL     1      27.565  -1.001  52.838  1.00  0.00     0.009 A 
BRANCH   8  13
HETATM   13  N1  UNL     1      27.885   2.568  52.787  1.00  0.00     0.087 N 
HETATM   14  H1  UNL     1      26.971   3.097  52.880  1.00  0.00     0.313 HD
HETATM   15  H2  UNL     1      28.653   3.234  53.024  1.00  0.00     0.313 HD
ENDBRANCH   8  13
ENDBRANCH   6   7
ENDBRANCH   1   5
BRANCH   3  16
HETATM   16  C10 UNL     1      21.015   1.137  52.872  1.00  0.00     0.035 A 
HETATM   17  C11 UNL     1      20.728   2.467  52.575  1.00  0.00     0.029 A 
HETATM   18  C12 UNL     1      19.546   2.854  51.983  1.00  0.00     0.003 A 
HETATM   19  C13 UNL     1      18.637   1.860  51.690  1.00  0.00     0.007 A 
HETATM   20  C14 UNL     1      18.860   0.541  51.956  1.00  0.00    -0.054 A 
HETATM   21  C17 UNL     1      20.063   0.179  52.553  1.00  0.00     0.036 A 
BRANCH  20  22
HETATM   22  C15 UNL     1      17.824  -0.490  51.607  1.00  0.00     0.064 C 
BRANCH  22  23
HETATM   23  C16 UNL     1      17.539  -1.356  52.822  1.00  0.00     0.168 C 
BRANCH  23  24
HETATM   24  O2  UNL     1      16.422  -0.818  53.483  1.00  0.00    -0.401 OA
HETATM   25  H19 UNL     1      16.647   0.066  53.903  1.00  0.00     0.209 HD
ENDBRANCH  23  24
ENDBRANCH  22  23
ENDBRANCH  20  22
ENDBRANCH   3  16
TORSDOF 7
ENDMDL
MODEL 5
REMARK VINA RESULT:      -7.2      1.977      2.708
REMARK  7 active torsions:
REMARK  status: ('A' for Active; 'I' for Inactive)
REMARK    1  A    between atoms: N1_1  and  C1_2 
REMARK    2  A    between atoms: C6_7  and  C7_8 
REMARK    3  A    between atoms: C8_9  and  C9_10 
REMARK       I    between atoms: C9_10  and  N2_12 
REMARK    4  A    between atoms: N2_12  and  C10_13 
REMARK    5  A    between atoms: C14_17  and  C15_18 
REMARK    6  A    between atoms: C15_18  and  C16_19 
REMARK    7  A    between atoms: C16_19  and  O2_20 
ROOT
HETATM    1  C9  UNL     1      26.094   3.202  50.451  1.00  0.00     0.245 C 
HETATM    2  O1  UNL     1      26.466   2.208  49.743  1.00  0.00    -0.268 OA
HETATM    3  N2  UNL     1      25.499   3.267  51.716  1.00  0.00    -0.324 N 
HETATM    4  H11 UNL     1      25.276   4.196  52.110  1.00  0.00     0.169 HD
ENDROOT
BRANCH   1   5
HETATM    5  C8  UNL     1      26.398   4.388  49.699  1.00  0.00     0.075 C 
HETATM    6  C7  UNL     1      27.388   4.861  48.982  1.00  0.00     0.015 C 
BRANCH   6   7
HETATM    7  C6  UNL     1      27.609   6.108  48.238  1.00  0.00    -0.025 A 
HETATM    8  C1  UNL     1      29.032   6.185  47.874  1.00  0.00     0.254 A 
HETATM    9  C2  UNL     1      29.306   7.444  47.111  1.00  0.00     0.067 A 
HETATM   10  C3  UNL     1      28.058   8.217  46.964  1.00  0.00    -0.024 A 
HETATM   11  C4  UNL     1      26.792   8.092  47.320  1.00  0.00    -0.003 A 
HETATM   12  C5  UNL     1      26.548   6.864  48.057  1.00  0.00     0.009 A 
BRANCH   8  13
HETATM   13  N1  UNL     1      29.898   6.055  49.038  1.00  0.00     0.087 N 
HETATM   14  H1  UNL     1      30.215   5.046  49.106  1.00  0.00     0.313 HD
HETATM   15  H2  UNL     1      30.757   6.644  48.964  1.00  0.00     0.313 HD
ENDBRANCH   8  13
ENDBRANCH   6   7
ENDBRANCH   1   5
BRANCH   3  16
HETATM   16  C10 UNL     1      25.286   1.959  52.285  1.00  0.00     0.035 A 
HETATM   17  C11 UNL     1      26.352   1.104  52.552  1.00  0.00     0.029 A 
HETATM   18  C12 UNL     1      26.175  -0.150  53.095  1.00  0.00     0.003 A 
HETATM   19  C13 UNL     1      24.881  -0.537  53.371  1.00  0.00     0.007 A 
HETATM   20  C14 UNL     1      23.797   0.255  53.132  1.00  0.00    -0.054 A 
HETATM   21  C17 UNL     1      24.005   1.516  52.584  1.00  0.00     0.036 A 
BRANCH  20  22
HETATM   22  C15 UNL     1      22.414  -0.232  53.459  1.00  0.00     0.064 C 
BRANCH  22  23
HETATM   23  C16 UNL     1      22.439  -0.990  54.775  1.00  0.00     0.168 C 
BRANCH  23  24
HETATM   24  O2  UNL     1      21.155  -1.518  54.994  1.00  0.00    -0.401 OA
HETATM   25  H19 UNL     1      20.600  -0.889  55.546  1.00  0.00     0.209 HD
ENDBRANCH  23  24
ENDBRANCH  22  23
ENDBRANCH  20  22
ENDBRANCH   3  16
TORSDOF 7
ENDMDL
MODEL 6
REMARK VINA RESULT:      -7.0      3.307      8.396
REMARK  7 active torsions:
REMARK  status: ('A' for Active; 'I' for Inactive)
REMARK    1  A    between atoms: N1_1  and  C1_2 
REMARK    2  A    between atoms: C6_7  and  C7_8 
REMARK    3  A    between atoms: C8_9  and  C9_10 
REMARK       I    between atoms: C9_10  and  N2_12 
REMARK    4  A    between atoms: N2_12  and  C10_13 
REMARK    5  A    between atoms: C14_17  and  C15_18 
REMARK    6  A    between atoms: C15_18  and  C16_19 
REMARK    7  A    between atoms: C16_19  and  O2_20 
ROOT
HETATM    1  C9  UNL     1      24.185   3.040  50.336  1.00  0.00     0.245 C 
HETATM    2  O1  UNL     1      23.849   2.906  49.114  1.00  0.00    -0.268 OA
HETATM    3  N2  UNL     1      25.073   3.924  50.962  1.00  0.00    -0.324 N 
HETATM    4  H11 UNL     1      25.198   3.856  51.986  1.00  0.00     0.169 HD
ENDROOT
BRANCH   1   5
HETATM    5  C8  UNL     1      23.454   2.053  51.082  1.00  0.00     0.075 C 
HETATM    6  C7  UNL     1      23.265   1.721  52.336  1.00  0.00     0.015 C 
BRANCH   6   7
HETATM    7  C6  UNL     1      22.484   0.676  53.011  1.00  0.00    -0.025 A 
HETATM    8  C1  UNL     1      23.383  -0.068  53.907  1.00  0.00     0.254 A 
HETATM    9  C2  UNL     1      22.628  -1.148  54.620  1.00  0.00     0.067 A 
HETATM   10  C3  UNL     1      21.215  -1.127  54.198  1.00  0.00    -0.024 A 
HETATM   11  C4  UNL     1      20.458  -0.424  53.376  1.00  0.00    -0.003 A 
HETATM   12  C5  UNL     1      21.208   0.619  52.696  1.00  0.00     0.009 A 
BRANCH   8  13
HETATM   13  N1  UNL     1      24.543  -0.592  53.200  1.00  0.00     0.087 N 
HETATM   14  H1  UNL     1      25.405  -0.408  53.790  1.00  0.00     0.313 HD
HETATM   15  H2  UNL     1      24.486  -1.623  53.048  1.00  0.00     0.313 HD
ENDBRANCH   8  13
ENDBRANCH   6   7
ENDBRANCH   1   5
BRANCH   3  16
HETATM   16  C10 UNL     1      25.695   4.825  50.024  1.00  0.00     0.035 A 
HETATM   17  C11 UNL     1      25.054   5.989  49.605  1.00  0.00     0.029 A 
HETATM   18  C12 UNL     1      25.627   6.866  48.710  1.00  0.00     0.003 A 
HETATM   19  C13 UNL     1      26.880   6.546  48.233  1.00  0.00     0.007 A 
HETATM   20  C14 UNL     1      27.557   5.423  48.605  1.00  0.00    -0.054 A 
HETATM   21  C17 UNL     1      26.956   4.555  49.511  1.00  0.00     0.036 A 
BRANCH  20  22
HETATM   22  C15 UNL     1      28.922   5.138  48.046  1.00  0.00     0.064 C 
BRANCH  22  23
HETATM   23  C16 UNL     1      29.900   6.198  48.525  1.00  0.00     0.168 C 
BRANCH  23  24
HETATM   24  O2  UNL     1      30.562   5.694  49.658  1.00  0.00    -0.401 OA
HETATM   25  H19 UNL     1      29.904   5.455  50.379  1.00  0.00     0.209 HD
ENDBRANCH  23  24
ENDBRANCH  22  23
ENDBRANCH  20  22
ENDBRANCH   3  16
TORSDOF 7
ENDMDL
MODEL 7
REMARK VINA RESULT:      -7.0      3.552      4.547
REMARK  7 active torsions:
REMARK  status: ('A' for Active; 'I' for Inactive)
REMARK    1  A    between atoms: N1_1  and  C1_2 
REMARK    2  A    between atoms: C6_7  and  C7_8 
REMARK    3  A    between atoms: C8_9  and  C9_10 
REMARK       I    between atoms: C9_10  and  N2_12 
REMARK    4  A    between atoms: N2_12  and  C10_13 
REMARK    5  A    between atoms: C14_17  and  C15_18 
REMARK    6  A    between atoms: C15_18  and  C16_19 
REMARK    7  A    between atoms: C16_19  and  O2_20 
ROOT
HETATM    1  C9  UNL     1      23.184   2.440  51.145  1.00  0.00     0.245 C 
HETATM    2  O1  UNL     1      22.949   3.055  52.237  1.00  0.00    -0.268 OA
HETATM    3  N2  UNL     1      22.615   1.288  50.589  1.00  0.00    -0.324 N 
HETATM    4  H11 UNL     1      22.963   0.956  49.675  1.00  0.00     0.169 HD
ENDROOT
BRANCH   1   5
HETATM    5  C8  UNL     1      24.230   3.162  50.475  1.00  0.00     0.075 C 
HETATM    6  C7  UNL     1      24.764   4.358  50.508  1.00  0.00     0.015 C 
BRANCH   6   7
HETATM    7  C6  UNL     1      25.851   5.014  49.768  1.00  0.00    -0.025 A 
HETATM    8  C1  UNL     1      25.628   6.468  49.809  1.00  0.00     0.254 A 
HETATM    9  C2  UNL     1      26.715   7.181  49.066  1.00  0.00     0.067 A 
HETATM   10  C3  UNL     1      27.673   6.200  48.524  1.00  0.00    -0.024 A 
HETATM   11  C4  UNL     1      27.820   4.887  48.521  1.00  0.00    -0.003 A 
HETATM   12  C5  UNL     1      26.756   4.214  49.248  1.00  0.00     0.009 A 
BRANCH   8  13
HETATM   13  N1  UNL     1      24.305   6.828  49.316  1.00  0.00     0.087 N 
HETATM   14  H1  UNL     1      24.222   7.885  49.327  1.00  0.00     0.313 HD
HETATM   15  H2  UNL     1      24.147   6.515  48.333  1.00  0.00     0.313 HD
ENDBRANCH   8  13
ENDBRANCH   6   7
ENDBRANCH   1   5
BRANCH   3  16
HETATM   16  C10 UNL     1      21.586   0.729  51.432  1.00  0.00     0.035 A 
HETATM   17  C11 UNL     1      20.237   0.979  51.191  1.00  0.00     0.029 A 
HETATM   18  C12 UNL     1      19.236   0.458  51.979  1.00  0.00     0.003 A 
HETATM   19  C13 UNL     1      19.622  -0.336  53.038  1.00  0.00     0.007 A 
HETATM   20  C14 UNL     1      20.925  -0.618  53.326  1.00  0.00    -0.054 A 
HETATM   21  C17 UNL     1      21.915  -0.079  52.512  1.00  0.00     0.036 A 
BRANCH  20  22
HETATM   22  C15 UNL     1      21.272  -1.493  54.496  1.00  0.00     0.064 C 
BRANCH  22  23
HETATM   23  C16 UNL     1      22.591  -1.039  55.098  1.00  0.00     0.168 C 
BRANCH  23  24
HETATM   24  O2  UNL     1      23.047  -2.053  55.957  1.00  0.00    -0.401 OA
HETATM   25  H19 UNL     1      23.808  -1.725  56.524  1.00  0.00     0.209 HD
ENDBRANCH  23  24
ENDBRANCH  22  23
ENDBRANCH  20  22
ENDBRANCH   3  16
TORSDOF 7
ENDMDL
MODEL 8
REMARK VINA RESULT:      -6.9      1.944      2.082
REMARK  7 active torsions:
REMARK  status: ('A' for Active; 'I' for Inactive)
REMARK    1  A    between atoms: N1_1  and  C1_2 
REMARK    2  A    between atoms: C6_7  and  C7_8 
REMARK    3  A    between atoms: C8_9  and  C9_10 
REMARK       I    between atoms: C9_10  and  N2_12 
REMARK    4  A    between atoms: N2_12  and  C10_13 
REMARK    5  A    between atoms: C14_17  and  C15_18 
REMARK    6  A    between atoms: C15_18  and  C16_19 
REMARK    7  A    between atoms: C16_19  and  O2_20 
ROOT
HETATM    1  C9  UNL     1      24.957   3.354  50.763  1.00  0.00     0.245 C 
HETATM    2  O1  UNL     1      24.599   2.489  49.897  1.00  0.00    -0.268 OA
HETATM    3  N2  UNL     1      25.359   3.219  52.097  1.00  0.00    -0.324 N 
HETATM    4  H11 UNL     1      25.610   4.071  52.626  1.00  0.00     0.169 HD
ENDROOT
BRANCH   1   5
HETATM    5  C8  UNL     1      24.888   4.639  50.123  1.00  0.00     0.075 C 
HETATM    6  C7  UNL     1      25.660   5.408  49.395  1.00  0.00     0.015 C 
BRANCH   6   7
HETATM    7  C6  UNL     1      25.497   6.730  48.775  1.00  0.00    -0.025 A 
HETATM    8  C1  UNL     1      26.427   7.666  49.427  1.00  0.00     0.254 A 
HETATM    9  C2  UNL     1      26.296   9.031  48.827  1.00  0.00     0.067 A 
HETATM   10  C3  UNL     1      25.272   9.010  47.766  1.00  0.00    -0.024 A 
HETATM   11  C4  UNL     1      24.458   8.125  47.219  1.00  0.00    -0.003 A 
HETATM   12  C5  UNL     1      24.602   6.807  47.815  1.00  0.00     0.009 A 
BRANCH   8  13
HETATM   13  N1  UNL     1      26.250   7.688  50.873  1.00  0.00     0.087 N 
HETATM   14  H1  UNL     1      27.181   7.461  51.327  1.00  0.00     0.313 HD
HETATM   15  H2  UNL     1      25.956   8.626  51.224  1.00  0.00     0.313 HD
ENDBRANCH   8  13
ENDBRANCH   6   7
ENDBRANCH   1   5
BRANCH   3  16
HETATM   16  C10 UNL     1      25.354   1.844  52.530  1.00  0.00     0.035 A 
HETATM   17  C11 UNL     1      24.182   1.224  52.958  1.00  0.00     0.029 A 
HETATM   18  C12 UNL     1      24.150  -0.088  53.376  1.00  0.00     0.003 A 
HETATM   19  C13 UNL     1      25.341  -0.781  53.357  1.00  0.00     0.007 A 
HETATM   20  C14 UNL     1      26.520  -0.230  52.949  1.00  0.00    -0.054 A 
HETATM   21  C17 UNL     1      26.523   1.096  52.532  1.00  0.00     0.036 A 
BRANCH  20  22
HETATM   22  C15 UNL     1      27.781  -1.046  52.954  1.00  0.00     0.064 C 
BRANCH  22  23
HETATM   23  C16 UNL     1      27.452  -2.494  52.634  1.00  0.00     0.168 C 
BRANCH  23  24
HETATM   24  O2  UNL     1      28.399  -3.306  53.281  1.00  0.00    -0.401 OA
HETATM   25  H19 UNL     1      28.443  -3.091  54.261  1.00  0.00     0.209 HD
ENDBRANCH  23  24
ENDBRANCH  22  23
ENDBRANCH  20  22
ENDBRANCH   3  16
TORSDOF 7
ENDMDL
MODEL 9
REMARK VINA RESULT:      -6.9      2.922      3.694
REMARK  7 active torsions:
REMARK  status: ('A' for Active; 'I' for Inactive)
REMARK    1  A    between atoms: N1_1  and  C1_2 
REMARK    2  A    between atoms: C6_7  and  C7_8 
REMARK    3  A    between atoms: C8_9  and  C9_10 
REMARK       I    between atoms: C9_10  and  N2_12 
REMARK    4  A    between atoms: N2_12  and  C10_13 
REMARK    5  A    between atoms: C14_17  and  C15_18 
REMARK    6  A    between atoms: C15_18  and  C16_19 
REMARK    7  A    between atoms: C16_19  and  O2_20 
ROOT
HETATM    1  C9  UNL     1      25.980   3.234  50.986  1.00  0.00     0.245 C 
HETATM    2  O1  UNL     1      26.850   2.894  50.118  1.00  0.00    -0.268 OA
HETATM    3  N2  UNL     1      25.807   2.855  52.323  1.00  0.00    -0.324 N 
HETATM    4  H11 UNL     1      25.018   3.260  52.853  1.00  0.00     0.169 HD
ENDROOT
BRANCH   1   5
HETATM    5  C8  UNL     1      25.091   4.164  50.346  1.00  0.00     0.075 C 
HETATM    6  C7  UNL     1      25.046   5.448  50.085  1.00  0.00     0.015 C 
BRANCH   6   7
HETATM    7  C6  UNL     1      24.076   6.322  49.412  1.00  0.00    -0.025 A 
HETATM    8  C1  UNL     1      23.508   7.239  50.412  1.00  0.00     0.254 A 
HETATM    9  C2  UNL     1      22.510   8.153  49.771  1.00  0.00     0.067 A 
HETATM   10  C3  UNL     1      22.410   7.847  48.332  1.00  0.00    -0.024 A 
HETATM   11  C4  UNL     1      22.956   6.998  47.480  1.00  0.00    -0.003 A 
HETATM   12  C5  UNL     1      23.920   6.121  48.122  1.00  0.00     0.009 A 
BRANCH   8  13
HETATM   13  N1  UNL     1      22.938   6.522  51.545  1.00  0.00     0.087 N 
HETATM   14  H1  UNL     1      21.941   6.853  51.682  1.00  0.00     0.313 HD
HETATM   15  H2  UNL     1      22.902   5.490  51.387  1.00  0.00     0.313 HD
ENDBRANCH   8  13
ENDBRANCH   6   7
ENDBRANCH   1   5
BRANCH   3  16
HETATM   16  C10 UNL     1      26.811   1.915  52.755  1.00  0.00     0.035 A 
HETATM   17  C11 UNL     1      27.970   2.339  53.400  1.00  0.00     0.029 A 
HETATM   18  C12 UNL     1      28.944   1.462  53.824  1.00  0.00     0.003 A 
HETATM   19  C13 UNL     1      28.729   0.122  53.582  1.00  0.00     0.007 A 
HETATM   20  C14 UNL     1      27.616  -0.355  52.955  1.00  0.00    -0.054 A 
HETATM   21  C17 UNL     1      26.648   0.553  52.540  1.00  0.00     0.036 A 
BRANCH  20  22
HETATM   22  C15 UNL     1      27.446  -1.830  52.726  1.00  0.00     0.064 C 
BRANCH  22  23
HETATM   23  C16 UNL     1      28.804  -2.510  52.768  1.00  0.00     0.168 C 
BRANCH  23  24
HETATM   24  O2  UNL     1      28.673  -3.690  53.520  1.00  0.00    -0.401 OA
HETATM   25  H19 UNL     1      27.793  -4.138  53.331  1.00  0.00     0.209 HD
ENDBRANCH  23  24
ENDBRANCH  22  23
ENDBRANCH  20  22
ENDBRANCH   3  16
TORSDOF 7
ENDMDL
