MODEL 1
REMARK VINA RESULT:      -7.9      0.000      0.000
REMARK  3 active torsions:
REMARK  status: ('A' for Active; 'I' for Inactive)
REMARK       I    between atoms: C1_2  and  N1_3 
REMARK    1  A    between atoms: C1_2  and  C8_14 
REMARK    2  A    between atoms: N1_3  and  S1_4 
REMARK    3  A    between atoms: S1_4  and  C2_7 
ROOT
HETATM    1  O1  UNL     1      26.175   2.426  54.106  1.00  0.00    -0.267 OA
HETATM    2  C1  UNL     1      26.534   1.757  53.103  1.00  0.00     0.268 C 
HETATM    3  N1  UNL     1      26.049   1.968  51.785  1.00  0.00    -0.246 N 
HETATM    4  H1  UNL     1      26.402   1.361  50.988  1.00  0.00     0.182 HD
ENDROOT
BRANCH   3   5
HETATM    5  S1  UNL     1      24.913   3.096  51.151  1.00  0.00     0.265 S 
HETATM    6  O2  UNL     1      24.180   3.698  52.332  1.00  0.00    -0.200 OA
HETATM    7  O3  UNL     1      23.854   2.387  50.345  1.00  0.00    -0.200 OA
BRANCH   5   8
HETATM    8  C2  UNL     1      25.689   4.344  50.190  1.00  0.00     0.080 A 
HETATM    9  C3  UNL     1      25.294   5.659  50.089  1.00  0.00     0.027 A 
HETATM   10  C4  UNL     1      25.990   6.550  49.298  1.00  0.00     0.020 A 
HETATM   11  C5  UNL     1      27.111   6.107  48.589  1.00  0.00     0.011 A 
HETATM   12 BR1  UNL     1      28.072   7.334  47.499  1.00  0.00    -0.051 Br
HETATM   13  C6  UNL     1      27.503   4.775  48.698  1.00  0.00     0.020 A 
HETATM   14  C7  UNL     1      26.809   3.877  49.490  1.00  0.00     0.027 A 
ENDBRANCH   5   8
ENDBRANCH   3   5
BRANCH   2  15
HETATM   15  C8  UNL     1      27.523   0.679  53.274  1.00  0.00     0.073 A 
HETATM   16  C9  UNL     1      28.810   1.168  53.408  1.00  0.00     0.022 A 
HETATM   17  C10 UNL     1      29.831   0.230  53.577  1.00  0.00     0.020 A 
HETATM   18  C11 UNL     1      29.488  -1.115  53.597  1.00  0.00     0.118 A 
HETATM   19  N2  UNL     1      28.211  -1.545  53.460  1.00  0.00    -0.248 NA
HETATM   20  C12 UNL     1      27.189  -0.662  53.295  1.00  0.00     0.141 A 
HETATM   21 CL1  UNL     1      25.513  -1.121  53.112  1.00  0.00    -0.061 Cl
ENDBRANCH   2  15
TORSDOF 3
ENDMDL
MODEL 2
REMARK VINA RESULT:      -7.6      3.612      6.827
REMARK  3 active torsions:
REMARK  status: ('A' for Active; 'I' for Inactive)
REMARK       I    between atoms: C1_2  and  N1_3 
REMARK    1  A    between atoms: C1_2  and  C8_14 
REMARK    2  A    between atoms: N1_3  and  S1_4 
REMARK    3  A    between atoms: S1_4  and  C2_7 
ROOT
HETATM    1  O1  UNL     1      24.449   4.084  49.182  1.00  0.00    -0.267 OA
HETATM    2  C1  UNL     1      25.412   4.478  49.888  1.00  0.00     0.268 C 
HETATM    3  N1  UNL     1      25.782   3.897  51.130  1.00  0.00    -0.246 N 
HETATM    4  H1  UNL     1      26.611   4.287  51.670  1.00  0.00     0.182 HD
ENDROOT
BRANCH   3   5
HETATM    5  S1  UNL     1      25.118   2.584  52.023  1.00  0.00     0.265 S 
HETATM    6  O2  UNL     1      24.047   1.955  51.156  1.00  0.00    -0.200 OA
HETATM    7  O3  UNL     1      24.395   3.085  53.247  1.00  0.00    -0.200 OA
BRANCH   5   8
HETATM    8  C2  UNL     1      26.339   1.403  52.467  1.00  0.00     0.080 A 
HETATM    9  C3  UNL     1      26.227   0.035  52.361  1.00  0.00     0.027 A 
HETATM   10  C4  UNL     1      27.263  -0.794  52.744  1.00  0.00     0.020 A 
HETATM   11  C5  UNL     1      28.441  -0.232  53.247  1.00  0.00     0.011 A 
HETATM   12 BR1  UNL     1      29.869  -1.372  53.773  1.00  0.00    -0.051 Br
HETATM   13  C6  UNL     1      28.544   1.154  53.350  1.00  0.00     0.020 A 
HETATM   14  C7  UNL     1      27.509   1.989  52.967  1.00  0.00     0.027 A 
ENDBRANCH   5   8
ENDBRANCH   3   5
BRANCH   2  15
HETATM   15  C8  UNL     1      26.229   5.612  49.424  1.00  0.00     0.073 A 
HETATM   16  C9  UNL     1      27.294   5.202  48.643  1.00  0.00     0.022 A 
HETATM   17  C10 UNL     1      28.138   6.198  48.146  1.00  0.00     0.020 A 
HETATM   18  C11 UNL     1      27.853   7.519  48.469  1.00  0.00     0.118 A 
HETATM   19  N2  UNL     1      26.796   7.870  49.240  1.00  0.00    -0.248 NA
HETATM   20  C12 UNL     1      25.951   6.928  49.741  1.00  0.00     0.141 A 
HETATM   21 CL1  UNL     1      24.564   7.285  50.742  1.00  0.00    -0.061 Cl
ENDBRANCH   2  15
TORSDOF 3
ENDMDL
MODEL 3
REMARK VINA RESULT:      -7.5      4.903      5.992
REMARK  3 active torsions:
REMARK  status: ('A' for Active; 'I' for Inactive)
REMARK       I    between atoms: C1_2  and  N1_3 
REMARK    1  A    between atoms: C1_2  and  C8_14 
REMARK    2  A    between atoms: N1_3  and  S1_4 
REMARK    3  A    between atoms: S1_4  and  C2_7 
ROOT
HETATM    1  O1  UNL     1      26.572   2.348  51.341  1.00  0.00    -0.267 OA
HETATM    2  C1  UNL     1      26.189   1.384  52.053  1.00  0.00     0.268 C 
HETATM    3  N1  UNL     1      24.833   1.124  52.384  1.00  0.00    -0.246 N 
HETATM    4  H1  UNL     1      24.589   0.286  52.991  1.00  0.00     0.182 HD
ENDROOT
BRANCH   3   5
HETATM    5  S1  UNL     1      23.377   1.946  51.976  1.00  0.00     0.265 S 
HETATM    6  O2  UNL     1      23.403   2.177  50.479  1.00  0.00    -0.200 OA
HETATM    7  O3  UNL     1      23.353   3.322  52.590  1.00  0.00    -0.200 OA
BRANCH   5   8
HETATM    8  C2  UNL     1      21.951   1.034  52.446  1.00  0.00     0.080 A 
HETATM    9  C3  UNL     1      21.715   0.469  53.679  1.00  0.00     0.027 A 
HETATM   10  C4  UNL     1      20.549  -0.227  53.929  1.00  0.00     0.020 A 
HETATM   11  C5  UNL     1      19.597  -0.357  52.913  1.00  0.00     0.011 A 
HETATM   12 BR1  UNL     1      17.990  -1.313  53.256  1.00  0.00    -0.051 Br
HETATM   13  C6  UNL     1      19.846   0.220  51.670  1.00  0.00     0.020 A 
HETATM   14  C7  UNL     1      21.012   0.919  51.414  1.00  0.00     0.027 A 
ENDBRANCH   5   8
ENDBRANCH   3   5
BRANCH   2  15
HETATM   15  C8  UNL     1      27.189   0.446  52.591  1.00  0.00     0.073 A 
HETATM   16  C9  UNL     1      26.877  -0.871  52.303  1.00  0.00     0.022 A 
HETATM   17  C10 UNL     1      27.759  -1.849  52.767  1.00  0.00     0.020 A 
HETATM   18  C11 UNL     1      28.878  -1.436  53.479  1.00  0.00     0.118 A 
HETATM   19  N2  UNL     1      29.140  -0.133  53.736  1.00  0.00    -0.248 NA
HETATM   20  C12 UNL     1      28.305   0.848  53.300  1.00  0.00     0.141 A 
HETATM   21 CL1  UNL     1      28.560   2.554  53.583  1.00  0.00    -0.061 Cl
ENDBRANCH   2  15
TORSDOF 3
ENDMDL
MODEL 4
REMARK VINA RESULT:      -7.5      4.254      4.948
REMARK  3 active torsions:
REMARK  status: ('A' for Active; 'I' for Inactive)
REMARK       I    between atoms: C1_2  and  N1_3 
REMARK    1  A    between atoms: C1_2  and  C8_14 
REMARK    2  A    between atoms: N1_3  and  S1_4 
REMARK    3  A    between atoms: S1_4  and  C2_7 
ROOT
HETATM    1  O1  UNL     1      26.367   2.152  51.015  1.00  0.00    -0.267 OA
HETATM    2  C1  UNL     1      26.174   2.151  52.258  1.00  0.00     0.268 C 
HETATM    3  N1  UNL     1      25.092   2.812  52.899  1.00  0.00    -0.246 N 
HETATM    4  H1  UNL     1      24.996   2.764  53.957  1.00  0.00     0.182 HD
ENDROOT
BRANCH   3   5
HETATM    5  S1  UNL     1      23.793   3.753  52.274  1.00  0.00     0.265 S 
HETATM    6  O2  UNL     1      24.236   4.276  50.923  1.00  0.00    -0.200 OA
HETATM    7  O3  UNL     1      23.569   4.979  53.122  1.00  0.00    -0.200 OA
BRANCH   5   8
HETATM    8  C2  UNL     1      22.312   2.820  52.133  1.00  0.00     0.080 A 
HETATM    9  C3  UNL     1      21.030   3.302  52.273  1.00  0.00     0.027 A 
HETATM   10  C4  UNL     1      19.939   2.466  52.137  1.00  0.00     0.020 A 
HETATM   11  C5  UNL     1      20.144   1.112  51.853  1.00  0.00     0.011 A 
HETATM   12 BR1  UNL     1      18.644  -0.041  51.664  1.00  0.00    -0.051 Br
HETATM   13  C6  UNL     1      21.446   0.636  51.712  1.00  0.00     0.020 A 
HETATM   14  C7  UNL     1      22.542   1.469  51.847  1.00  0.00     0.027 A 
ENDBRANCH   5   8
ENDBRANCH   3   5
BRANCH   2  15
HETATM   15  C8  UNL     1      27.112   1.426  53.132  1.00  0.00     0.073 A 
HETATM   16  C9  UNL     1      28.226   2.183  53.443  1.00  0.00     0.022 A 
HETATM   17  C10 UNL     1      29.185   1.593  54.269  1.00  0.00     0.020 A 
HETATM   18  C11 UNL     1      28.956   0.298  54.716  1.00  0.00     0.118 A 
HETATM   19  N2  UNL     1      27.847  -0.404  54.382  1.00  0.00    -0.248 NA
HETATM   20  C12 UNL     1      26.891   0.137  53.580  1.00  0.00     0.141 A 
HETATM   21 CL1  UNL     1      25.429  -0.690  53.097  1.00  0.00    -0.061 Cl
ENDBRANCH   2  15
TORSDOF 3
ENDMDL
MODEL 5
REMARK VINA RESULT:      -7.3      3.196      4.056
REMARK  3 active torsions:
REMARK  status: ('A' for Active; 'I' for Inactive)
REMARK       I    between atoms: C1_2  and  N1_3 
REMARK    1  A    between atoms: C1_2  and  C8_14 
REMARK    2  A    between atoms: N1_3  and  S1_4 
REMARK    3  A    between atoms: S1_4  and  C2_7 
ROOT
HETATM    1  O1  UNL     1      22.247   0.814  50.753  1.00  0.00    -0.267 OA
HETATM    2  C1  UNL     1      22.653   1.289  51.845  1.00  0.00     0.268 C 
HETATM    3  N1  UNL     1      22.992   2.653  52.047  1.00  0.00    -0.246 N 
HETATM    4  H1  UNL     1      23.329   2.978  53.002  1.00  0.00     0.182 HD
ENDROOT
BRANCH   3   5
HETATM    5  S1  UNL     1      22.971   4.007  50.985  1.00  0.00     0.265 S 
HETATM    6  O2  UNL     1      22.529   5.204  51.801  1.00  0.00    -0.200 OA
HETATM    7  O3  UNL     1      21.914   3.836  49.925  1.00  0.00    -0.200 OA
BRANCH   5   8
HETATM    8  C2  UNL     1      24.541   4.293  50.250  1.00  0.00     0.080 A 
HETATM    9  C3  UNL     1      25.517   3.350  50.020  1.00  0.00     0.027 A 
HETATM   10  C4  UNL     1      26.716   3.698  49.431  1.00  0.00     0.020 A 
HETATM   11  C5  UNL     1      26.939   5.029  49.065  1.00  0.00     0.011 A 
HETATM   12 BR1  UNL     1      28.589   5.511  48.253  1.00  0.00    -0.051 Br
HETATM   13  C6  UNL     1      25.944   5.976  49.302  1.00  0.00     0.020 A 
HETATM   14  C7  UNL     1      24.741   5.631  49.892  1.00  0.00     0.027 A 
ENDBRANCH   5   8
ENDBRANCH   3   5
BRANCH   2  15
HETATM   15  C8  UNL     1      22.797   0.397  53.008  1.00  0.00     0.073 A 
HETATM   16  C9  UNL     1      21.588   0.165  53.640  1.00  0.00     0.022 A 
HETATM   17  C10 UNL     1      21.606  -0.670  54.759  1.00  0.00     0.020 A 
HETATM   18  C11 UNL     1      22.825  -1.204  55.158  1.00  0.00     0.118 A 
HETATM   19  N2  UNL     1      23.984  -0.946  54.506  1.00  0.00    -0.248 NA
HETATM   20  C12 UNL     1      24.006  -0.138  53.411  1.00  0.00     0.141 A 
HETATM   21 CL1  UNL     1      25.449   0.251  52.506  1.00  0.00    -0.061 Cl
ENDBRANCH   2  15
TORSDOF 3
ENDMDL
MODEL 6
REMARK VINA RESULT:      -7.3      4.177      4.978
REMARK  3 active torsions:
REMARK  status: ('A' for Active; 'I' for Inactive)
REMARK       I    between atoms: C1_2  and  N1_3 
REMARK    1  A    between atoms: C1_2  and  C8_14 
REMARK    2  A    between atoms: N1_3  and  S1_4 
REMARK    3  A    between atoms: S1_4  and  C2_7 
ROOT
HETATM    1  O1  UNL     1      25.526   1.920  53.883  1.00  0.00    -0.267 OA
HETATM    2  C1  UNL     1      26.103   1.451  52.868  1.00  0.00     0.268 C 
HETATM    3  N1  UNL     1      25.741   1.758  51.529  1.00  0.00    -0.246 N 
HETATM    4  H1  UNL     1      26.278   1.321  50.723  1.00  0.00     0.182 HD
ENDROOT
BRANCH   3   5
HETATM    5  S1  UNL     1      24.511   2.773  50.880  1.00  0.00     0.265 S 
HETATM    6  O2  UNL     1      24.907   3.092  49.453  1.00  0.00    -0.200 OA
HETATM    7  O3  UNL     1      24.486   4.100  51.593  1.00  0.00    -0.200 OA
BRANCH   5   8
HETATM    8  C2  UNL     1      22.930   2.011  50.937  1.00  0.00     0.080 A 
HETATM    9  C3  UNL     1      22.212   1.542  49.860  1.00  0.00     0.027 A 
HETATM   10  C4  UNL     1      20.973   0.958  50.033  1.00  0.00     0.020 A 
HETATM   11  C5  UNL     1      20.442   0.844  51.322  1.00  0.00     0.011 A 
HETATM   12 BR1  UNL     1      18.737   0.039  51.562  1.00  0.00    -0.051 Br
HETATM   13  C6  UNL     1      21.178   1.321  52.405  1.00  0.00     0.020 A 
HETATM   14  C7  UNL     1      22.420   1.907  52.237  1.00  0.00     0.027 A 
ENDBRANCH   5   8
ENDBRANCH   3   5
BRANCH   2  15
HETATM   15  C8  UNL     1      27.233   0.523  53.046  1.00  0.00     0.073 A 
HETATM   16  C9  UNL     1      26.871  -0.790  52.805  1.00  0.00     0.022 A 
HETATM   17  C10 UNL     1      27.867  -1.759  52.945  1.00  0.00     0.020 A 
HETATM   18  C11 UNL     1      29.139  -1.342  53.314  1.00  0.00     0.118 A 
HETATM   19  N2  UNL     1      29.444  -0.042  53.541  1.00  0.00    -0.248 NA
HETATM   20  C12 UNL     1      28.501   0.931  53.414  1.00  0.00     0.141 A 
HETATM   21 CL1  UNL     1      28.800   2.631  53.684  1.00  0.00    -0.061 Cl
ENDBRANCH   2  15
TORSDOF 3
ENDMDL
MODEL 7
REMARK VINA RESULT:      -7.2      2.429      3.034
REMARK  3 active torsions:
REMARK  status: ('A' for Active; 'I' for Inactive)
REMARK       I    between atoms: C1_2  and  N1_3 
REMARK    1  A    between atoms: C1_2  and  C8_14 
REMARK    2  A    between atoms: N1_3  and  S1_4 
REMARK    3  A    between atoms: S1_4  and  C2_7 
ROOT
HETATM    1  O1  UNL     1      23.148   1.712  50.429  1.00  0.00    -0.267 OA
HETATM    2  C1  UNL     1      23.941   2.019  51.356  1.00  0.00     0.268 C 
HETATM    3  N1  UNL     1      24.461   3.325  51.563  1.00  0.00    -0.246 N 
HETATM    4  H1  UNL     1      25.128   3.506  52.371  1.00  0.00     0.182 HD
ENDROOT
BRANCH   3   5
HETATM    5  S1  UNL     1      24.221   4.801  50.711  1.00  0.00     0.265 S 
HETATM    6  O2  UNL     1      23.856   5.852  51.739  1.00  0.00    -0.200 OA
HETATM    7  O3  UNL     1      23.024   4.701  49.801  1.00  0.00    -0.200 OA
BRANCH   5   8
HETATM    8  C2  UNL     1      25.647   5.278  49.804  1.00  0.00     0.080 A 
HETATM    9  C3  UNL     1      26.601   4.433  49.282  1.00  0.00     0.027 A 
HETATM   10  C4  UNL     1      27.683   4.931  48.583  1.00  0.00     0.020 A 
HETATM   11  C5  UNL     1      27.809   6.312  48.405  1.00  0.00     0.011 A 
HETATM   12 BR1  UNL     1      29.297   6.999  47.442  1.00  0.00    -0.051 Br
HETATM   13  C6  UNL     1      26.837   7.157  48.938  1.00  0.00     0.020 A 
HETATM   14  C7  UNL     1      25.751   6.664  49.639  1.00  0.00     0.027 A 
ENDBRANCH   5   8
ENDBRANCH   3   5
BRANCH   2  15
HETATM   15  C8  UNL     1      24.376   0.981  52.306  1.00  0.00     0.073 A 
HETATM   16  C9  UNL     1      25.708   0.647  52.140  1.00  0.00     0.022 A 
HETATM   17  C10 UNL     1      26.228  -0.330  52.991  1.00  0.00     0.020 A 
HETATM   18  C11 UNL     1      25.381  -0.896  53.934  1.00  0.00     0.118 A 
HETATM   19  N2  UNL     1      24.081  -0.536  54.057  1.00  0.00    -0.248 NA
HETATM   20  C12 UNL     1      23.538   0.413  53.247  1.00  0.00     0.141 A 
HETATM   21 CL1  UNL     1      21.874   0.942  53.331  1.00  0.00    -0.061 Cl
ENDBRANCH   2  15
TORSDOF 3
ENDMDL
MODEL 8
REMARK VINA RESULT:      -7.0      5.094      6.963
REMARK  3 active torsions:
REMARK  status: ('A' for Active; 'I' for Inactive)
REMARK       I    between atoms: C1_2  and  N1_3 
REMARK    1  A    between atoms: C1_2  and  C8_14 
REMARK    2  A    between atoms: N1_3  and  S1_4 
REMARK    3  A    between atoms: S1_4  and  C2_7 
ROOT
HETATM    1  O1  UNL     1      21.177   3.363  52.393  1.00  0.00    -0.267 OA
HETATM    2  C1  UNL     1      21.478   2.142  52.367  1.00  0.00     0.268 C 
HETATM    3  N1  UNL     1      22.810   1.647  52.363  1.00  0.00    -0.246 N 
HETATM    4  H1  UNL     1      22.983   0.599  52.340  1.00  0.00     0.182 HD
ENDROOT
BRANCH   3   5
HETATM    5  S1  UNL     1      24.330   2.453  52.389  1.00  0.00     0.265 S 
HETATM    6  O2  UNL     1      24.260   3.496  53.486  1.00  0.00    -0.200 OA
HETATM    7  O3  UNL     1      24.543   3.230  51.115  1.00  0.00    -0.200 OA
BRANCH   5   8
HETATM    8  C2  UNL     1      25.661   1.341  52.664  1.00  0.00     0.080 A 
HETATM    9  C3  UNL     1      25.615  -0.030  52.545  1.00  0.00     0.027 A 
HETATM   10  C4  UNL     1      26.734  -0.802  52.788  1.00  0.00     0.020 A 
HETATM   11  C5  UNL     1      27.929  -0.178  53.160  1.00  0.00     0.011 A 
HETATM   12 BR1  UNL     1      29.472  -1.238  53.493  1.00  0.00    -0.051 Br
HETATM   13  C6  UNL     1      27.965   1.210  53.277  1.00  0.00     0.020 A 
HETATM   14  C7  UNL     1      26.846   1.988  53.034  1.00  0.00     0.027 A 
ENDBRANCH   5   8
ENDBRANCH   3   5
BRANCH   2  15
HETATM   15  C8  UNL     1      20.403   1.136  52.339  1.00  0.00     0.073 A 
HETATM   16  C9  UNL     1      19.678   1.180  51.161  1.00  0.00     0.022 A 
HETATM   17  C10 UNL     1      18.630   0.267  51.026  1.00  0.00     0.020 A 
HETATM   18  C11 UNL     1      18.390  -0.613  52.073  1.00  0.00     0.118 A 
HETATM   19  N2  UNL     1      19.128  -0.617  53.208  1.00  0.00    -0.248 NA
HETATM   20  C12 UNL     1      20.157   0.257  53.377  1.00  0.00     0.141 A 
HETATM   21 CL1  UNL     1      21.165   0.327  54.803  1.00  0.00    -0.061 Cl
ENDBRANCH   2  15
TORSDOF 3
ENDMDL
MODEL 9
REMARK VINA RESULT:      -6.8      4.368      5.065
REMARK  3 active torsions:
REMARK  status: ('A' for Active; 'I' for Inactive)
REMARK       I    between atoms: C1_2  and  N1_3 
REMARK    1  A    between atoms: C1_2  and  C8_14 
REMARK    2  A    between atoms: N1_3  and  S1_4 
REMARK    3  A    between atoms: S1_4  and  C2_7 
ROOT
HETATM    1  O1  UNL     1      24.719   3.120  53.789  1.00  0.00    -0.267 OA
HETATM    2  C1  UNL     1      25.325   2.325  53.026  1.00  0.00     0.268 C 
HETATM    3  N1  UNL     1      24.998   2.123  51.658  1.00  0.00    -0.246 N 
HETATM    4  H1  UNL     1      25.559   1.432  51.077  1.00  0.00     0.182 HD
ENDROOT
BRANCH   3   5
HETATM    5  S1  UNL     1      23.783   2.819  50.658  1.00  0.00     0.265 S 
HETATM    6  O2  UNL     1      24.274   2.718  49.228  1.00  0.00    -0.200 OA
HETATM    7  O3  UNL     1      23.651   4.295  50.930  1.00  0.00    -0.200 OA
BRANCH   5   8
HETATM    8  C2  UNL     1      22.233   2.015  50.847  1.00  0.00     0.080 A 
HETATM    9  C3  UNL     1      21.709   1.521  52.021  1.00  0.00     0.027 A 
HETATM   10  C4  UNL     1      20.472   0.907  52.043  1.00  0.00     0.020 A 
HETATM   11  C5  UNL     1      19.745   0.786  50.854  1.00  0.00     0.011 A 
HETATM   12 BR1  UNL     1      18.042  -0.057  50.883  1.00  0.00    -0.051 Br
HETATM   13  C6  UNL     1      20.285   1.290  49.673  1.00  0.00     0.020 A 
HETATM   14  C7  UNL     1      21.523   1.907  49.645  1.00  0.00     0.027 A 
ENDBRANCH   5   8
ENDBRANCH   3   5
BRANCH   2  15
HETATM   15  C8  UNL     1      26.453   1.538  53.555  1.00  0.00     0.073 A 
HETATM   16  C9  UNL     1      27.654   2.217  53.455  1.00  0.00     0.022 A 
HETATM   17  C10 UNL     1      28.794   1.563  53.928  1.00  0.00     0.020 A 
HETATM   18  C11 UNL     1      28.645   0.289  54.459  1.00  0.00     0.118 A 
HETATM   19  N2  UNL     1      27.445  -0.336  54.534  1.00  0.00    -0.248 NA
HETATM   20  C12 UNL     1      26.312   0.269  54.084  1.00  0.00     0.141 A 
HETATM   21 CL1  UNL     1      24.723  -0.456  54.139  1.00  0.00    -0.061 Cl
ENDBRANCH   2  15
TORSDOF 3
ENDMDL
