MODEL 1
REMARK VINA RESULT:      -8.2      0.000      0.000
REMARK  8 active torsions:
REMARK  status: ('A' for Active; 'I' for Inactive)
REMARK    1  A    between atoms: C1_2  and  O1_3 
REMARK    2  A    between atoms: C1_2  and  C12_17 
REMARK    3  A    between atoms: O1_3  and  C2_4 
REMARK    4  A    between atoms: C6_8  and  C7_9 
REMARK    5  A    between atoms: C7_9  and  N2_10 
REMARK    6  A    between atoms: C7_9  and  C8_11 
REMARK    7  A    between atoms: C9_13  and  N4_14 
REMARK    8  A    between atoms: C16_21  and  O2_22 
ROOT
HETATM    1  C2  UNL     1      24.000   2.365  51.270  1.00  0.00     0.078 A 
HETATM    2  C3  UNL     1      24.757   2.913  50.241  1.00  0.00     0.037 A 
HETATM    3  C4  UNL     1      26.125   3.006  50.300  1.00  0.00     0.003 A 
HETATM    4  C5  UNL     1      26.810   2.551  51.399  1.00  0.00     0.010 A 
HETATM    5  C6  UNL     1      26.080   2.010  52.419  1.00  0.00    -0.017 A 
HETATM    6  C11 UNL     1      24.704   1.904  52.387  1.00  0.00     0.047 A 
ENDROOT
BRANCH   1   7
HETATM    7  O1  UNL     1      22.634   2.227  51.310  1.00  0.00    -0.292 OA
BRANCH   7   8
HETATM    8  C1  UNL     1      21.928   1.058  51.283  1.00  0.00     0.173 C 
HETATM    9  N1  UNL     1      21.685   0.927  50.011  1.00  0.00    -0.277 NA
HETATM   10  H1  UNL     1      22.059   1.678  49.417  1.00  0.00     0.189 HD
BRANCH   8  11
HETATM   11  C12 UNL     1      21.501   0.123  52.317  1.00  0.00     0.019 A 
HETATM   12  C13 UNL     1      22.398  -0.679  53.000  1.00  0.00     0.016 A 
HETATM   13  C14 UNL     1      21.927  -1.541  53.967  1.00  0.00     0.004 A 
HETATM   14  C15 UNL     1      20.579  -1.596  54.244  1.00  0.00     0.036 A 
HETATM   15  C16 UNL     1      19.715  -0.788  53.549  1.00  0.00     0.066 A 
HETATM   16  C17 UNL     1      20.164   0.095  52.564  1.00  0.00     0.052 A 
BRANCH  15  17
HETATM   17  O2  UNL     1      18.379  -0.887  53.870  1.00  0.00    -0.361 OA
HETATM   18  H15 UNL     1      17.695  -1.193  53.208  1.00  0.00     0.217 HD
ENDBRANCH  15  17
ENDBRANCH   8  11
ENDBRANCH   7   8
ENDBRANCH   1   7
BRANCH   5  19
HETATM   19  C7  UNL     1      26.782   1.511  53.615  1.00  0.00     0.302 C 
BRANCH  19  20
HETATM   20  N2  UNL     1      27.825   2.462  53.950  1.00  0.00     0.093 N 
HETATM   21  H6  UNL     1      28.495   2.482  53.149  1.00  0.00     0.314 HD
HETATM   22  H7  UNL     1      28.366   2.054  54.745  1.00  0.00     0.314 HD
ENDBRANCH  19  20
BRANCH  19  23
HETATM   23  C8  UNL     1      27.286   0.139  53.474  1.00  0.00     0.077 A 
HETATM   24  N3  UNL     1      28.177  -0.618  54.053  1.00  0.00    -0.234 NA
HETATM   25  C9  UNL     1      27.849  -1.676  53.178  1.00  0.00     0.123 A 
HETATM   26  C10 UNL     1      26.936  -0.933  52.568  1.00  0.00     0.079 A 
BRANCH  25  27
HETATM   27  N4  UNL     1      28.330  -3.016  53.028  1.00  0.00    -0.384 N 
HETATM   28  H8  UNL     1      29.158  -3.181  52.392  1.00  0.00     0.157 HD
HETATM   29  H9  UNL     1      27.893  -3.831  53.520  1.00  0.00     0.157 HD
ENDBRANCH  25  27
ENDBRANCH  19  23
ENDBRANCH   5  19
TORSDOF 8
ENDMDL
MODEL 2
REMARK VINA RESULT:      -8.2      1.929      5.361
REMARK  8 active torsions:
REMARK  status: ('A' for Active; 'I' for Inactive)
REMARK    1  A    between atoms: C1_2  and  O1_3 
REMARK    2  A    between atoms: C1_2  and  C12_17 
REMARK    3  A    between atoms: O1_3  and  C2_4 
REMARK    4  A    between atoms: C6_8  and  C7_9 
REMARK    5  A    between atoms: C7_9  and  N2_10 
REMARK    6  A    between atoms: C7_9  and  C8_11 
REMARK    7  A    between atoms: C9_13  and  N4_14 
REMARK    8  A    between atoms: C16_21  and  O2_22 
ROOT
HETATM    1  C2  UNL     1      22.158   0.825  53.044  1.00  0.00     0.078 A 
HETATM    2  C3  UNL     1      21.139   0.113  53.664  1.00  0.00     0.037 A 
HETATM    3  C4  UNL     1      21.383  -0.906  54.550  1.00  0.00     0.003 A 
HETATM    4  C5  UNL     1      22.670  -1.267  54.864  1.00  0.00     0.010 A 
HETATM    5  C6  UNL     1      23.684  -0.576  54.262  1.00  0.00    -0.017 A 
HETATM    6  C11 UNL     1      23.468   0.452  53.368  1.00  0.00     0.047 A 
ENDROOT
BRANCH   1   7
HETATM    7  O1  UNL     1      22.022   1.856  52.147  1.00  0.00    -0.292 OA
BRANCH   7   8
HETATM    8  C1  UNL     1      22.625   1.965  50.926  1.00  0.00     0.173 C 
HETATM    9  N1  UNL     1      22.001   1.050  50.242  1.00  0.00    -0.277 NA
HETATM   10  H1  UNL     1      21.281   0.533  50.763  1.00  0.00     0.189 HD
BRANCH   8  11
HETATM   11  C12 UNL     1      23.682   2.824  50.405  1.00  0.00     0.019 A 
HETATM   12  C13 UNL     1      23.447   3.760  49.414  1.00  0.00     0.016 A 
HETATM   13  C14 UNL     1      24.491   4.541  48.967  1.00  0.00     0.004 A 
HETATM   14  C15 UNL     1      25.749   4.384  49.506  1.00  0.00     0.036 A 
HETATM   15  C16 UNL     1      25.949   3.447  50.488  1.00  0.00     0.066 A 
HETATM   16  C17 UNL     1      24.910   2.642  50.959  1.00  0.00     0.052 A 
BRANCH  15  17
HETATM   17  O2  UNL     1      27.228   3.336  50.989  1.00  0.00    -0.361 OA
HETATM   18  H15 UNL     1      27.452   3.581  51.932  1.00  0.00     0.217 HD
ENDBRANCH  15  17
ENDBRANCH   8  11
ENDBRANCH   7   8
ENDBRANCH   1   7
BRANCH   5  19
HETATM   19  C7  UNL     1      25.078  -0.936  54.574  1.00  0.00     0.302 C 
BRANCH  19  20
HETATM   20  N2  UNL     1      25.113  -1.456  55.929  1.00  0.00     0.093 N 
HETATM   21  H6  UNL     1      26.018  -1.153  56.354  1.00  0.00     0.314 HD
HETATM   22  H7  UNL     1      25.184  -2.495  55.855  1.00  0.00     0.314 HD
ENDBRANCH  19  20
BRANCH  19  23
HETATM   23  C8  UNL     1      26.032   0.160  54.361  1.00  0.00     0.077 A 
HETATM   24  N3  UNL     1      26.462   1.198  55.023  1.00  0.00    -0.234 NA
HETATM   25  C9  UNL     1      27.311   1.536  53.947  1.00  0.00     0.123 A 
HETATM   26  C10 UNL     1      26.894   0.489  53.247  1.00  0.00     0.079 A 
BRANCH  25  27
HETATM   27  N4  UNL     1      28.245   2.597  53.723  1.00  0.00    -0.384 N 
HETATM   28  H8  UNL     1      29.056   2.418  53.069  1.00  0.00     0.157 HD
HETATM   29  H9  UNL     1      28.154   3.535  54.181  1.00  0.00     0.157 HD
ENDBRANCH  25  27
ENDBRANCH  19  23
ENDBRANCH   5  19
TORSDOF 8
ENDMDL
MODEL 3
REMARK VINA RESULT:      -8.1      2.625      6.830
REMARK  8 active torsions:
REMARK  status: ('A' for Active; 'I' for Inactive)
REMARK    1  A    between atoms: C1_2  and  O1_3 
REMARK    2  A    between atoms: C1_2  and  C12_17 
REMARK    3  A    between atoms: O1_3  and  C2_4 
REMARK    4  A    between atoms: C6_8  and  C7_9 
REMARK    5  A    between atoms: C7_9  and  N2_10 
REMARK    6  A    between atoms: C7_9  and  C8_11 
REMARK    7  A    between atoms: C9_13  and  N4_14 
REMARK    8  A    between atoms: C16_21  and  O2_22 
ROOT
HETATM    1  C2  UNL     1      23.347  -0.501  53.870  1.00  0.00     0.078 A 
HETATM    2  C3  UNL     1      22.260  -0.793  54.683  1.00  0.00     0.037 A 
HETATM    3  C4  UNL     1      21.034  -0.198  54.519  1.00  0.00     0.003 A 
HETATM    4  C5  UNL     1      20.833   0.726  53.523  1.00  0.00     0.010 A 
HETATM    5  C6  UNL     1      21.894   1.024  52.715  1.00  0.00    -0.017 A 
HETATM    6  C11 UNL     1      23.136   0.442  52.858  1.00  0.00     0.047 A 
ENDROOT
BRANCH   1   7
HETATM    7  O1  UNL     1      24.609  -1.037  53.951  1.00  0.00    -0.292 OA
BRANCH   7   8
HETATM    8  C1  UNL     1      25.678  -0.519  54.625  1.00  0.00     0.173 C 
HETATM    9  N1  UNL     1      25.489  -0.993  55.822  1.00  0.00    -0.277 NA
HETATM   10  H1  UNL     1      24.653  -1.582  55.930  1.00  0.00     0.189 HD
BRANCH   8  11
HETATM   11  C12 UNL     1      26.790   0.337  54.230  1.00  0.00     0.019 A 
HETATM   12  C13 UNL     1      28.032   0.257  54.835  1.00  0.00     0.016 A 
HETATM   13  C14 UNL     1      29.041   1.096  54.413  1.00  0.00     0.004 A 
HETATM   14  C15 UNL     1      28.807   1.999  53.400  1.00  0.00     0.036 A 
HETATM   15  C16 UNL     1      27.565   2.054  52.820  1.00  0.00     0.066 A 
HETATM   16  C17 UNL     1      26.524   1.216  53.228  1.00  0.00     0.052 A 
BRANCH  15  17
HETATM   17  O2  UNL     1      27.391   2.977  51.812  1.00  0.00    -0.361 OA
HETATM   18  H15 UNL     1      26.552   3.019  51.269  1.00  0.00     0.217 HD
ENDBRANCH  15  17
ENDBRANCH   8  11
ENDBRANCH   7   8
ENDBRANCH   1   7
BRANCH   5  19
HETATM   19  C7  UNL     1      21.715   2.012  51.636  1.00  0.00     0.302 C 
BRANCH  19  20
HETATM   20  N2  UNL     1      22.119   1.389  50.389  1.00  0.00     0.093 N 
HETATM   21  H6  UNL     1      21.368   0.712  50.124  1.00  0.00     0.314 HD
HETATM   22  H7  UNL     1      22.953   0.798  50.599  1.00  0.00     0.314 HD
ENDBRANCH  19  20
BRANCH  19  23
HETATM   23  C8  UNL     1      22.402   3.286  51.884  1.00  0.00     0.077 A 
HETATM   24  N3  UNL     1      22.102   4.455  52.381  1.00  0.00    -0.234 NA
HETATM   25  C9  UNL     1      23.424   4.893  52.152  1.00  0.00     0.123 A 
HETATM   26  C10 UNL     1      23.761   3.717  51.642  1.00  0.00     0.079 A 
BRANCH  25  27
HETATM   27  N4  UNL     1      24.107   6.129  52.388  1.00  0.00    -0.384 N 
HETATM   28  H8  UNL     1      24.608   6.254  53.311  1.00  0.00     0.157 HD
HETATM   29  H9  UNL     1      24.127   6.906  51.686  1.00  0.00     0.157 HD
ENDBRANCH  25  27
ENDBRANCH  19  23
ENDBRANCH   5  19
TORSDOF 8
ENDMDL
MODEL 4
REMARK VINA RESULT:      -8.0      2.729      7.291
REMARK  8 active torsions:
REMARK  status: ('A' for Active; 'I' for Inactive)
REMARK    1  A    between atoms: C1_2  and  O1_3 
REMARK    2  A    between atoms: C1_2  and  C12_17 
REMARK    3  A    between atoms: O1_3  and  C2_4 
REMARK    4  A    between atoms: C6_8  and  C7_9 
REMARK    5  A    between atoms: C7_9  and  N2_10 
REMARK    6  A    between atoms: C7_9  and  C8_11 
REMARK    7  A    between atoms: C9_13  and  N4_14 
REMARK    8  A    between atoms: C16_21  and  O2_22 
ROOT
HETATM    1  C2  UNL     1      23.781   0.189  53.086  1.00  0.00     0.078 A 
HETATM    2  C3  UNL     1      23.755  -0.682  54.168  1.00  0.00     0.037 A 
HETATM    3  C4  UNL     1      22.591  -1.034  54.804  1.00  0.00     0.003 A 
HETATM    4  C5  UNL     1      21.385  -0.529  54.386  1.00  0.00     0.010 A 
HETATM    5  C6  UNL     1      21.394   0.330  53.323  1.00  0.00    -0.017 A 
HETATM    6  C11 UNL     1      22.549   0.701  52.665  1.00  0.00     0.047 A 
ENDROOT
BRANCH   1   7
HETATM    7  O1  UNL     1      24.886   0.604  52.383  1.00  0.00    -0.292 OA
BRANCH   7   8
HETATM    8  C1  UNL     1      26.110   0.928  52.897  1.00  0.00     0.173 C 
HETATM    9  N1  UNL     1      25.945   2.183  53.198  1.00  0.00    -0.277 NA
HETATM   10  H1  UNL     1      25.013   2.563  52.985  1.00  0.00     0.189 HD
BRANCH   8  11
HETATM   11  C12 UNL     1      27.339   0.172  53.106  1.00  0.00     0.019 A 
HETATM   12  C13 UNL     1      28.521   0.780  53.489  1.00  0.00     0.016 A 
HETATM   13  C14 UNL     1      29.647   0.006  53.670  1.00  0.00     0.004 A 
HETATM   14  C15 UNL     1      29.587  -1.355  53.469  1.00  0.00     0.036 A 
HETATM   15  C16 UNL     1      28.400  -1.928  53.089  1.00  0.00     0.066 A 
HETATM   16  C17 UNL     1      27.243  -1.168  52.898  1.00  0.00     0.052 A 
BRANCH  15  17
HETATM   17  O2  UNL     1      28.401  -3.294  52.904  1.00  0.00    -0.361 OA
HETATM   18  H15 UNL     1      28.099  -3.714  52.048  1.00  0.00     0.217 HD
ENDBRANCH  15  17
ENDBRANCH   8  11
ENDBRANCH   7   8
ENDBRANCH   1   7
BRANCH   5  19
HETATM   19  C7  UNL     1      20.118   0.893  52.847  1.00  0.00     0.302 C 
BRANCH  19  20
HETATM   20  N2  UNL     1      19.512  -0.072  51.949  1.00  0.00     0.093 N 
HETATM   21  H6  UNL     1      18.540   0.257  51.751  1.00  0.00     0.314 HD
HETATM   22  H7  UNL     1      19.392  -0.958  52.488  1.00  0.00     0.314 HD
ENDBRANCH  19  20
BRANCH  19  23
HETATM   23  C8  UNL     1      20.250   2.226  52.245  1.00  0.00     0.077 A 
HETATM   24  N3  UNL     1      20.421   3.451  52.660  1.00  0.00    -0.234 NA
HETATM   25  C9  UNL     1      20.408   3.907  51.324  1.00  0.00     0.123 A 
HETATM   26  C10 UNL     1      20.234   2.673  50.870  1.00  0.00     0.079 A 
BRANCH  25  27
HETATM   27  N4  UNL     1      20.535   5.200  50.722  1.00  0.00    -0.384 N 
HETATM   28  H8  UNL     1      19.837   5.946  50.993  1.00  0.00     0.157 HD
HETATM   29  H9  UNL     1      21.287   5.428  50.030  1.00  0.00     0.157 HD
ENDBRANCH  25  27
ENDBRANCH  19  23
ENDBRANCH   5  19
TORSDOF 8
ENDMDL
MODEL 5
REMARK VINA RESULT:      -8.0      2.741      5.787
REMARK  8 active torsions:
REMARK  status: ('A' for Active; 'I' for Inactive)
REMARK    1  A    between atoms: C1_2  and  O1_3 
REMARK    2  A    between atoms: C1_2  and  C12_17 
REMARK    3  A    between atoms: O1_3  and  C2_4 
REMARK    4  A    between atoms: C6_8  and  C7_9 
REMARK    5  A    between atoms: C7_9  and  N2_10 
REMARK    6  A    between atoms: C7_9  and  C8_11 
REMARK    7  A    between atoms: C9_13  and  N4_14 
REMARK    8  A    between atoms: C16_21  and  O2_22 
ROOT
HETATM    1  C2  UNL     1      23.832   2.542  50.788  1.00  0.00     0.078 A 
HETATM    2  C3  UNL     1      23.451   2.627  49.454  1.00  0.00     0.037 A 
HETATM    3  C4  UNL     1      22.356   1.965  48.956  1.00  0.00     0.003 A 
HETATM    4  C5  UNL     1      21.581   1.180  49.773  1.00  0.00     0.010 A 
HETATM    5  C6  UNL     1      21.944   1.087  51.088  1.00  0.00    -0.017 A 
HETATM    6  C11 UNL     1      23.039   1.740  51.616  1.00  0.00     0.047 A 
ENDROOT
BRANCH   1   7
HETATM    7  O1  UNL     1      24.904   3.160  51.383  1.00  0.00    -0.292 OA
BRANCH   7   8
HETATM    8  C1  UNL     1      26.176   2.673  51.488  1.00  0.00     0.173 C 
HETATM    9  N1  UNL     1      26.831   3.476  50.700  1.00  0.00    -0.277 NA
HETATM   10  H1  UNL     1      26.260   4.201  50.247  1.00  0.00     0.189 HD
BRANCH   8  11
HETATM   11  C12 UNL     1      26.767   1.571  52.239  1.00  0.00     0.019 A 
HETATM   12  C13 UNL     1      26.544   0.248  51.901  1.00  0.00     0.016 A 
HETATM   13  C14 UNL     1      27.134  -0.746  52.653  1.00  0.00     0.004 A 
HETATM   14  C15 UNL     1      27.933  -0.416  53.724  1.00  0.00     0.036 A 
HETATM   15  C16 UNL     1      28.135   0.906  54.033  1.00  0.00     0.066 A 
HETATM   16  C17 UNL     1      27.550   1.933  53.289  1.00  0.00     0.052 A 
BRANCH  15  17
HETATM   17  O2  UNL     1      28.945   1.174  55.115  1.00  0.00    -0.361 OA
HETATM   18  H15 UNL     1      29.196   2.107  55.373  1.00  0.00     0.217 HD
ENDBRANCH  15  17
ENDBRANCH   8  11
ENDBRANCH   7   8
ENDBRANCH   1   7
BRANCH   5  19
HETATM   19  C7  UNL     1      21.135   0.253  51.995  1.00  0.00     0.302 C 
BRANCH  19  20
HETATM   20  N2  UNL     1      20.001   1.043  52.436  1.00  0.00     0.093 N 
HETATM   21  H6  UNL     1      19.335   0.391  52.909  1.00  0.00     0.314 HD
HETATM   22  H7  UNL     1      19.500   1.364  51.578  1.00  0.00     0.314 HD
ENDBRANCH  19  20
BRANCH  19  23
HETATM   23  C8  UNL     1      21.901  -0.317  53.111  1.00  0.00     0.077 A 
HETATM   24  N3  UNL     1      23.002  -0.999  53.268  1.00  0.00    -0.234 NA
HETATM   25  C9  UNL     1      22.800  -1.008  54.665  1.00  0.00     0.123 A 
HETATM   26  C10 UNL     1      21.676  -0.315  54.540  1.00  0.00     0.079 A 
BRANCH  25  27
HETATM   27  N4  UNL     1      23.535  -1.557  55.764  1.00  0.00    -0.384 N 
HETATM   28  H8  UNL     1      23.950  -2.523  55.653  1.00  0.00     0.157 HD
HETATM   29  H9  UNL     1      23.673  -1.040  56.665  1.00  0.00     0.157 HD
ENDBRANCH  25  27
ENDBRANCH  19  23
ENDBRANCH   5  19
TORSDOF 8
ENDMDL
MODEL 6
REMARK VINA RESULT:      -7.9      2.860      5.667
REMARK  8 active torsions:
REMARK  status: ('A' for Active; 'I' for Inactive)
REMARK    1  A    between atoms: C1_2  and  O1_3 
REMARK    2  A    between atoms: C1_2  and  C12_17 
REMARK    3  A    between atoms: O1_3  and  C2_4 
REMARK    4  A    between atoms: C6_8  and  C7_9 
REMARK    5  A    between atoms: C7_9  and  N2_10 
REMARK    6  A    between atoms: C7_9  and  C8_11 
REMARK    7  A    between atoms: C9_13  and  N4_14 
REMARK    8  A    between atoms: C16_21  and  O2_22 
ROOT
HETATM    1  C2  UNL     1      26.561   3.836  49.850  1.00  0.00     0.078 A 
HETATM    2  C3  UNL     1      27.268   4.562  48.900  1.00  0.00     0.037 A 
HETATM    3  C4  UNL     1      26.927   5.844  48.547  1.00  0.00     0.003 A 
HETATM    4  C5  UNL     1      25.853   6.468  49.131  1.00  0.00     0.010 A 
HETATM    5  C6  UNL     1      25.147   5.766  50.067  1.00  0.00    -0.017 A 
HETATM    6  C11 UNL     1      25.467   4.477  50.442  1.00  0.00     0.047 A 
ENDROOT
BRANCH   1   7
HETATM    7  O1  UNL     1      26.818   2.554  50.272  1.00  0.00    -0.292 OA
BRANCH   7   8
HETATM    8  C1  UNL     1      26.743   2.083  51.553  1.00  0.00     0.173 C 
HETATM    9  N1  UNL     1      27.768   2.663  52.107  1.00  0.00    -0.277 NA
HETATM   10  H1  UNL     1      28.315   3.271  51.482  1.00  0.00     0.189 HD
BRANCH   8  11
HETATM   11  C12 UNL     1      25.823   1.180  52.234  1.00  0.00     0.019 A 
HETATM   12  C13 UNL     1      26.229  -0.044  52.735  1.00  0.00     0.016 A 
HETATM   13  C14 UNL     1      25.308  -0.849  53.370  1.00  0.00     0.004 A 
HETATM   14  C15 UNL     1      24.002  -0.432  53.498  1.00  0.00     0.036 A 
HETATM   15  C16 UNL     1      23.631   0.787  52.991  1.00  0.00     0.066 A 
HETATM   16  C17 UNL     1      24.543   1.624  52.343  1.00  0.00     0.052 A 
BRANCH  15  17
HETATM   17  O2  UNL     1      22.311   1.151  53.150  1.00  0.00    -0.361 OA
HETATM   18  H15 UNL     1      21.587   0.476  53.290  1.00  0.00     0.217 HD
ENDBRANCH  15  17
ENDBRANCH   8  11
ENDBRANCH   7   8
ENDBRANCH   1   7
BRANCH   5  19
HETATM   19  C7  UNL     1      23.987   6.404  50.715  1.00  0.00     0.302 C 
BRANCH  19  20
HETATM   20  N2  UNL     1      24.472   7.157  51.857  1.00  0.00     0.093 N 
HETATM   21  H6  UNL     1      24.168   6.647  52.717  1.00  0.00     0.314 HD
HETATM   22  H7  UNL     1      23.942   8.057  51.875  1.00  0.00     0.314 HD
ENDBRANCH  19  20
BRANCH  19  23
HETATM   23  C8  UNL     1      22.917   5.462  51.068  1.00  0.00     0.077 A 
HETATM   24  N3  UNL     1      21.975   4.807  50.447  1.00  0.00    -0.234 NA
HETATM   25  C9  UNL     1      21.561   4.239  51.671  1.00  0.00     0.123 A 
HETATM   26  C10 UNL     1      22.508   4.890  52.332  1.00  0.00     0.079 A 
BRANCH  25  27
HETATM   27  N4  UNL     1      20.523   3.321  52.031  1.00  0.00    -0.384 N 
HETATM   28  H8  UNL     1      19.807   3.066  51.296  1.00  0.00     0.157 HD
HETATM   29  H9  UNL     1      20.448   2.899  52.987  1.00  0.00     0.157 HD
ENDBRANCH  25  27
ENDBRANCH  19  23
ENDBRANCH   5  19
TORSDOF 8
ENDMDL
MODEL 7
REMARK VINA RESULT:      -7.9      2.938      7.431
REMARK  8 active torsions:
REMARK  status: ('A' for Active; 'I' for Inactive)
REMARK    1  A    between atoms: C1_2  and  O1_3 
REMARK    2  A    between atoms: C1_2  and  C12_17 
REMARK    3  A    between atoms: O1_3  and  C2_4 
REMARK    4  A    between atoms: C6_8  and  C7_9 
REMARK    5  A    between atoms: C7_9  and  N2_10 
REMARK    6  A    between atoms: C7_9  and  C8_11 
REMARK    7  A    between atoms: C9_13  and  N4_14 
REMARK    8  A    between atoms: C16_21  and  O2_22 
ROOT
HETATM    1  C2  UNL     1      23.978   0.282  52.885  1.00  0.00     0.078 A 
HETATM    2  C3  UNL     1      23.906  -0.534  54.007  1.00  0.00     0.037 A 
HETATM    3  C4  UNL     1      22.712  -0.922  54.562  1.00  0.00     0.003 A 
HETATM    4  C5  UNL     1      21.521  -0.510  54.018  1.00  0.00     0.010 A 
HETATM    5  C6  UNL     1      21.575   0.294  52.914  1.00  0.00    -0.017 A 
HETATM    6  C11 UNL     1      22.761   0.699  52.335  1.00  0.00     0.047 A 
ENDROOT
BRANCH   1   7
HETATM    7  O1  UNL     1      25.115   0.725  52.255  1.00  0.00    -0.292 OA
BRANCH   7   8
HETATM    8  C1  UNL     1      26.325   0.986  52.835  1.00  0.00     0.173 C 
HETATM    9  N1  UNL     1      26.189   2.235  53.175  1.00  0.00    -0.277 NA
HETATM   10  H1  UNL     1      25.283   2.656  52.933  1.00  0.00     0.189 HD
BRANCH   8  11
HETATM   11  C12 UNL     1      27.516   0.179  53.071  1.00  0.00     0.019 A 
HETATM   12  C13 UNL     1      28.716   0.738  53.471  1.00  0.00     0.016 A 
HETATM   13  C14 UNL     1      29.804  -0.083  53.677  1.00  0.00     0.004 A 
HETATM   14  C15 UNL     1      29.688  -1.442  53.485  1.00  0.00     0.036 A 
HETATM   15  C16 UNL     1      28.483  -1.966  53.089  1.00  0.00     0.066 A 
HETATM   16  C17 UNL     1      27.365  -1.157  52.872  1.00  0.00     0.052 A 
BRANCH  15  17
HETATM   17  O2  UNL     1      28.428  -3.331  52.914  1.00  0.00    -0.361 OA
HETATM   18  H15 UNL     1      27.590  -3.797  52.627  1.00  0.00     0.217 HD
ENDBRANCH  15  17
ENDBRANCH   8  11
ENDBRANCH   7   8
ENDBRANCH   1   7
BRANCH   5  19
HETATM   19  C7  UNL     1      20.317   0.756  52.303  1.00  0.00     0.302 C 
BRANCH  19  20
HETATM   20  N2  UNL     1      20.084   2.122  52.736  1.00  0.00     0.093 N 
HETATM   21  H6  UNL     1      19.399   2.084  53.524  1.00  0.00     0.314 HD
HETATM   22  H7  UNL     1      19.579   2.606  51.961  1.00  0.00     0.314 HD
ENDBRANCH  19  20
BRANCH  19  23
HETATM   23  C8  UNL     1      19.174  -0.127  52.567  1.00  0.00     0.077 A 
HETATM   24  N3  UNL     1      18.857  -1.050  53.433  1.00  0.00    -0.234 NA
HETATM   25  C9  UNL     1      17.609  -1.221  52.795  1.00  0.00     0.123 A 
HETATM   26  C10 UNL     1      17.900  -0.288  51.901  1.00  0.00     0.079 A 
BRANCH  25  27
HETATM   27  N4  UNL     1      16.486  -2.076  53.040  1.00  0.00    -0.384 N 
HETATM   28  H8  UNL     1      16.673  -3.074  53.333  1.00  0.00     0.157 HD
HETATM   29  H9  UNL     1      15.496  -1.749  52.939  1.00  0.00     0.157 HD
ENDBRANCH  25  27
ENDBRANCH  19  23
ENDBRANCH   5  19
TORSDOF 8
ENDMDL
MODEL 8
REMARK VINA RESULT:      -7.7      2.720      7.393
REMARK  8 active torsions:
REMARK  status: ('A' for Active; 'I' for Inactive)
REMARK    1  A    between atoms: C1_2  and  O1_3 
REMARK    2  A    between atoms: C1_2  and  C12_17 
REMARK    3  A    between atoms: O1_3  and  C2_4 
REMARK    4  A    between atoms: C6_8  and  C7_9 
REMARK    5  A    between atoms: C7_9  and  N2_10 
REMARK    6  A    between atoms: C7_9  and  C8_11 
REMARK    7  A    between atoms: C9_13  and  N4_14 
REMARK    8  A    between atoms: C16_21  and  O2_22 
ROOT
HETATM    1  C2  UNL     1      23.706   0.333  52.996  1.00  0.00     0.078 A 
HETATM    2  C3  UNL     1      24.044  -0.545  54.018  1.00  0.00     0.037 A 
HETATM    3  C4  UNL     1      23.104  -1.127  54.832  1.00  0.00     0.003 A 
HETATM    4  C5  UNL     1      21.768  -0.858  54.662  1.00  0.00     0.010 A 
HETATM    5  C6  UNL     1      21.421   0.005  53.661  1.00  0.00    -0.017 A 
HETATM    6  C11 UNL     1      22.344   0.605  52.829  1.00  0.00     0.047 A 
ENDROOT
BRANCH   1   7
HETATM    7  O1  UNL     1      24.564   0.967  52.131  1.00  0.00    -0.292 OA
BRANCH   7   8
HETATM    8  C1  UNL     1      25.744   1.580  52.449  1.00  0.00     0.173 C 
HETATM    9  N1  UNL     1      25.470   2.826  52.190  1.00  0.00    -0.277 NA
HETATM   10  H1  UNL     1      24.518   2.999  51.843  1.00  0.00     0.189 HD
BRANCH   8  11
HETATM   11  C12 UNL     1      27.023   1.090  52.949  1.00  0.00     0.019 A 
HETATM   12  C13 UNL     1      27.432  -0.218  52.766  1.00  0.00     0.016 A 
HETATM   13  C14 UNL     1      28.654  -0.616  53.264  1.00  0.00     0.004 A 
HETATM   14  C15 UNL     1      29.451   0.285  53.934  1.00  0.00     0.036 A 
HETATM   15  C16 UNL     1      29.016   1.576  54.100  1.00  0.00     0.066 A 
HETATM   16  C17 UNL     1      27.783   2.006  53.606  1.00  0.00     0.052 A 
BRANCH  15  17
HETATM   17  O2  UNL     1      29.856   2.431  54.778  1.00  0.00    -0.361 OA
HETATM   18  H15 UNL     1      30.086   2.298  55.742  1.00  0.00     0.217 HD
ENDBRANCH  15  17
ENDBRANCH   8  11
ENDBRANCH   7   8
ENDBRANCH   1   7
BRANCH   5  19
HETATM   19  C7  UNL     1      19.996   0.319  53.450  1.00  0.00     0.302 C 
BRANCH  19  20
HETATM   20  N2  UNL     1      19.218  -0.832  53.869  1.00  0.00     0.093 N 
HETATM   21  H6  UNL     1      19.039  -0.728  54.893  1.00  0.00     0.314 HD
HETATM   22  H7  UNL     1      19.840  -1.667  53.788  1.00  0.00     0.314 HD
ENDBRANCH  19  20
BRANCH  19  23
HETATM   23  C8  UNL     1      19.684   0.749  52.081  1.00  0.00     0.077 A 
HETATM   24  N3  UNL     1      19.538   0.190  50.911  1.00  0.00    -0.234 NA
HETATM   25  C9  UNL     1      19.265   1.452  50.341  1.00  0.00     0.123 A 
HETATM   26  C10 UNL     1      19.407   2.051  51.515  1.00  0.00     0.079 A 
BRANCH  25  27
HETATM   27  N4  UNL     1      18.959   1.888  49.011  1.00  0.00    -0.384 N 
HETATM   28  H8  UNL     1      19.281   2.850  48.715  1.00  0.00     0.157 HD
HETATM   29  H9  UNL     1      18.431   1.292  48.330  1.00  0.00     0.157 HD
ENDBRANCH  25  27
ENDBRANCH  19  23
ENDBRANCH   5  19
TORSDOF 8
ENDMDL
MODEL 9
REMARK VINA RESULT:      -7.7      2.329      5.694
REMARK  8 active torsions:
REMARK  status: ('A' for Active; 'I' for Inactive)
REMARK    1  A    between atoms: C1_2  and  O1_3 
REMARK    2  A    between atoms: C1_2  and  C12_17 
REMARK    3  A    between atoms: O1_3  and  C2_4 
REMARK    4  A    between atoms: C6_8  and  C7_9 
REMARK    5  A    between atoms: C7_9  and  N2_10 
REMARK    6  A    between atoms: C7_9  and  C8_11 
REMARK    7  A    between atoms: C9_13  and  N4_14 
REMARK    8  A    between atoms: C16_21  and  O2_22 
ROOT
HETATM    1  C2  UNL     1      23.210   1.763  50.997  1.00  0.00     0.078 A 
HETATM    2  C3  UNL     1      22.214   0.935  51.500  1.00  0.00     0.037 A 
HETATM    3  C4  UNL     1      22.368   0.212  52.656  1.00  0.00     0.003 A 
HETATM    4  C5  UNL     1      23.537   0.282  53.373  1.00  0.00     0.010 A 
HETATM    5  C6  UNL     1      24.526   1.092  52.891  1.00  0.00    -0.017 A 
HETATM    6  C11 UNL     1      24.398   1.829  51.732  1.00  0.00     0.047 A 
ENDROOT
BRANCH   1   7
HETATM    7  O1  UNL     1      23.156   2.523  49.854  1.00  0.00    -0.292 OA
BRANCH   7   8
HETATM    8  C1  UNL     1      23.296   3.880  49.766  1.00  0.00     0.173 C 
HETATM    9  N1  UNL     1      22.152   4.293  50.230  1.00  0.00    -0.277 NA
HETATM   10  H1  UNL     1      21.503   3.547  50.515  1.00  0.00     0.189 HD
BRANCH   8  11
HETATM   11  C12 UNL     1      24.372   4.746  49.301  1.00  0.00     0.019 A 
HETATM   12  C13 UNL     1      24.125   5.942  48.651  1.00  0.00     0.016 A 
HETATM   13  C14 UNL     1      25.190   6.714  48.238  1.00  0.00     0.004 A 
HETATM   14  C15 UNL     1      26.479   6.293  48.475  1.00  0.00     0.036 A 
HETATM   15  C16 UNL     1      26.691   5.102  49.123  1.00  0.00     0.066 A 
HETATM   16  C17 UNL     1      25.631   4.299  49.551  1.00  0.00     0.052 A 
BRANCH  15  17
HETATM   17  O2  UNL     1      28.002   4.733  49.331  1.00  0.00    -0.361 OA
HETATM   18  H15 UNL     1      28.569   4.351  48.602  1.00  0.00     0.217 HD
ENDBRANCH  15  17
ENDBRANCH   8  11
ENDBRANCH   7   8
ENDBRANCH   1   7
BRANCH   5  19
HETATM   19  C7  UNL     1      25.795   1.191  53.634  1.00  0.00     0.302 C 
BRANCH  19  20
HETATM   20  N2  UNL     1      26.466   2.407  53.213  1.00  0.00     0.093 N 
HETATM   21  H6  UNL     1      27.132   2.673  53.973  1.00  0.00     0.314 HD
HETATM   22  H7  UNL     1      25.747   3.165  53.206  1.00  0.00     0.314 HD
ENDBRANCH  19  20
BRANCH  19  23
HETATM   23  C8  UNL     1      26.645   0.000  53.512  1.00  0.00     0.077 A 
HETATM   24  N3  UNL     1      27.539  -0.617  54.235  1.00  0.00    -0.234 NA
HETATM   25  C9  UNL     1      27.698  -1.582  53.217  1.00  0.00     0.123 A 
HETATM   26  C10 UNL     1      26.794  -0.979  52.458  1.00  0.00     0.079 A 
BRANCH  25  27
HETATM   27  N4  UNL     1      28.520  -2.747  53.082  1.00  0.00    -0.384 N 
HETATM   28  H8  UNL     1      29.282  -2.737  52.349  1.00  0.00     0.157 HD
HETATM   29  H9  UNL     1      28.394  -3.599  53.678  1.00  0.00     0.157 HD
ENDBRANCH  25  27
ENDBRANCH  19  23
ENDBRANCH   5  19
TORSDOF 8
ENDMDL
