MODEL 1
REMARK VINA RESULT:      -8.0      0.000      0.000
REMARK  4 active torsions:
REMARK  status: ('A' for Active; 'I' for Inactive)
REMARK    1  A    between atoms: S1_2  and  C3_4 
REMARK    2  A    between atoms: C6_7  and  C7_8 
REMARK    3  A    between atoms: C10_12  and  C11_13 
REMARK    4  A    between atoms: C11_13  and  C14_16 
ROOT
HETATM    1  C7  UNL     1      23.020   0.801  52.447  1.00  0.00    -0.015 C 
HETATM    2  C8  UNL     1      22.202   0.062  53.251  1.00  0.00     0.143 C 
HETATM    3  O1  UNL     1      20.855   0.112  52.800  1.00  0.00    -0.361 OA
HETATM    4  C9  UNL     1      21.023   0.284  51.347  1.00  0.00     0.188 C 
HETATM    5  C10 UNL     1      22.090   1.377  51.482  1.00  0.00     0.081 C 
ENDROOT
BRANCH   1   6
HETATM    6  C6  UNL     1      24.394   0.738  52.908  1.00  0.00    -0.027 A 
HETATM    7  C5  UNL     1      25.181   1.819  53.220  1.00  0.00     0.013 A 
HETATM    8  C4  UNL     1      26.470   1.728  53.697  1.00  0.00     0.019 A 
HETATM    9  C3  UNL     1      27.043   0.493  53.888  1.00  0.00    -0.007 A 
HETATM   10  C20 UNL     1      26.307  -0.634  53.595  1.00  0.00     0.019 A 
HETATM   11  C19 UNL     1      25.026  -0.460  53.122  1.00  0.00     0.013 A 
BRANCH   9  12
HETATM   12  S1  UNL     1      28.702   0.428  54.504  1.00  0.00    -0.176 SA
HETATM   13  C1  UNL     1      29.568  -0.739  53.864  1.00  0.00     0.057 C 
HETATM   14  C2  UNL     1      29.490   2.035  54.451  1.00  0.00     0.087 C 
ENDBRANCH   9  12
ENDBRANCH   1   6
BRANCH   5  15
HETATM   15  C11 UNL     1      22.550   1.951  50.252  1.00  0.00    -0.018 C 
HETATM   16  C12 UNL     1      21.940   1.551  49.123  1.00  0.00    -0.020 C 
HETATM   17  C13 UNL     1      22.342   2.089  47.774  1.00  0.00     0.036 C 
BRANCH  15  18
HETATM   18  C14 UNL     1      23.562   2.984  50.115  1.00  0.00     0.082 A 
HETATM   19  C15 UNL     1      23.414   4.348  50.396  1.00  0.00     0.040 A 
HETATM   20  C16 UNL     1      24.588   5.024  50.147  1.00  0.00     0.035 A 
HETATM   21  C17 UNL     1      25.411   4.008  49.715  1.00  0.00     0.050 A 
HETATM   22  C18 UNL     1      26.847   4.159  49.293  1.00  0.00     0.076 C 
HETATM   23  O2  UNL     1      24.799   2.866  49.708  1.00  0.00    -0.315 OA
ENDBRANCH  15  18
ENDBRANCH   5  15
TORSDOF 4
ENDMDL
MODEL 2
REMARK VINA RESULT:      -7.9      3.132      5.801
REMARK  4 active torsions:
REMARK  status: ('A' for Active; 'I' for Inactive)
REMARK    1  A    between atoms: S1_2  and  C3_4 
REMARK    2  A    between atoms: C6_7  and  C7_8 
REMARK    3  A    between atoms: C10_12  and  C11_13 
REMARK    4  A    between atoms: C11_13  and  C14_16 
ROOT
HETATM    1  C7  UNL     1      24.383  -0.026  53.518  1.00  0.00    -0.015 C 
HETATM    2  C8  UNL     1      24.885  -0.776  54.541  1.00  0.00     0.143 C 
HETATM    3  O1  UNL     1      26.293  -0.615  54.655  1.00  0.00    -0.361 OA
HETATM    4  C9  UNL     1      26.484   0.764  54.171  1.00  0.00     0.188 C 
HETATM    5  C10 UNL     1      25.579   0.584  52.947  1.00  0.00     0.081 C 
ENDROOT
BRANCH   1   6
HETATM    6  C6  UNL     1      22.945  -0.189  53.414  1.00  0.00    -0.027 A 
HETATM    7  C5  UNL     1      22.176   0.182  52.339  1.00  0.00     0.013 A 
HETATM    8  C4  UNL     1      20.818  -0.024  52.249  1.00  0.00     0.019 A 
HETATM    9  C3  UNL     1      20.149  -0.639  53.281  1.00  0.00    -0.007 A 
HETATM   10  C20 UNL     1      20.861  -1.037  54.391  1.00  0.00     0.019 A 
HETATM   11  C19 UNL     1      22.216  -0.795  54.406  1.00  0.00     0.013 A 
BRANCH   9  12
HETATM   12  S1  UNL     1      18.402  -0.881  53.118  1.00  0.00    -0.176 SA
HETATM   13  C1  UNL     1      17.837  -0.466  51.694  1.00  0.00     0.057 C 
HETATM   14  C2  UNL     1      17.910  -2.518  53.651  1.00  0.00     0.087 C 
ENDBRANCH   9  12
ENDBRANCH   1   6
BRANCH   5  15
HETATM   15  C11 UNL     1      25.495   1.710  52.065  1.00  0.00    -0.018 C 
HETATM   16  C12 UNL     1      26.509   1.888  51.201  1.00  0.00    -0.020 C 
HETATM   17  C13 UNL     1      26.524   3.038  50.228  1.00  0.00     0.036 C 
BRANCH  15  18
HETATM   18  C14 UNL     1      24.382   2.638  51.963  1.00  0.00     0.082 A 
HETATM   19  C15 UNL     1      24.010   3.610  52.901  1.00  0.00     0.040 A 
HETATM   20  C16 UNL     1      22.902   4.304  52.466  1.00  0.00     0.035 A 
HETATM   21  C17 UNL     1      22.652   3.701  51.253  1.00  0.00     0.050 A 
HETATM   22  C18 UNL     1      21.535   4.056  50.309  1.00  0.00     0.076 C 
HETATM   23  O2  UNL     1      23.508   2.762  50.999  1.00  0.00    -0.315 OA
ENDBRANCH  15  18
ENDBRANCH   5  15
TORSDOF 4
ENDMDL
MODEL 3
REMARK VINA RESULT:      -7.8      3.099      5.744
REMARK  4 active torsions:
REMARK  status: ('A' for Active; 'I' for Inactive)
REMARK    1  A    between atoms: S1_2  and  C3_4 
REMARK    2  A    between atoms: C6_7  and  C7_8 
REMARK    3  A    between atoms: C10_12  and  C11_13 
REMARK    4  A    between atoms: C11_13  and  C14_16 
ROOT
HETATM    1  C7  UNL     1      24.031   0.306  53.260  1.00  0.00    -0.015 C 
HETATM    2  C8  UNL     1      24.760  -0.630  53.933  1.00  0.00     0.143 C 
HETATM    3  O1  UNL     1      26.137  -0.281  53.972  1.00  0.00    -0.361 OA
HETATM    4  C9  UNL     1      26.082   1.191  53.951  1.00  0.00     0.188 C 
HETATM    5  C10 UNL     1      25.050   1.252  52.819  1.00  0.00     0.081 C 
ENDROOT
BRANCH   1   6
HETATM    6  C6  UNL     1      22.626  -0.053  53.233  1.00  0.00    -0.027 A 
HETATM    7  C5  UNL     1      21.983  -0.832  54.162  1.00  0.00     0.013 A 
HETATM    8  C4  UNL     1      20.637  -1.121  54.136  1.00  0.00     0.019 A 
HETATM    9  C3  UNL     1      19.848  -0.614  53.129  1.00  0.00    -0.007 A 
HETATM   10  C20 UNL     1      20.430   0.177  52.163  1.00  0.00     0.019 A 
HETATM   11  C19 UNL     1      21.782   0.420  52.260  1.00  0.00     0.013 A 
BRANCH   9  12
HETATM   12  S1  UNL     1      18.123  -1.013  53.138  1.00  0.00    -0.176 SA
HETATM   13  C1  UNL     1      17.377  -0.620  51.793  1.00  0.00     0.057 C 
HETATM   14  C2  UNL     1      17.838  -2.700  53.666  1.00  0.00     0.087 C 
ENDBRANCH   9  12
ENDBRANCH   1   6
BRANCH   5  15
HETATM   15  C11 UNL     1      24.703   2.567  52.366  1.00  0.00    -0.018 C 
HETATM   16  C12 UNL     1      24.038   3.356  53.227  1.00  0.00    -0.020 C 
HETATM   17  C13 UNL     1      23.624   4.756  52.856  1.00  0.00     0.036 C 
BRANCH  15  18
HETATM   18  C14 UNL     1      25.068   3.157  51.089  1.00  0.00     0.082 A 
HETATM   19  C15 UNL     1      24.234   3.334  49.977  1.00  0.00     0.040 A 
HETATM   20  C16 UNL     1      24.926   3.927  48.943  1.00  0.00     0.035 A 
HETATM   21  C17 UNL     1      26.177   4.083  49.496  1.00  0.00     0.050 A 
HETATM   22  C18 UNL     1      27.371   4.691  48.812  1.00  0.00     0.076 C 
HETATM   23  O2  UNL     1      26.224   3.637  50.712  1.00  0.00    -0.315 OA
ENDBRANCH  15  18
ENDBRANCH   5  15
TORSDOF 4
ENDMDL
MODEL 4
REMARK VINA RESULT:      -7.7      3.341      6.333
REMARK  4 active torsions:
REMARK  status: ('A' for Active; 'I' for Inactive)
REMARK    1  A    between atoms: S1_2  and  C3_4 
REMARK    2  A    between atoms: C6_7  and  C7_8 
REMARK    3  A    between atoms: C10_12  and  C11_13 
REMARK    4  A    between atoms: C11_13  and  C14_16 
ROOT
HETATM    1  C7  UNL     1      21.845  -0.347  53.644  1.00  0.00    -0.015 C 
HETATM    2  C8  UNL     1      21.211  -1.054  54.623  1.00  0.00     0.143 C 
HETATM    3  O1  UNL     1      22.124  -1.872  55.342  1.00  0.00    -0.361 OA
HETATM    4  C9  UNL     1      23.372  -1.095  55.248  1.00  0.00     0.188 C 
HETATM    5  C10 UNL     1      23.223  -0.815  53.748  1.00  0.00     0.081 C 
ENDROOT
BRANCH   1   6
HETATM    6  C6  UNL     1      20.908   0.492  52.921  1.00  0.00    -0.027 A 
HETATM    7  C5  UNL     1      20.807   1.856  53.036  1.00  0.00     0.013 A 
HETATM    8  C4  UNL     1      19.937   2.634  52.305  1.00  0.00     0.019 A 
HETATM    9  C3  UNL     1      19.098   2.045  51.387  1.00  0.00    -0.007 A 
HETATM   10  C20 UNL     1      19.149   0.679  51.222  1.00  0.00     0.019 A 
HETATM   11  C19 UNL     1      20.045  -0.029  51.990  1.00  0.00     0.013 A 
BRANCH   9  12
HETATM   12  S1  UNL     1      17.998   3.087  50.471  1.00  0.00    -0.176 SA
HETATM   13  C1  UNL     1      17.279   2.343  49.267  1.00  0.00     0.057 C 
HETATM   14  C2  UNL     1      16.881   3.980  51.550  1.00  0.00     0.087 C 
ENDBRANCH   9  12
ENDBRANCH   1   6
BRANCH   5  15
HETATM   15  C11 UNL     1      24.304  -0.099  53.139  1.00  0.00    -0.018 C 
HETATM   16  C12 UNL     1      25.500  -0.710  53.102  1.00  0.00    -0.020 C 
HETATM   17  C13 UNL     1      26.706  -0.050  52.485  1.00  0.00     0.036 C 
BRANCH  15  18
HETATM   18  C14 UNL     1      24.214   1.197  52.488  1.00  0.00     0.082 A 
HETATM   19  C15 UNL     1      24.403   2.451  53.083  1.00  0.00     0.040 A 
HETATM   20  C16 UNL     1      24.237   3.457  52.156  1.00  0.00     0.035 A 
HETATM   21  C17 UNL     1      23.948   2.742  51.015  1.00  0.00     0.050 A 
HETATM   22  C18 UNL     1      23.667   3.327  49.658  1.00  0.00     0.076 C 
HETATM   23  O2  UNL     1      23.942   1.465  51.237  1.00  0.00    -0.315 OA
ENDBRANCH  15  18
ENDBRANCH   5  15
TORSDOF 4
ENDMDL
MODEL 5
REMARK VINA RESULT:      -7.6      3.420      6.754
REMARK  4 active torsions:
REMARK  status: ('A' for Active; 'I' for Inactive)
REMARK    1  A    between atoms: S1_2  and  C3_4 
REMARK    2  A    between atoms: C6_7  and  C7_8 
REMARK    3  A    between atoms: C10_12  and  C11_13 
REMARK    4  A    between atoms: C11_13  and  C14_16 
ROOT
HETATM    1  C7  UNL     1      22.190  -0.379  53.487  1.00  0.00    -0.015 C 
HETATM    2  C8  UNL     1      21.486  -1.133  54.378  1.00  0.00     0.143 C 
HETATM    3  O1  UNL     1      22.352  -1.899  55.203  1.00  0.00    -0.361 OA
HETATM    4  C9  UNL     1      23.551  -1.045  55.267  1.00  0.00     0.188 C 
HETATM    5  C10 UNL     1      23.571  -0.762  53.761  1.00  0.00     0.081 C 
ENDROOT
BRANCH   1   6
HETATM    6  C6  UNL     1      21.300   0.407  52.654  1.00  0.00    -0.027 A 
HETATM    7  C5  UNL     1      20.589   1.508  53.064  1.00  0.00     0.013 A 
HETATM    8  C4  UNL     1      19.784   2.263  52.241  1.00  0.00     0.019 A 
HETATM    9  C3  UNL     1      19.656   1.926  50.913  1.00  0.00    -0.007 A 
HETATM   10  C20 UNL     1      20.342   0.831  50.436  1.00  0.00     0.019 A 
HETATM   11  C19 UNL     1      21.127   0.128  51.322  1.00  0.00     0.013 A 
BRANCH   9  12
HETATM   12  S1  UNL     1      18.608   2.927  49.895  1.00  0.00    -0.176 SA
HETATM   13  C1  UNL     1      19.052   2.958  48.371  1.00  0.00     0.057 C 
HETATM   14  C2  UNL     1      16.878   2.539  50.145  1.00  0.00     0.087 C 
ENDBRANCH   9  12
ENDBRANCH   1   6
BRANCH   5  15
HETATM   15  C11 UNL     1      24.673   0.026  53.291  1.00  0.00    -0.018 C 
HETATM   16  C12 UNL     1      24.388   1.042  52.459  1.00  0.00    -0.020 C 
HETATM   17  C13 UNL     1      25.467   1.936  51.905  1.00  0.00     0.036 C 
BRANCH  15  18
HETATM   18  C14 UNL     1      26.062  -0.120  53.689  1.00  0.00     0.082 A 
HETATM   19  C15 UNL     1      26.690   0.484  54.786  1.00  0.00     0.040 A 
HETATM   20  C16 UNL     1      28.015   0.114  54.850  1.00  0.00     0.035 A 
HETATM   21  C17 UNL     1      28.127  -0.719  53.760  1.00  0.00     0.050 A 
HETATM   22  C18 UNL     1      29.377  -1.433  53.322  1.00  0.00     0.076 C 
HETATM   23  O2  UNL     1      27.003  -0.830  53.124  1.00  0.00    -0.315 OA
ENDBRANCH  15  18
ENDBRANCH   5  15
TORSDOF 4
ENDMDL
MODEL 6
REMARK VINA RESULT:      -7.4      2.826      5.921
REMARK  4 active torsions:
REMARK  status: ('A' for Active; 'I' for Inactive)
REMARK    1  A    between atoms: S1_2  and  C3_4 
REMARK    2  A    between atoms: C6_7  and  C7_8 
REMARK    3  A    between atoms: C10_12  and  C11_13 
REMARK    4  A    between atoms: C11_13  and  C14_16 
ROOT
HETATM    1  C7  UNL     1      24.869   1.408  52.963  1.00  0.00    -0.015 C 
HETATM    2  C8  UNL     1      26.214   1.217  53.076  1.00  0.00     0.143 C 
HETATM    3  O1  UNL     1      26.507   0.017  53.781  1.00  0.00    -0.361 OA
HETATM    4  C9  UNL     1      25.351  -0.830  53.439  1.00  0.00     0.188 C 
HETATM    5  C10 UNL     1      24.318   0.274  53.697  1.00  0.00     0.081 C 
ENDROOT
BRANCH   1   6
HETATM    6  C6  UNL     1      24.578   2.629  52.235  1.00  0.00    -0.027 A 
HETATM    7  C5  UNL     1      24.895   2.869  50.921  1.00  0.00     0.013 A 
HETATM    8  C4  UNL     1      24.568   4.021  50.242  1.00  0.00     0.019 A 
HETATM    9  C3  UNL     1      23.879   5.022  50.886  1.00  0.00    -0.007 A 
HETATM   10  C20 UNL     1      23.529   4.846  52.206  1.00  0.00     0.019 A 
HETATM   11  C19 UNL     1      23.892   3.666  52.815  1.00  0.00     0.013 A 
BRANCH   9  12
HETATM   12  S1  UNL     1      23.481   6.485  49.970  1.00  0.00    -0.176 SA
HETATM   13  C1  UNL     1      23.799   7.828  50.756  1.00  0.00     0.057 C 
HETATM   14  C2  UNL     1      24.156   6.431  48.312  1.00  0.00     0.087 C 
ENDBRANCH   9  12
ENDBRANCH   1   6
BRANCH   5  15
HETATM   15  C11 UNL     1      22.946  -0.114  53.554  1.00  0.00    -0.018 C 
HETATM   16  C12 UNL     1      22.500  -1.096  54.356  1.00  0.00    -0.020 C 
HETATM   17  C13 UNL     1      21.076  -1.583  54.292  1.00  0.00     0.036 C 
BRANCH  15  18
HETATM   18  C14 UNL     1      21.968   0.505  52.676  1.00  0.00     0.082 A 
HETATM   19  C15 UNL     1      21.716   0.179  51.337  1.00  0.00     0.040 A 
HETATM   20  C16 UNL     1      20.718   0.978  50.824  1.00  0.00     0.035 A 
HETATM   21  C17 UNL     1      20.406   1.769  51.907  1.00  0.00     0.050 A 
HETATM   22  C18 UNL     1      19.362   2.851  51.935  1.00  0.00     0.076 C 
HETATM   23  O2  UNL     1      21.133   1.475  52.940  1.00  0.00    -0.315 OA
ENDBRANCH  15  18
ENDBRANCH   5  15
TORSDOF 4
ENDMDL
MODEL 7
REMARK VINA RESULT:      -7.4      2.424      5.462
REMARK  4 active torsions:
REMARK  status: ('A' for Active; 'I' for Inactive)
REMARK    1  A    between atoms: S1_2  and  C3_4 
REMARK    2  A    between atoms: C6_7  and  C7_8 
REMARK    3  A    between atoms: C10_12  and  C11_13 
REMARK    4  A    between atoms: C11_13  and  C14_16 
ROOT
HETATM    1  C7  UNL     1      22.420   1.349  51.879  1.00  0.00    -0.015 C 
HETATM    2  C8  UNL     1      21.135   1.338  51.421  1.00  0.00     0.143 C 
HETATM    3  O1  UNL     1      20.463   0.145  51.801  1.00  0.00    -0.361 OA
HETATM    4  C9  UNL     1      21.127  -0.191  53.072  1.00  0.00     0.188 C 
HETATM    5  C10 UNL     1      22.541   0.049  52.531  1.00  0.00     0.081 C 
ENDROOT
BRANCH   1   6
HETATM    6  C6  UNL     1      23.097   2.573  51.495  1.00  0.00    -0.027 A 
HETATM    7  C5  UNL     1      23.816   2.759  50.341  1.00  0.00     0.013 A 
HETATM    8  C4  UNL     1      24.412   3.947  49.980  1.00  0.00     0.019 A 
HETATM    9  C3  UNL     1      24.304   5.044  50.803  1.00  0.00    -0.007 A 
HETATM   10  C20 UNL     1      23.595   4.926  51.978  1.00  0.00     0.019 A 
HETATM   11  C19 UNL     1      23.028   3.705  52.267  1.00  0.00     0.013 A 
BRANCH   9  12
HETATM   12  S1  UNL     1      25.088   6.549  50.297  1.00  0.00    -0.176 SA
HETATM   13  C1  UNL     1      25.888   6.416  48.932  1.00  0.00     0.057 C 
HETATM   14  C2  UNL     1      23.955   7.934  50.349  1.00  0.00     0.087 C 
ENDBRANCH   9  12
ENDBRANCH   1   6
BRANCH   5  15
HETATM   15  C11 UNL     1      23.612  -0.233  53.441  1.00  0.00    -0.018 C 
HETATM   16  C12 UNL     1      23.303  -0.920  54.555  1.00  0.00    -0.020 C 
HETATM   17  C13 UNL     1      24.349  -1.272  55.580  1.00  0.00     0.036 C 
BRANCH  15  18
HETATM   18  C14 UNL     1      25.014   0.086  53.240  1.00  0.00     0.082 A 
HETATM   19  C15 UNL     1      25.988  -0.736  52.658  1.00  0.00     0.040 A 
HETATM   20  C16 UNL     1      27.209  -0.098  52.635  1.00  0.00     0.035 A 
HETATM   21  C17 UNL     1      26.906   1.111  53.220  1.00  0.00     0.050 A 
HETATM   22  C18 UNL     1      27.873   2.236  53.466  1.00  0.00     0.076 C 
HETATM   23  O2  UNL     1      25.655   1.183  53.551  1.00  0.00    -0.315 OA
ENDBRANCH  15  18
ENDBRANCH   5  15
TORSDOF 4
ENDMDL
MODEL 8
REMARK VINA RESULT:      -7.3      1.304      2.150
REMARK  4 active torsions:
REMARK  status: ('A' for Active; 'I' for Inactive)
REMARK    1  A    between atoms: S1_2  and  C3_4 
REMARK    2  A    between atoms: C6_7  and  C7_8 
REMARK    3  A    between atoms: C10_12  and  C11_13 
REMARK    4  A    between atoms: C11_13  and  C14_16 
ROOT
HETATM    1  C7  UNL     1      22.869   0.220  53.500  1.00  0.00    -0.015 C 
HETATM    2  C8  UNL     1      22.428  -0.631  54.470  1.00  0.00     0.143 C 
HETATM    3  O1  UNL     1      21.013  -0.766  54.432  1.00  0.00    -0.361 OA
HETATM    4  C9  UNL     1      20.724  -0.562  53.001  1.00  0.00     0.188 C 
HETATM    5  C10 UNL     1      21.630   0.668  52.874  1.00  0.00     0.081 C 
ENDROOT
BRANCH   1   6
HETATM    6  C6  UNL     1      24.314   0.346  53.539  1.00  0.00    -0.027 A 
HETATM    7  C5  UNL     1      25.197  -0.677  53.777  1.00  0.00     0.013 A 
HETATM    8  C4  UNL     1      26.568  -0.539  53.765  1.00  0.00     0.019 A 
HETATM    9  C3  UNL     1      27.129   0.689  53.501  1.00  0.00    -0.007 A 
HETATM   10  C20 UNL     1      26.298   1.760  53.254  1.00  0.00     0.019 A 
HETATM   11  C19 UNL     1      24.940   1.540  53.283  1.00  0.00     0.013 A 
BRANCH   9  12
HETATM   12  S1  UNL     1      28.895   0.818  53.498  1.00  0.00    -0.176 SA
HETATM   13  C1  UNL     1      29.449   1.930  54.485  1.00  0.00     0.057 C 
HETATM   14  C2  UNL     1      29.674  -0.783  53.688  1.00  0.00     0.087 C 
ENDBRANCH   9  12
ENDBRANCH   1   6
BRANCH   5  15
HETATM   15  C11 UNL     1      21.629   1.310  51.592  1.00  0.00    -0.018 C 
HETATM   16  C12 UNL     1      21.249   0.570  50.537  1.00  0.00    -0.020 C 
HETATM   17  C13 UNL     1      21.210   1.142  49.144  1.00  0.00     0.036 C 
BRANCH  15  18
HETATM   18  C14 UNL     1      21.928   2.708  51.334  1.00  0.00     0.082 A 
HETATM   19  C15 UNL     1      21.105   3.807  51.608  1.00  0.00     0.040 A 
HETATM   20  C16 UNL     1      21.720   4.980  51.228  1.00  0.00     0.035 A 
HETATM   21  C17 UNL     1      22.918   4.519  50.729  1.00  0.00     0.050 A 
HETATM   22  C18 UNL     1      24.018   5.371  50.158  1.00  0.00     0.076 C 
HETATM   23  O2  UNL     1      23.004   3.228  50.804  1.00  0.00    -0.315 OA
ENDBRANCH  15  18
ENDBRANCH   5  15
TORSDOF 4
ENDMDL
MODEL 9
REMARK VINA RESULT:      -7.2      2.570      5.503
REMARK  4 active torsions:
REMARK  status: ('A' for Active; 'I' for Inactive)
REMARK    1  A    between atoms: S1_2  and  C3_4 
REMARK    2  A    between atoms: C6_7  and  C7_8 
REMARK    3  A    between atoms: C10_12  and  C11_13 
REMARK    4  A    between atoms: C11_13  and  C14_16 
ROOT
HETATM    1  C7  UNL     1      22.816   2.386  49.308  1.00  0.00    -0.015 C 
HETATM    2  C8  UNL     1      22.094   2.326  48.152  1.00  0.00     0.143 C 
HETATM    3  O1  UNL     1      21.118   1.295  48.206  1.00  0.00    -0.361 OA
HETATM    4  C9  UNL     1      20.803   1.245  49.645  1.00  0.00     0.188 C 
HETATM    5  C10 UNL     1      22.271   1.279  50.086  1.00  0.00     0.081 C 
ENDROOT
BRANCH   1   6
HETATM    6  C6  UNL     1      23.803   3.447  49.248  1.00  0.00    -0.027 A 
HETATM    7  C5  UNL     1      25.143   3.305  49.511  1.00  0.00     0.013 A 
HETATM    8  C4  UNL     1      26.067   4.321  49.405  1.00  0.00     0.019 A 
HETATM    9  C3  UNL     1      25.662   5.575  49.012  1.00  0.00    -0.007 A 
HETATM   10  C20 UNL     1      24.330   5.786  48.732  1.00  0.00     0.019 A 
HETATM   11  C19 UNL     1      23.469   4.720  48.862  1.00  0.00     0.013 A 
BRANCH   9  12
HETATM   12  S1  UNL     1      26.886   6.848  48.890  1.00  0.00    -0.176 SA
HETATM   13  C1  UNL     1      28.230   6.368  48.195  1.00  0.00     0.057 C 
HETATM   14  C2  UNL     1      26.206   8.355  48.202  1.00  0.00     0.087 C 
ENDBRANCH   9  12
ENDBRANCH   1   6
BRANCH   5  15
HETATM   15  C11 UNL     1      22.498   1.174  51.497  1.00  0.00    -0.018 C 
HETATM   16  C12 UNL     1      21.478   0.728  52.250  1.00  0.00    -0.020 C 
HETATM   17  C13 UNL     1      21.605   0.578  53.744  1.00  0.00     0.036 C 
BRANCH  15  18
HETATM   18  C14 UNL     1      23.751   1.431  52.185  1.00  0.00     0.082 A 
HETATM   19  C15 UNL     1      24.094   2.585  52.903  1.00  0.00     0.040 A 
HETATM   20  C16 UNL     1      25.367   2.474  53.418  1.00  0.00     0.035 A 
HETATM   21  C17 UNL     1      25.742   1.225  52.974  1.00  0.00     0.050 A 
HETATM   22  C18 UNL     1      27.064   0.559  53.238  1.00  0.00     0.076 C 
HETATM   23  O2  UNL     1      24.804   0.662  52.278  1.00  0.00    -0.315 OA
ENDBRANCH  15  18
ENDBRANCH   5  15
TORSDOF 4
ENDMDL
