MODEL 1
REMARK VINA RESULT:      -8.1      0.000      0.000
REMARK  7 active torsions:
REMARK  status: ('A' for Active; 'I' for Inactive)
REMARK    1  A    between atoms: O1_2  and  C2_3 
REMARK    2  A    between atoms: C2_3  and  C3_4 
REMARK    3  A    between atoms: C8_10  and  C9_11 
REMARK    4  A    between atoms: C9_11  and  O2_12 
REMARK    5  A    between atoms: O2_12  and  C10_13 
REMARK    6  A    between atoms: C13_16  and  N2_17 
REMARK       I    between atoms: N2_17  and  C14_18 
REMARK       I    between atoms: C14_18  and  N3_20 
REMARK    7  A    between atoms: N3_20  and  C15_21 
ROOT
HETATM    1  C10 UNL     1      24.048   2.882  50.541  1.00  0.00     0.069 A 
HETATM    2  C11 UNL     1      25.353   2.624  50.907  1.00  0.00     0.039 A 
HETATM    3  C12 UNL     1      26.410   3.284  50.326  1.00  0.00     0.032 A 
HETATM    4  C13 UNL     1      26.231   4.236  49.351  1.00  0.00     0.036 A 
HETATM    5  C21 UNL     1      24.918   4.461  49.016  1.00  0.00     0.032 A 
HETATM    6  C22 UNL     1      23.824   3.830  49.565  1.00  0.00     0.039 A 
ENDROOT
BRANCH   4   7
HETATM    7  N2  UNL     1      27.362   4.875  48.796  1.00  0.00    -0.309 N 
HETATM    8  C14 UNL     1      27.687   6.240  48.704  1.00  0.00     0.325 C 
HETATM    9  O3  UNL     1      26.883   7.082  49.171  1.00  0.00    -0.247 OA
HETATM   10  N3  UNL     1      28.862   6.764  48.121  1.00  0.00    -0.309 N 
HETATM   11  H16 UNL     1      29.555   6.090  47.720  1.00  0.00     0.170 HD
HETATM   12  H15 UNL     1      28.115   4.285  48.369  1.00  0.00     0.170 HD
BRANCH  10  13
HETATM   13  C15 UNL     1      29.057   8.173  48.099  1.00  0.00     0.036 A 
HETATM   14  C16 UNL     1      29.868   8.691  49.115  1.00  0.00     0.031 A 
HETATM   15  C17 UNL     1      30.088  10.061  49.134  1.00  0.00     0.021 A 
HETATM   16  C18 UNL     1      29.551  10.923  48.209  1.00  0.00     0.011 A 
HETATM   17 BR1  UNL     1      29.902  12.810  48.300  1.00  0.00    -0.051 Br
HETATM   18  C19 UNL     1      28.754  10.393  47.211  1.00  0.00     0.021 A 
HETATM   19  C20 UNL     1      28.515   9.034  47.164  1.00  0.00     0.031 A 
ENDBRANCH  10  13
ENDBRANCH   4   7
BRANCH   1  20
HETATM   20  O2  UNL     1      23.022   2.183  51.163  1.00  0.00    -0.345 OA
BRANCH  20  21
HETATM   21  C9  UNL     1      22.944   2.225  52.568  1.00  0.00     0.235 C 
BRANCH  21  22
HETATM   22  C8  UNL     1      22.360   1.016  53.156  1.00  0.00     0.063 A 
HETATM   23  C4  UNL     1      23.216  -0.057  53.643  1.00  0.00    -0.012 A 
HETATM   24  C3  UNL     1      24.526   0.071  53.548  1.00  0.00     0.012 C 
HETATM   25  C5  UNL     1      22.547  -1.214  54.209  1.00  0.00     0.011 A 
HETATM   26  C6  UNL     1      21.228  -1.265  54.268  1.00  0.00    -0.004 A 
HETATM   27  C7  UNL     1      20.344  -0.182  53.777  1.00  0.00     0.176 A 
HETATM   28  N1  UNL     1      21.085   0.936  53.228  1.00  0.00    -0.287 NA
BRANCH  24  29
HETATM   29  C2  UNL     1      25.588  -0.859  53.962  1.00  0.00     0.195 C 
BRANCH  29  30
HETATM   30  O1  UNL     1      26.298  -0.435  55.061  1.00  0.00    -0.392 OA
HETATM   31  C1  UNL     1      27.473   0.232  54.745  1.00  0.00     0.201 C 
ENDBRANCH  29  30
ENDBRANCH  24  29
ENDBRANCH  21  22
ENDBRANCH  20  21
ENDBRANCH   1  20
TORSDOF 7
ENDMDL
MODEL 2
REMARK VINA RESULT:      -7.9      2.174      2.570
REMARK  7 active torsions:
REMARK  status: ('A' for Active; 'I' for Inactive)
REMARK    1  A    between atoms: O1_2  and  C2_3 
REMARK    2  A    between atoms: C2_3  and  C3_4 
REMARK    3  A    between atoms: C8_10  and  C9_11 
REMARK    4  A    between atoms: C9_11  and  O2_12 
REMARK    5  A    between atoms: O2_12  and  C10_13 
REMARK    6  A    between atoms: C13_16  and  N2_17 
REMARK       I    between atoms: N2_17  and  C14_18 
REMARK       I    between atoms: C14_18  and  N3_20 
REMARK    7  A    between atoms: N3_20  and  C15_21 
ROOT
HETATM    1  C10 UNL     1      24.657   3.084  50.228  1.00  0.00     0.069 A 
HETATM    2  C11 UNL     1      24.165   4.227  49.633  1.00  0.00     0.039 A 
HETATM    3  C12 UNL     1      24.995   5.138  49.024  1.00  0.00     0.032 A 
HETATM    4  C13 UNL     1      26.357   4.966  48.971  1.00  0.00     0.036 A 
HETATM    5  C21 UNL     1      26.805   3.817  49.575  1.00  0.00     0.032 A 
HETATM    6  C22 UNL     1      26.019   2.872  50.199  1.00  0.00     0.039 A 
ENDROOT
BRANCH   4   7
HETATM    7  N2  UNL     1      27.151   5.942  48.330  1.00  0.00    -0.309 N 
HETATM    8  C14 UNL     1      28.546   6.121  48.313  1.00  0.00     0.325 C 
HETATM    9  O3  UNL     1      29.262   5.315  48.954  1.00  0.00    -0.247 OA
HETATM   10  N3  UNL     1      29.232   7.147  47.626  1.00  0.00    -0.309 N 
HETATM   11  H16 UNL     1      28.666   7.838  47.081  1.00  0.00     0.170 HD
HETATM   12  H15 UNL     1      26.676   6.681  47.758  1.00  0.00     0.170 HD
BRANCH  10  13
HETATM   13  C15 UNL     1      30.651   7.203  47.700  1.00  0.00     0.036 A 
HETATM   14  C16 UNL     1      31.177   7.952  48.758  1.00  0.00     0.031 A 
HETATM   15  C17 UNL     1      32.558   8.035  48.871  1.00  0.00     0.021 A 
HETATM   16  C18 UNL     1      33.423   7.421  47.999  1.00  0.00     0.011 A 
HETATM   17 BR1  UNL     1      35.325   7.581  48.221  1.00  0.00    -0.051 Br
HETATM   18  C19 UNL     1      32.886   6.683  46.960  1.00  0.00     0.021 A 
HETATM   19  C20 UNL     1      31.516   6.582  46.820  1.00  0.00     0.031 A 
ENDBRANCH  10  13
ENDBRANCH   4   7
BRANCH   1  20
HETATM   20  O2  UNL     1      23.770   2.201  50.828  1.00  0.00    -0.345 OA
BRANCH  20  21
HETATM   21  C9  UNL     1      23.372   2.454  52.155  1.00  0.00     0.235 C 
BRANCH  21  22
HETATM   22  C8  UNL     1      22.921   1.256  52.869  1.00  0.00     0.063 A 
HETATM   23  C4  UNL     1      23.886   0.359  53.489  1.00  0.00    -0.012 A 
HETATM   24  C3  UNL     1      25.173   0.636  53.399  1.00  0.00     0.012 C 
HETATM   25  C5  UNL     1      23.345  -0.801  54.174  1.00  0.00     0.011 A 
HETATM   26  C6  UNL     1      22.041  -1.007  54.218  1.00  0.00    -0.004 A 
HETATM   27  C7  UNL     1      21.048  -0.104  53.592  1.00  0.00     0.176 A 
HETATM   28  N1  UNL     1      21.664   1.028  52.930  1.00  0.00    -0.287 NA
BRANCH  24  29
HETATM   29  C2  UNL     1      26.328  -0.104  53.933  1.00  0.00     0.195 C 
BRANCH  29  30
HETATM   30  O1  UNL     1      27.043   0.593  54.878  1.00  0.00    -0.392 OA
HETATM   31  C1  UNL     1      28.411   0.358  54.832  1.00  0.00     0.201 C 
ENDBRANCH  29  30
ENDBRANCH  24  29
ENDBRANCH  21  22
ENDBRANCH  20  21
ENDBRANCH   1  20
TORSDOF 7
ENDMDL
MODEL 3
REMARK VINA RESULT:      -7.7      4.866     10.529
REMARK  7 active torsions:
REMARK  status: ('A' for Active; 'I' for Inactive)
REMARK    1  A    between atoms: O1_2  and  C2_3 
REMARK    2  A    between atoms: C2_3  and  C3_4 
REMARK    3  A    between atoms: C8_10  and  C9_11 
REMARK    4  A    between atoms: C9_11  and  O2_12 
REMARK    5  A    between atoms: O2_12  and  C10_13 
REMARK    6  A    between atoms: C13_16  and  N2_17 
REMARK       I    between atoms: N2_17  and  C14_18 
REMARK       I    between atoms: C14_18  and  N3_20 
REMARK    7  A    between atoms: N3_20  and  C15_21 
ROOT
HETATM    1  C10 UNL     1      29.449   7.071  48.226  1.00  0.00     0.069 A 
HETATM    2  C11 UNL     1      28.418   7.920  48.571  1.00  0.00     0.039 A 
HETATM    3  C12 UNL     1      27.159   7.449  48.854  1.00  0.00     0.032 A 
HETATM    4  C13 UNL     1      26.851   6.110  48.811  1.00  0.00     0.036 A 
HETATM    5  C21 UNL     1      27.905   5.300  48.464  1.00  0.00     0.032 A 
HETATM    6  C22 UNL     1      29.184   5.718  48.170  1.00  0.00     0.039 A 
ENDROOT
BRANCH   4   7
HETATM    7  N2  UNL     1      25.536   5.694  49.113  1.00  0.00    -0.309 N 
HETATM    8  C14 UNL     1      25.072   4.607  49.875  1.00  0.00     0.325 C 
HETATM    9  O3  UNL     1      25.914   3.840  50.400  1.00  0.00    -0.247 OA
HETATM   10  N3  UNL     1      23.716   4.291  50.110  1.00  0.00    -0.309 N 
HETATM   11  H16 UNL     1      22.985   4.910  49.686  1.00  0.00     0.170 HD
HETATM   12  H15 UNL     1      24.733   6.251  48.735  1.00  0.00     0.170 HD
BRANCH  10  13
HETATM   13  C15 UNL     1      23.395   3.155  50.904  1.00  0.00     0.036 A 
HETATM   14  C16 UNL     1      22.719   2.123  50.244  1.00  0.00     0.031 A 
HETATM   15  C17 UNL     1      22.385   0.993  50.978  1.00  0.00     0.021 A 
HETATM   16  C18 UNL     1      22.685   0.844  52.311  1.00  0.00     0.011 A 
HETATM   17 BR1  UNL     1      22.191  -0.750  53.260  1.00  0.00    -0.051 Br
HETATM   18  C19 UNL     1      23.355   1.874  52.945  1.00  0.00     0.021 A 
HETATM   19  C20 UNL     1      23.701   3.011  52.243  1.00  0.00     0.031 A 
ENDBRANCH  10  13
ENDBRANCH   4   7
BRANCH   1  20
HETATM   20  O2  UNL     1      30.700   7.605  47.950  1.00  0.00    -0.345 OA
BRANCH  20  21
HETATM   21  C9  UNL     1      31.540   6.910  47.057  1.00  0.00     0.235 C 
BRANCH  21  22
HETATM   22  C8  UNL     1      32.871   6.632  47.604  1.00  0.00     0.063 A 
HETATM   23  C4  UNL     1      33.343   5.261  47.738  1.00  0.00    -0.012 A 
HETATM   24  C3  UNL     1      32.557   4.270  47.364  1.00  0.00     0.012 C 
HETATM   25  C5  UNL     1      34.675   5.086  48.289  1.00  0.00     0.011 A 
HETATM   26  C6  UNL     1      35.399   6.133  48.641  1.00  0.00    -0.004 A 
HETATM   27  C7  UNL     1      34.933   7.533  48.510  1.00  0.00     0.176 A 
HETATM   28  N1  UNL     1      33.598   7.626  47.954  1.00  0.00    -0.287 NA
BRANCH  24  29
HETATM   29  C2  UNL     1      32.802   2.819  47.399  1.00  0.00     0.195 C 
BRANCH  29  30
HETATM   30  O1  UNL     1      31.984   2.100  46.560  1.00  0.00    -0.392 OA
HETATM   31  C1  UNL     1      32.099   0.724  46.710  1.00  0.00     0.201 C 
ENDBRANCH  29  30
ENDBRANCH  24  29
ENDBRANCH  21  22
ENDBRANCH  20  21
ENDBRANCH   1  20
TORSDOF 7
ENDMDL
MODEL 4
REMARK VINA RESULT:      -7.6      5.807     10.542
REMARK  7 active torsions:
REMARK  status: ('A' for Active; 'I' for Inactive)
REMARK    1  A    between atoms: O1_2  and  C2_3 
REMARK    2  A    between atoms: C2_3  and  C3_4 
REMARK    3  A    between atoms: C8_10  and  C9_11 
REMARK    4  A    between atoms: C9_11  and  O2_12 
REMARK    5  A    between atoms: O2_12  and  C10_13 
REMARK    6  A    between atoms: C13_16  and  N2_17 
REMARK       I    between atoms: N2_17  and  C14_18 
REMARK       I    between atoms: C14_18  and  N3_20 
REMARK    7  A    between atoms: N3_20  and  C15_21 
ROOT
HETATM    1  C10 UNL     1      23.284  -0.786  54.150  1.00  0.00     0.069 A 
HETATM    2  C11 UNL     1      22.776   0.219  53.354  1.00  0.00     0.039 A 
HETATM    3  C12 UNL     1      21.426   0.351  53.130  1.00  0.00     0.032 A 
HETATM    4  C13 UNL     1      20.506  -0.508  53.683  1.00  0.00     0.036 A 
HETATM    5  C21 UNL     1      21.054  -1.493  54.467  1.00  0.00     0.032 A 
HETATM    6  C22 UNL     1      22.395  -1.670  54.724  1.00  0.00     0.039 A 
ENDROOT
BRANCH   4   7
HETATM    7  N2  UNL     1      19.134  -0.315  53.411  1.00  0.00    -0.309 N 
HETATM    8  C14 UNL     1      18.462  -0.120  52.191  1.00  0.00     0.325 C 
HETATM    9  O3  UNL     1      19.133  -0.103  51.132  1.00  0.00    -0.247 OA
HETATM   10  N3  UNL     1      17.069   0.063  52.043  1.00  0.00    -0.309 N 
HETATM   11  H16 UNL     1      16.477   0.055  52.907  1.00  0.00     0.170 HD
HETATM   12  H15 UNL     1      18.458  -0.307  54.211  1.00  0.00     0.170 HD
BRANCH  10  13
HETATM   13  C15 UNL     1      16.527   0.249  50.741  1.00  0.00     0.036 A 
HETATM   14  C16 UNL     1      16.420   1.576  50.311  1.00  0.00     0.031 A 
HETATM   15  C17 UNL     1      15.897   1.808  49.046  1.00  0.00     0.021 A 
HETATM   16  C18 UNL     1      15.484   0.803  48.206  1.00  0.00     0.011 A 
HETATM   17 BR1  UNL     1      14.771   1.202  46.468  1.00  0.00    -0.051 Br
HETATM   18  C19 UNL     1      15.599  -0.503  48.648  1.00  0.00     0.021 A 
HETATM   19  C20 UNL     1      16.115  -0.766  49.901  1.00  0.00     0.031 A 
ENDBRANCH  10  13
ENDBRANCH   4   7
BRANCH   1  20
HETATM   20  O2  UNL     1      24.657  -0.869  54.339  1.00  0.00    -0.345 OA
BRANCH  20  21
HETATM   21  C9  UNL     1      25.496  -0.683  53.223  1.00  0.00     0.235 C 
BRANCH  21  22
HETATM   22  C8  UNL     1      26.718   0.067  53.529  1.00  0.00     0.063 A 
HETATM   23  C4  UNL     1      27.065   1.258  52.767  1.00  0.00    -0.012 A 
HETATM   24  C3  UNL     1      26.267   1.654  51.794  1.00  0.00     0.012 C 
HETATM   25  C5  UNL     1      28.294   1.933  53.143  1.00  0.00     0.011 A 
HETATM   26  C6  UNL     1      29.039   1.470  54.131  1.00  0.00    -0.004 A 
HETATM   27  C7  UNL     1      28.699   0.261  54.916  1.00  0.00     0.176 A 
HETATM   28  N1  UNL     1      27.461  -0.356  54.481  1.00  0.00    -0.287 NA
BRANCH  24  29
HETATM   29  C2  UNL     1      26.397   2.810  50.891  1.00  0.00     0.195 C 
BRANCH  29  30
HETATM   30  O1  UNL     1      25.281   3.039  50.121  1.00  0.00    -0.392 OA
HETATM   31  C1  UNL     1      24.100   3.094  50.848  1.00  0.00     0.201 C 
ENDBRANCH  29  30
ENDBRANCH  24  29
ENDBRANCH  21  22
ENDBRANCH  20  21
ENDBRANCH   1  20
TORSDOF 7
ENDMDL
MODEL 5
REMARK VINA RESULT:      -7.6      1.800      2.064
REMARK  7 active torsions:
REMARK  status: ('A' for Active; 'I' for Inactive)
REMARK    1  A    between atoms: O1_2  and  C2_3 
REMARK    2  A    between atoms: C2_3  and  C3_4 
REMARK    3  A    between atoms: C8_10  and  C9_11 
REMARK    4  A    between atoms: C9_11  and  O2_12 
REMARK    5  A    between atoms: O2_12  and  C10_13 
REMARK    6  A    between atoms: C13_16  and  N2_17 
REMARK       I    between atoms: N2_17  and  C14_18 
REMARK       I    between atoms: C14_18  and  N3_20 
REMARK    7  A    between atoms: N3_20  and  C15_21 
ROOT
HETATM    1  C10 UNL     1      22.503   3.125  50.629  1.00  0.00     0.069 A 
HETATM    2  C11 UNL     1      23.537   2.873  49.751  1.00  0.00     0.039 A 
HETATM    3  C12 UNL     1      24.628   3.704  49.663  1.00  0.00     0.032 A 
HETATM    4  C13 UNL     1      24.755   4.830  50.441  1.00  0.00     0.036 A 
HETATM    5  C21 UNL     1      23.705   5.044  51.300  1.00  0.00     0.032 A 
HETATM    6  C22 UNL     1      22.589   4.246  51.428  1.00  0.00     0.039 A 
ENDROOT
BRANCH   4   7
HETATM    7  N2  UNL     1      25.903   5.640  50.299  1.00  0.00    -0.309 N 
HETATM    8  C14 UNL     1      26.297   6.493  49.252  1.00  0.00     0.325 C 
HETATM    9  O3  UNL     1      25.551   6.596  48.249  1.00  0.00    -0.247 OA
HETATM   10  N3  UNL     1      27.481   7.261  49.223  1.00  0.00    -0.309 N 
HETATM   11  H16 UNL     1      28.128   7.199  50.044  1.00  0.00     0.170 HD
HETATM   12  H15 UNL     1      26.613   5.648  51.069  1.00  0.00     0.170 HD
BRANCH  10  13
HETATM   13  C15 UNL     1      27.750   8.082  48.093  1.00  0.00     0.036 A 
HETATM   14  C16 UNL     1      27.363   9.422  48.208  1.00  0.00     0.031 A 
HETATM   15  C17 UNL     1      27.605  10.261  47.129  1.00  0.00     0.021 A 
HETATM   16  C18 UNL     1      28.202   9.841  45.966  1.00  0.00     0.011 A 
HETATM   17 BR1  UNL     1      28.506  11.063  44.516  1.00  0.00    -0.051 Br
HETATM   18  C19 UNL     1      28.580   8.513  45.871  1.00  0.00     0.021 A 
HETATM   19  C20 UNL     1      28.352   7.652  46.926  1.00  0.00     0.031 A 
ENDBRANCH  10  13
ENDBRANCH   4   7
BRANCH   1  20
HETATM   20  O2  UNL     1      21.426   2.250  50.673  1.00  0.00    -0.345 OA
BRANCH  20  21
HETATM   21  C9  UNL     1      21.692   0.867  50.706  1.00  0.00     0.235 C 
BRANCH  21  22
HETATM   22  C8  UNL     1      21.513   0.269  52.032  1.00  0.00     0.063 A 
HETATM   23  C4  UNL     1      22.655   0.064  52.911  1.00  0.00    -0.012 A 
HETATM   24  C3  UNL     1      23.857   0.422  52.499  1.00  0.00     0.012 C 
HETATM   25  C5  UNL     1      22.379  -0.534  54.205  1.00  0.00     0.011 A 
HETATM   26  C6  UNL     1      21.145  -0.865  54.542  1.00  0.00    -0.004 A 
HETATM   27  C7  UNL     1      19.973  -0.663  53.659  1.00  0.00     0.176 A 
HETATM   28  N1  UNL     1      20.329  -0.062  52.389  1.00  0.00    -0.287 NA
BRANCH  24  29
HETATM   29  C2  UNL     1      25.151   0.320  53.192  1.00  0.00     0.195 C 
BRANCH  29  30
HETATM   30  O1  UNL     1      25.808  -0.867  52.968  1.00  0.00    -0.392 OA
HETATM   31  C1  UNL     1      27.187  -0.777  53.096  1.00  0.00     0.201 C 
ENDBRANCH  29  30
ENDBRANCH  24  29
ENDBRANCH  21  22
ENDBRANCH  20  21
ENDBRANCH   1  20
TORSDOF 7
ENDMDL
MODEL 6
REMARK VINA RESULT:      -7.3      3.241      3.607
REMARK  7 active torsions:
REMARK  status: ('A' for Active; 'I' for Inactive)
REMARK    1  A    between atoms: O1_2  and  C2_3 
REMARK    2  A    between atoms: C2_3  and  C3_4 
REMARK    3  A    between atoms: C8_10  and  C9_11 
REMARK    4  A    between atoms: C9_11  and  O2_12 
REMARK    5  A    between atoms: O2_12  and  C10_13 
REMARK    6  A    between atoms: C13_16  and  N2_17 
REMARK       I    between atoms: N2_17  and  C14_18 
REMARK       I    between atoms: C14_18  and  N3_20 
REMARK    7  A    between atoms: N3_20  and  C15_21 
ROOT
HETATM    1  C10 UNL     1      24.232   4.329  49.966  1.00  0.00     0.069 A 
HETATM    2  C11 UNL     1      25.430   3.693  49.716  1.00  0.00     0.039 A 
HETATM    3  C12 UNL     1      26.566   4.394  49.390  1.00  0.00     0.032 A 
HETATM    4  C13 UNL     1      26.577   5.765  49.295  1.00  0.00     0.036 A 
HETATM    5  C21 UNL     1      25.365   6.359  49.550  1.00  0.00     0.032 A 
HETATM    6  C22 UNL     1      24.198   5.705  49.879  1.00  0.00     0.039 A 
ENDROOT
BRANCH   4   7
HETATM    7  N2  UNL     1      27.780   6.423  48.955  1.00  0.00    -0.309 N 
HETATM    8  C14 UNL     1      28.963   5.926  48.379  1.00  0.00     0.325 C 
HETATM    9  O3  UNL     1      29.026   4.706  48.096  1.00  0.00    -0.247 OA
HETATM   10  N3  UNL     1      30.113   6.690  48.083  1.00  0.00    -0.309 N 
HETATM   11  H16 UNL     1      30.096   7.713  48.307  1.00  0.00     0.170 HD
HETATM   12  H15 UNL     1      27.862   7.451  49.141  1.00  0.00     0.170 HD
BRANCH  10  13
HETATM   13  C15 UNL     1      31.241   6.050  47.498  1.00  0.00     0.036 A 
HETATM   14  C16 UNL     1      31.946   5.177  48.334  1.00  0.00     0.031 A 
HETATM   15  C17 UNL     1      33.054   4.529  47.807  1.00  0.00     0.021 A 
HETATM   16  C18 UNL     1      33.485   4.703  46.514  1.00  0.00     0.011 A 
HETATM   17 BR1  UNL     1      35.029   3.768  45.855  1.00  0.00    -0.051 Br
HETATM   18  C19 UNL     1      32.774   5.568  45.702  1.00  0.00     0.021 A 
HETATM   19  C20 UNL     1      31.668   6.229  46.197  1.00  0.00     0.031 A 
ENDBRANCH  10  13
ENDBRANCH   4   7
BRANCH   1  20
HETATM   20  O2  UNL     1      23.117   3.567  50.290  1.00  0.00    -0.345 OA
BRANCH  20  21
HETATM   21  C9  UNL     1      23.210   2.167  50.173  1.00  0.00     0.235 C 
BRANCH  21  22
HETATM   22  C8  UNL     1      22.644   1.447  51.317  1.00  0.00     0.063 A 
HETATM   23  C4  UNL     1      23.515   0.876  52.336  1.00  0.00    -0.012 A 
HETATM   24  C3  UNL     1      24.822   1.015  52.216  1.00  0.00     0.012 C 
HETATM   25  C5  UNL     1      22.862   0.182  53.431  1.00  0.00     0.011 A 
HETATM   26  C6  UNL     1      21.546   0.087  53.476  1.00  0.00    -0.004 A 
HETATM   27  C7  UNL     1      20.647   0.661  52.448  1.00  0.00     0.176 A 
HETATM   28  N1  UNL     1      21.371   1.337  51.390  1.00  0.00    -0.287 NA
BRANCH  24  29
HETATM   29  C2  UNL     1      25.896   0.537  53.101  1.00  0.00     0.195 C 
BRANCH  29  30
HETATM   30  O1  UNL     1      27.049   0.192  52.435  1.00  0.00    -0.392 OA
HETATM   31  C1  UNL     1      27.927  -0.571  53.194  1.00  0.00     0.201 C 
ENDBRANCH  29  30
ENDBRANCH  24  29
ENDBRANCH  21  22
ENDBRANCH  20  21
ENDBRANCH   1  20
TORSDOF 7
ENDMDL
MODEL 7
REMARK VINA RESULT:      -7.3      5.423     11.170
REMARK  7 active torsions:
REMARK  status: ('A' for Active; 'I' for Inactive)
REMARK    1  A    between atoms: O1_2  and  C2_3 
REMARK    2  A    between atoms: C2_3  and  C3_4 
REMARK    3  A    between atoms: C8_10  and  C9_11 
REMARK    4  A    between atoms: C9_11  and  O2_12 
REMARK    5  A    between atoms: O2_12  and  C10_13 
REMARK    6  A    between atoms: C13_16  and  N2_17 
REMARK       I    between atoms: N2_17  and  C14_18 
REMARK       I    between atoms: C14_18  and  N3_20 
REMARK    7  A    between atoms: N3_20  and  C15_21 
ROOT
HETATM    1  C10 UNL     1      30.394   6.713  47.912  1.00  0.00     0.069 A 
HETATM    2  C11 UNL     1      29.494   7.719  48.194  1.00  0.00     0.039 A 
HETATM    3  C12 UNL     1      28.180   7.449  48.493  1.00  0.00     0.032 A 
HETATM    4  C13 UNL     1      27.686   6.167  48.529  1.00  0.00     0.036 A 
HETATM    5  C21 UNL     1      28.614   5.197  48.242  1.00  0.00     0.032 A 
HETATM    6  C22 UNL     1      29.940   5.411  47.936  1.00  0.00     0.039 A 
ENDROOT
BRANCH   4   7
HETATM    7  N2  UNL     1      26.324   5.961  48.842  1.00  0.00    -0.309 N 
HETATM    8  C14 UNL     1      25.697   4.930  49.564  1.00  0.00     0.325 C 
HETATM    9  O3  UNL     1      26.407   4.009  50.033  1.00  0.00    -0.247 OA
HETATM   10  N3  UNL     1      24.311   4.832  49.816  1.00  0.00    -0.309 N 
HETATM   11  H16 UNL     1      23.688   5.584  49.438  1.00  0.00     0.170 HD
HETATM   12  H15 UNL     1      25.620   6.661  48.509  1.00  0.00     0.170 HD
BRANCH  10  13
HETATM   13  C15 UNL     1      23.818   3.727  50.564  1.00  0.00     0.036 A 
HETATM   14  C16 UNL     1      23.891   3.854  51.955  1.00  0.00     0.031 A 
HETATM   15  C17 UNL     1      23.420   2.801  52.728  1.00  0.00     0.021 A 
HETATM   16  C18 UNL     1      22.891   1.652  52.193  1.00  0.00     0.011 A 
HETATM   17 BR1  UNL     1      22.259   0.237  53.327  1.00  0.00    -0.051 Br
HETATM   18  C19 UNL     1      22.825   1.545  50.815  1.00  0.00     0.021 A 
HETATM   19  C20 UNL     1      23.286   2.575  50.019  1.00  0.00     0.031 A 
ENDBRANCH  10  13
ENDBRANCH   4   7
BRANCH   1  20
HETATM   20  O2  UNL     1      31.709   7.047  47.617  1.00  0.00    -0.345 OA
BRANCH  20  21
HETATM   21  C9  UNL     1      32.228   6.668  46.363  1.00  0.00     0.235 C 
BRANCH  21  22
HETATM   22  C8  UNL     1      33.208   5.582  46.441  1.00  0.00     0.063 A 
HETATM   23  C4  UNL     1      33.619   4.870  45.239  1.00  0.00    -0.012 A 
HETATM   24  C3  UNL     1      33.096   5.213  44.077  1.00  0.00     0.012 C 
HETATM   25  C5  UNL     1      34.595   3.810  45.415  1.00  0.00     0.011 A 
HETATM   26  C6  UNL     1      35.070   3.527  46.615  1.00  0.00    -0.004 A 
HETATM   27  C7  UNL     1      34.662   4.243  47.846  1.00  0.00     0.176 A 
HETATM   28  N1  UNL     1      33.688   5.284  47.589  1.00  0.00    -0.287 NA
BRANCH  24  29
HETATM   29  C2  UNL     1      33.345   4.654  42.739  1.00  0.00     0.195 C 
BRANCH  29  30
HETATM   30  O1  UNL     1      33.393   5.601  41.743  1.00  0.00    -0.392 OA
HETATM   31  C1  UNL     1      32.405   5.451  40.779  1.00  0.00     0.201 C 
ENDBRANCH  29  30
ENDBRANCH  24  29
ENDBRANCH  21  22
ENDBRANCH  20  21
ENDBRANCH   1  20
TORSDOF 7
ENDMDL
MODEL 8
REMARK VINA RESULT:      -7.2      4.150     10.616
REMARK  7 active torsions:
REMARK  status: ('A' for Active; 'I' for Inactive)
REMARK    1  A    between atoms: O1_2  and  C2_3 
REMARK    2  A    between atoms: C2_3  and  C3_4 
REMARK    3  A    between atoms: C8_10  and  C9_11 
REMARK    4  A    between atoms: C9_11  and  O2_12 
REMARK    5  A    between atoms: O2_12  and  C10_13 
REMARK    6  A    between atoms: C13_16  and  N2_17 
REMARK       I    between atoms: N2_17  and  C14_18 
REMARK       I    between atoms: C14_18  and  N3_20 
REMARK    7  A    between atoms: N3_20  and  C15_21 
ROOT
HETATM    1  C10 UNL     1      26.608   6.795  48.535  1.00  0.00     0.069 A 
HETATM    2  C11 UNL     1      27.228   5.566  48.441  1.00  0.00     0.039 A 
HETATM    3  C12 UNL     1      26.833   4.497  49.211  1.00  0.00     0.032 A 
HETATM    4  C13 UNL     1      25.802   4.589  50.115  1.00  0.00     0.036 A 
HETATM    5  C21 UNL     1      25.214   5.828  50.177  1.00  0.00     0.032 A 
HETATM    6  C22 UNL     1      25.569   6.930  49.432  1.00  0.00     0.039 A 
ENDROOT
BRANCH   4   7
HETATM    7  N2  UNL     1      25.449   3.451  50.874  1.00  0.00    -0.309 N 
HETATM    8  C14 UNL     1      24.203   2.825  51.058  1.00  0.00     0.325 C 
HETATM    9  O3  UNL     1      23.199   3.305  50.481  1.00  0.00    -0.247 OA
HETATM   10  N3  UNL     1      23.972   1.678  51.850  1.00  0.00    -0.309 N 
HETATM   11  H16 UNL     1      24.789   1.250  52.346  1.00  0.00     0.170 HD
HETATM   12  H15 UNL     1      26.198   2.950  51.409  1.00  0.00     0.170 HD
BRANCH  10  13
HETATM   13  C15 UNL     1      22.654   1.153  51.943  1.00  0.00     0.036 A 
HETATM   14  C16 UNL     1      22.126   1.058  53.235  1.00  0.00     0.031 A 
HETATM   15  C17 UNL     1      20.841   0.552  53.376  1.00  0.00     0.021 A 
HETATM   16  C18 UNL     1      20.072   0.143  52.314  1.00  0.00     0.011 A 
HETATM   17 BR1  UNL     1      18.301  -0.547  52.588  1.00  0.00    -0.051 Br
HETATM   18  C19 UNL     1      20.610   0.246  51.044  1.00  0.00     0.021 A 
HETATM   19  C20 UNL     1      21.885   0.745  50.870  1.00  0.00     0.031 A 
ENDBRANCH  10  13
ENDBRANCH   4   7
BRANCH   1  20
HETATM   20  O2  UNL     1      27.051   7.837  47.732  1.00  0.00    -0.345 OA
BRANCH  20  21
HETATM   21  C9  UNL     1      28.293   7.697  47.082  1.00  0.00     0.235 C 
BRANCH  21  22
HETATM   22  C8  UNL     1      29.293   8.676  47.517  1.00  0.00     0.063 A 
HETATM   23  C4  UNL     1      30.446   8.256  48.301  1.00  0.00    -0.012 A 
HETATM   24  C3  UNL     1      30.581   6.982  48.616  1.00  0.00     0.012 C 
HETATM   25  C5  UNL     1      31.383   9.297  48.685  1.00  0.00     0.011 A 
HETATM   26  C6  UNL     1      31.174  10.552  48.328  1.00  0.00    -0.004 A 
HETATM   27  C7  UNL     1      30.007  10.994  47.532  1.00  0.00     0.176 A 
HETATM   28  N1  UNL     1      29.120   9.901  47.188  1.00  0.00    -0.287 NA
BRANCH  24  29
HETATM   29  C2  UNL     1      31.643   6.318  49.388  1.00  0.00     0.195 C 
BRANCH  29  30
HETATM   30  O1  UNL     1      31.789   4.983  49.093  1.00  0.00    -0.392 OA
HETATM   31  C1  UNL     1      32.213   4.739  47.794  1.00  0.00     0.201 C 
ENDBRANCH  29  30
ENDBRANCH  24  29
ENDBRANCH  21  22
ENDBRANCH  20  21
ENDBRANCH   1  20
TORSDOF 7
ENDMDL
MODEL 9
REMARK VINA RESULT:      -7.1      5.045      9.040
REMARK  7 active torsions:
REMARK  status: ('A' for Active; 'I' for Inactive)
REMARK    1  A    between atoms: O1_2  and  C2_3 
REMARK    2  A    between atoms: C2_3  and  C3_4 
REMARK    3  A    between atoms: C8_10  and  C9_11 
REMARK    4  A    between atoms: C9_11  and  O2_12 
REMARK    5  A    between atoms: O2_12  and  C10_13 
REMARK    6  A    between atoms: C13_16  and  N2_17 
REMARK       I    between atoms: N2_17  and  C14_18 
REMARK       I    between atoms: C14_18  and  N3_20 
REMARK    7  A    between atoms: N3_20  and  C15_21 
ROOT
HETATM    1  C10 UNL     1      19.578   3.145  50.272  1.00  0.00     0.069 A 
HETATM    2  C11 UNL     1      19.849   1.824  49.986  1.00  0.00     0.039 A 
HETATM    3  C12 UNL     1      20.610   1.044  50.825  1.00  0.00     0.032 A 
HETATM    4  C13 UNL     1      21.144   1.533  51.993  1.00  0.00     0.036 A 
HETATM    5  C21 UNL     1      20.850   2.851  52.240  1.00  0.00     0.032 A 
HETATM    6  C22 UNL     1      20.095   3.676  51.435  1.00  0.00     0.039 A 
ENDROOT
BRANCH   4   7
HETATM    7  N2  UNL     1      21.917   0.677  52.809  1.00  0.00    -0.309 N 
HETATM    8  C14 UNL     1      23.311   0.550  52.938  1.00  0.00     0.325 C 
HETATM    9  O3  UNL     1      24.048   1.289  52.243  1.00  0.00    -0.247 OA
HETATM   10  N3  UNL     1      23.975  -0.353  53.797  1.00  0.00    -0.309 N 
HETATM   11  H16 UNL     1      23.391  -0.986  54.393  1.00  0.00     0.170 HD
HETATM   12  H15 UNL     1      21.423   0.004  53.442  1.00  0.00     0.170 HD
BRANCH  10  13
HETATM   13  C15 UNL     1      25.398  -0.369  53.823  1.00  0.00     0.036 A 
HETATM   14  C16 UNL     1      26.015  -1.152  52.841  1.00  0.00     0.031 A 
HETATM   15  C17 UNL     1      27.402  -1.199  52.826  1.00  0.00     0.021 A 
HETATM   16  C18 UNL     1      28.188  -0.517  53.722  1.00  0.00     0.011 A 
HETATM   17 BR1  UNL     1      30.104  -0.630  53.637  1.00  0.00    -0.051 Br
HETATM   18  C19 UNL     1      27.561   0.253  54.684  1.00  0.00     0.021 A 
HETATM   19  C20 UNL     1      26.183   0.320  54.726  1.00  0.00     0.031 A 
ENDBRANCH  10  13
ENDBRANCH   4   7
BRANCH   1  20
HETATM   20  O2  UNL     1      18.804   3.882  49.387  1.00  0.00    -0.345 OA
BRANCH  20  21
HETATM   21  C9  UNL     1      19.405   4.968  48.720  1.00  0.00     0.235 C 
BRANCH  21  22
HETATM   22  C8  UNL     1      20.070   4.590  47.471  1.00  0.00     0.063 A 
HETATM   23  C4  UNL     1      21.524   4.565  47.385  1.00  0.00    -0.012 A 
HETATM   24  C3  UNL     1      22.237   4.888  48.448  1.00  0.00     0.012 C 
HETATM   25  C5  UNL     1      22.091   4.178  46.107  1.00  0.00     0.011 A 
HETATM   26  C6  UNL     1      21.307   3.869  45.090  1.00  0.00    -0.004 A 
HETATM   27  C7  UNL     1      19.827   3.890  45.161  1.00  0.00     0.176 A 
HETATM   28  N1  UNL     1      19.338   4.285  46.467  1.00  0.00    -0.287 NA
BRANCH  24  29
HETATM   29  C2  UNL     1      23.698   4.938  48.612  1.00  0.00     0.195 C 
BRANCH  29  30
HETATM   30  O1  UNL     1      24.237   6.185  48.399  1.00  0.00    -0.392 OA
HETATM   31  C1  UNL     1      23.564   7.206  49.056  1.00  0.00     0.201 C 
ENDBRANCH  29  30
ENDBRANCH  24  29
ENDBRANCH  21  22
ENDBRANCH  20  21
ENDBRANCH   1  20
TORSDOF 7
ENDMDL
