MODEL 1
REMARK VINA RESULT:      -8.3      0.000      0.000
REMARK  3 active torsions:
REMARK  status: ('A' for Active; 'I' for Inactive)
REMARK    1  A    between atoms: O1_2  and  C2_3 
REMARK    2  A    between atoms: C2_3  and  O2_4 
REMARK    3  A    between atoms: O2_4  and  C3_5 
ROOT
HETATM    1  C3  UNL     1      25.156   0.764  53.134  1.00  0.00     0.171 C 
HETATM    2  C4  UNL     1      23.935   0.198  53.811  1.00  0.00     0.005 C 
HETATM    3  C5  UNL     1      23.124  -0.890  53.903  1.00  0.00    -0.026 C 
HETATM    4  C6  UNL     1      21.918  -0.937  54.826  1.00  0.00     0.054 C 
HETATM    5  C7  UNL     1      20.692  -1.124  53.856  1.00  0.00     0.184 C 
HETATM    6  O3  UNL     1      20.915  -0.103  52.966  1.00  0.00    -0.304 OA
HETATM    7  C8  UNL     1      20.345   0.411  51.913  1.00  0.00     0.365 C 
HETATM    8  O4  UNL     1      19.310   0.037  51.430  1.00  0.00    -0.238 OA
HETATM    9  N1  UNL     1      20.865   1.480  51.179  1.00  0.00    -0.303 N 
HETATM   10  C9  UNL     1      21.402   2.584  50.419  1.00  0.00     0.037 A 
HETATM   11  C10 UNL     1      21.266   3.839  50.959  1.00  0.00     0.032 A 
HETATM   12  C11 UNL     1      22.044   4.466  50.045  1.00  0.00     0.039 A 
HETATM   13  C12 UNL     1      22.701   3.950  48.978  1.00  0.00     0.070 A 
HETATM   14  C13 UNL     1      22.816   2.698  48.455  1.00  0.00     0.039 A 
HETATM   15  C14 UNL     1      22.047   2.014  49.346  1.00  0.00     0.032 A 
HETATM   16  O5  UNL     1      23.404   4.989  48.332  1.00  0.00    -0.333 OA
HETATM   17  C15 UNL     1      24.717   5.291  48.858  1.00  0.00     0.240 A 
HETATM   18  C16 UNL     1      24.671   6.546  49.629  1.00  0.00     0.132 A 
HETATM   19  N2  UNL     1      24.772   5.978  50.787  1.00  0.00    -0.244 NA
HETATM   20  C17 UNL     1      24.831   4.656  50.224  1.00  0.00     0.159 A 
HETATM   21  N3  UNL     1      24.910   3.389  50.104  1.00  0.00    -0.243 NA
HETATM   22  C18 UNL     1      25.024   2.456  51.144  1.00  0.00     0.117 C 
HETATM   23  C19 UNL     1      24.707   1.900  52.305  1.00  0.00     0.028 C 
HETATM   24  H13 UNL     1      21.796   1.717  51.689  1.00  0.00     0.171 HD
ENDROOT
BRANCH   1  25
HETATM   25  O2  UNL     1      26.025   1.163  54.142  1.00  0.00    -0.354 OA
BRANCH  25  26
HETATM   26  C2  UNL     1      26.381   0.139  55.003  1.00  0.00     0.338 C 
BRANCH  26  27
HETATM   27  O1  UNL     1      27.484  -0.510  54.432  1.00  0.00    -0.372 OA
HETATM   28  C1  UNL     1      28.625   0.189  54.782  1.00  0.00     0.204 C 
ENDBRANCH  26  27
ENDBRANCH  25  26
ENDBRANCH   1  25
TORSDOF 3
ENDMDL
MODEL 2
REMARK VINA RESULT:      -8.0      1.969      5.139
REMARK  3 active torsions:
REMARK  status: ('A' for Active; 'I' for Inactive)
REMARK    1  A    between atoms: O1_2  and  C2_3 
REMARK    2  A    between atoms: C2_3  and  O2_4 
REMARK    3  A    between atoms: O2_4  and  C3_5 
ROOT
HETATM    1  C3  UNL     1      22.716  -0.249  53.741  1.00  0.00     0.171 C 
HETATM    2  C4  UNL     1      24.136  -0.627  53.407  1.00  0.00     0.005 C 
HETATM    3  C5  UNL     1      25.423  -0.593  53.844  1.00  0.00    -0.026 C 
HETATM    4  C6  UNL     1      26.577  -1.170  53.042  1.00  0.00     0.054 C 
HETATM    5  C7  UNL     1      27.505   0.067  52.748  1.00  0.00     0.184 C 
HETATM    6  O3  UNL     1      26.592   0.949  52.222  1.00  0.00    -0.304 OA
HETATM    7  C8  UNL     1      26.580   2.152  51.723  1.00  0.00     0.365 C 
HETATM    8  O4  UNL     1      27.542   2.856  51.579  1.00  0.00    -0.238 OA
HETATM    9  N1  UNL     1      25.428   2.810  51.283  1.00  0.00    -0.303 N 
HETATM   10  C9  UNL     1      24.238   3.490  50.828  1.00  0.00     0.037 A 
HETATM   11  C10 UNL     1      23.725   3.108  49.614  1.00  0.00     0.032 A 
HETATM   12  C11 UNL     1      22.587   3.836  49.711  1.00  0.00     0.039 A 
HETATM   13  C12 UNL     1      22.171   4.649  50.713  1.00  0.00     0.070 A 
HETATM   14  C13 UNL     1      22.703   5.020  51.910  1.00  0.00     0.039 A 
HETATM   15  C14 UNL     1      23.862   4.308  51.869  1.00  0.00     0.032 A 
HETATM   16  O5  UNL     1      20.904   5.171  50.377  1.00  0.00    -0.333 OA
HETATM   17  C15 UNL     1      19.766   4.348  50.718  1.00  0.00     0.240 A 
HETATM   18  C16 UNL     1      19.219   3.720  49.501  1.00  0.00     0.132 A 
HETATM   19  N2  UNL     1      19.658   2.533  49.773  1.00  0.00    -0.244 NA
HETATM   20  C17 UNL     1      20.267   2.952  51.006  1.00  0.00     0.159 A 
HETATM   21  N3  UNL     1      20.905   2.944  52.110  1.00  0.00    -0.243 NA
HETATM   22  C18 UNL     1      21.521   1.838  52.712  1.00  0.00     0.117 C 
HETATM   23  C19 UNL     1      22.290   0.758  52.750  1.00  0.00     0.028 C 
HETATM   24  H13 UNL     1      24.631   2.095  51.476  1.00  0.00     0.171 HD
ENDROOT
BRANCH   1  25
HETATM   25  O2  UNL     1      21.962  -1.412  53.662  1.00  0.00    -0.354 OA
BRANCH  25  26
HETATM   26  C2  UNL     1      20.887  -1.434  54.536  1.00  0.00     0.338 C 
BRANCH  26  27
HETATM   27  O1  UNL     1      19.793  -1.949  53.825  1.00  0.00    -0.372 OA
HETATM   28  C1  UNL     1      18.981  -0.892  53.457  1.00  0.00     0.204 C 
ENDBRANCH  26  27
ENDBRANCH  25  26
ENDBRANCH   1  25
TORSDOF 3
ENDMDL
MODEL 3
REMARK VINA RESULT:      -7.9      2.422      4.364
REMARK  3 active torsions:
REMARK  status: ('A' for Active; 'I' for Inactive)
REMARK    1  A    between atoms: O1_2  and  C2_3 
REMARK    2  A    between atoms: C2_3  and  O2_4 
REMARK    3  A    between atoms: O2_4  and  C3_5 
ROOT
HETATM    1  C3  UNL     1      26.322   2.792  50.212  1.00  0.00     0.171 C 
HETATM    2  C4  UNL     1      26.575   2.146  51.550  1.00  0.00     0.005 C 
HETATM    3  C5  UNL     1      26.935   0.991  52.172  1.00  0.00    -0.026 C 
HETATM    4  C6  UNL     1      27.045   0.874  53.682  1.00  0.00     0.054 C 
HETATM    5  C7  UNL     1      25.973  -0.214  54.068  1.00  0.00     0.184 C 
HETATM    6  O3  UNL     1      24.863   0.290  53.433  1.00  0.00    -0.304 OA
HETATM    7  C8  UNL     1      23.603  -0.009  53.297  1.00  0.00     0.365 C 
HETATM    8  O4  UNL     1      23.051  -0.947  53.807  1.00  0.00    -0.238 OA
HETATM    9  N1  UNL     1      22.699   0.723  52.523  1.00  0.00    -0.303 N 
HETATM   10  C9  UNL     1      21.765   1.479  51.723  1.00  0.00     0.037 A 
HETATM   11  C10 UNL     1      21.306   2.662  52.248  1.00  0.00     0.032 A 
HETATM   12  C11 UNL     1      20.663   3.069  51.127  1.00  0.00     0.039 A 
HETATM   13  C12 UNL     1      20.556   2.449  49.926  1.00  0.00     0.070 A 
HETATM   14  C13 UNL     1      21.015   1.267  49.429  1.00  0.00     0.039 A 
HETATM   15  C14 UNL     1      21.681   0.809  50.524  1.00  0.00     0.032 A 
HETATM   16  O5  UNL     1      19.811   3.272  49.056  1.00  0.00    -0.333 OA
HETATM   17  C15 UNL     1      20.556   4.286  48.345  1.00  0.00     0.240 A 
HETATM   18  C16 UNL     1      20.291   5.611  48.936  1.00  0.00     0.132 A 
HETATM   19  N2  UNL     1      21.448   5.720  49.505  1.00  0.00    -0.244 NA
HETATM   20  C17 UNL     1      21.898   4.442  49.022  1.00  0.00     0.159 A 
HETATM   21  N3  UNL     1      22.617   3.415  48.794  1.00  0.00    -0.243 NA
HETATM   22  C18 UNL     1      23.921   3.188  49.255  1.00  0.00     0.117 C 
HETATM   23  C19 UNL     1      24.889   3.138  50.160  1.00  0.00     0.028 C 
HETATM   24  H13 UNL     1      23.306   1.522  52.103  1.00  0.00     0.171 HD
ENDROOT
BRANCH   1  25
HETATM   25  O2  UNL     1      27.134   3.918  50.151  1.00  0.00    -0.354 OA
BRANCH  25  26
HETATM   26  C2  UNL     1      27.117   4.545  48.916  1.00  0.00     0.338 C 
BRANCH  26  27
HETATM   27  O1  UNL     1      28.453   4.761  48.549  1.00  0.00    -0.372 OA
HETATM   28  C1  UNL     1      28.588   6.084  48.171  1.00  0.00     0.204 C 
ENDBRANCH  26  27
ENDBRANCH  25  26
ENDBRANCH   1  25
TORSDOF 3
ENDMDL
MODEL 4
REMARK VINA RESULT:      -7.9      2.406      5.915
REMARK  3 active torsions:
REMARK  status: ('A' for Active; 'I' for Inactive)
REMARK    1  A    between atoms: O1_2  and  C2_3 
REMARK    2  A    between atoms: C2_3  and  O2_4 
REMARK    3  A    between atoms: O2_4  and  C3_5 
ROOT
HETATM    1  C3  UNL     1      23.600   3.826  52.697  1.00  0.00     0.171 C 
HETATM    2  C4  UNL     1      22.479   3.030  52.080  1.00  0.00     0.005 C 
HETATM    3  C5  UNL     1      21.215   2.565  52.271  1.00  0.00    -0.026 C 
HETATM    4  C6  UNL     1      20.483   1.733  51.232  1.00  0.00     0.054 C 
HETATM    5  C7  UNL     1      20.220   0.357  51.951  1.00  0.00     0.184 C 
HETATM    6  O3  UNL     1      21.485   0.058  52.396  1.00  0.00    -0.304 OA
HETATM    7  C8  UNL     1      22.087  -0.903  53.038  1.00  0.00     0.365 C 
HETATM    8  O4  UNL     1      21.567  -1.914  53.426  1.00  0.00    -0.238 OA
HETATM    9  N1  UNL     1      23.442  -0.892  53.379  1.00  0.00    -0.303 N 
HETATM   10  C9  UNL     1      24.842  -0.882  53.732  1.00  0.00     0.037 A 
HETATM   11  C10 UNL     1      25.742  -1.147  52.729  1.00  0.00     0.032 A 
HETATM   12  C11 UNL     1      26.846  -0.846  53.453  1.00  0.00     0.039 A 
HETATM   13  C12 UNL     1      26.942  -0.430  54.739  1.00  0.00     0.070 A 
HETATM   14  C13 UNL     1      26.032  -0.180  55.721  1.00  0.00     0.039 A 
HETATM   15  C14 UNL     1      24.888  -0.466  55.042  1.00  0.00     0.032 A 
HETATM   16  O5  UNL     1      28.302  -0.216  55.047  1.00  0.00    -0.333 OA
HETATM   17  C15 UNL     1      28.837   1.082  54.700  1.00  0.00     0.240 A 
HETATM   18  C16 UNL     1      29.694   0.968  53.505  1.00  0.00     0.132 A 
HETATM   19  N2  UNL     1      28.854   1.538  52.703  1.00  0.00    -0.244 NA
HETATM   20  C17 UNL     1      27.877   1.741  53.738  1.00  0.00     0.159 A 
HETATM   21  N3  UNL     1      26.814   2.080  54.356  1.00  0.00    -0.243 NA
HETATM   22  C18 UNL     1      25.692   2.714  53.805  1.00  0.00     0.117 C 
HETATM   23  C19 UNL     1      24.725   2.896  52.917  1.00  0.00     0.028 C 
HETATM   24  H13 UNL     1      23.797   0.063  52.999  1.00  0.00     0.171 HD
ENDROOT
BRANCH   1  25
HETATM   25  O2  UNL     1      23.921   4.832  51.795  1.00  0.00    -0.354 OA
BRANCH  25  26
HETATM   26  C2  UNL     1      24.270   4.359  50.540  1.00  0.00     0.338 C 
BRANCH  26  27
HETATM   27  O1  UNL     1      25.473   4.985  50.187  1.00  0.00    -0.372 OA
HETATM   28  C1  UNL     1      26.341   4.018  49.715  1.00  0.00     0.204 C 
ENDBRANCH  26  27
ENDBRANCH  25  26
ENDBRANCH   1  25
TORSDOF 3
ENDMDL
MODEL 5
REMARK VINA RESULT:      -7.4      4.136      6.583
REMARK  3 active torsions:
REMARK  status: ('A' for Active; 'I' for Inactive)
REMARK    1  A    between atoms: O1_2  and  C2_3 
REMARK    2  A    between atoms: C2_3  and  O2_4 
REMARK    3  A    between atoms: O2_4  and  C3_5 
ROOT
HETATM    1  C3  UNL     1      26.288   3.555  49.566  1.00  0.00     0.171 C 
HETATM    2  C4  UNL     1      25.124   3.988  50.418  1.00  0.00     0.005 C 
HETATM    3  C5  UNL     1      23.775   4.165  50.444  1.00  0.00    -0.026 C 
HETATM    4  C6  UNL     1      23.039   4.673  51.671  1.00  0.00     0.054 C 
HETATM    5  C7  UNL     1      22.385   6.026  51.201  1.00  0.00     0.184 C 
HETATM    6  O3  UNL     1      23.478   6.662  50.665  1.00  0.00    -0.304 OA
HETATM    7  C8  UNL     1      23.761   7.806  50.110  1.00  0.00     0.365 C 
HETATM    8  O4  UNL     1      22.985   8.708  49.939  1.00  0.00    -0.238 OA
HETATM    9  N1  UNL     1      25.023   8.152  49.620  1.00  0.00    -0.303 N 
HETATM   10  C9  UNL     1      26.327   8.511  49.113  1.00  0.00     0.037 A 
HETATM   11  C10 UNL     1      27.283   8.856  50.035  1.00  0.00     0.032 A 
HETATM   12  C11 UNL     1      28.310   8.910  49.154  1.00  0.00     0.039 A 
HETATM   13  C12 UNL     1      28.307   8.684  47.817  1.00  0.00     0.070 A 
HETATM   14  C13 UNL     1      27.340   8.349  46.919  1.00  0.00     0.039 A 
HETATM   15  C14 UNL     1      26.271   8.278  47.758  1.00  0.00     0.032 A 
HETATM   16  O5  UNL     1      29.622   8.832  47.329  1.00  0.00    -0.333 OA
HETATM   17  C15 UNL     1      30.468   7.663  47.415  1.00  0.00     0.240 A 
HETATM   18  C16 UNL     1      31.443   7.829  48.509  1.00  0.00     0.132 A 
HETATM   19  N2  UNL     1      30.870   6.987  49.307  1.00  0.00    -0.244 NA
HETATM   20  C17 UNL     1      29.821   6.687  48.370  1.00  0.00     0.159 A 
HETATM   21  N3  UNL     1      28.778   6.187  47.833  1.00  0.00    -0.243 NA
HETATM   22  C18 UNL     1      27.910   5.247  48.407  1.00  0.00     0.117 C 
HETATM   23  C19 UNL     1      27.143   4.740  49.362  1.00  0.00     0.028 C 
HETATM   24  H13 UNL     1      25.626   7.268  49.809  1.00  0.00     0.171 HD
ENDROOT
BRANCH   1  25
HETATM   25  O2  UNL     1      26.946   2.550  50.266  1.00  0.00    -0.354 OA
BRANCH  25  26
HETATM   26  C2  UNL     1      26.601   2.493  51.606  1.00  0.00     0.338 C 
BRANCH  26  27
HETATM   27  O1  UNL     1      27.798   2.465  52.335  1.00  0.00    -0.372 OA
HETATM   28  C1  UNL     1      27.864   1.259  53.010  1.00  0.00     0.204 C 
ENDBRANCH  26  27
ENDBRANCH  25  26
ENDBRANCH   1  25
TORSDOF 3
ENDMDL
MODEL 6
REMARK VINA RESULT:      -7.1      2.065      5.101
REMARK  3 active torsions:
REMARK  status: ('A' for Active; 'I' for Inactive)
REMARK    1  A    between atoms: O1_2  and  C2_3 
REMARK    2  A    between atoms: C2_3  and  O2_4 
REMARK    3  A    between atoms: O2_4  and  C3_5 
ROOT
HETATM    1  C3  UNL     1      20.064   1.966  52.538  1.00  0.00     0.171 C 
HETATM    2  C4  UNL     1      21.060   0.866  52.802  1.00  0.00     0.005 C 
HETATM    3  C5  UNL     1      21.910   0.339  53.724  1.00  0.00    -0.026 C 
HETATM    4  C6  UNL     1      22.757  -0.890  53.448  1.00  0.00     0.054 C 
HETATM    5  C7  UNL     1      24.241  -0.378  53.576  1.00  0.00     0.184 C 
HETATM    6  O3  UNL     1      24.205   0.711  52.740  1.00  0.00    -0.304 OA
HETATM    7  C8  UNL     1      25.023   1.625  52.299  1.00  0.00     0.365 C 
HETATM    8  O4  UNL     1      26.191   1.703  52.570  1.00  0.00    -0.238 OA
HETATM    9  N1  UNL     1      24.653   2.664  51.442  1.00  0.00    -0.303 N 
HETATM   10  C9  UNL     1      24.272   3.738  50.555  1.00  0.00     0.037 A 
HETATM   11  C10 UNL     1      24.096   3.423  49.231  1.00  0.00     0.032 A 
HETATM   12  C11 UNL     1      23.587   4.626  48.871  1.00  0.00     0.039 A 
HETATM   13  C12 UNL     1      23.362   5.725  49.631  1.00  0.00     0.070 A 
HETATM   14  C13 UNL     1      23.552   6.017  50.948  1.00  0.00     0.039 A 
HETATM   15  C14 UNL     1      24.066   4.829  51.368  1.00  0.00     0.032 A 
HETATM   16  O5  UNL     1      22.794   6.730  48.820  1.00  0.00    -0.333 OA
HETATM   17  C15 UNL     1      21.359   6.681  48.656  1.00  0.00     0.240 A 
HETATM   18  C16 UNL     1      21.024   6.176  47.312  1.00  0.00     0.132 A 
HETATM   19  N2  UNL     1      20.622   5.015  47.718  1.00  0.00    -0.244 NA
HETATM   20  C17 UNL     1      20.884   5.316  49.100  1.00  0.00     0.159 A 
HETATM   21  N3  UNL     1      20.982   5.218  50.367  1.00  0.00    -0.243 NA
HETATM   22  C18 UNL     1      20.642   4.105  51.148  1.00  0.00     0.117 C 
HETATM   23  C19 UNL     1      20.631   2.820  51.476  1.00  0.00     0.028 C 
HETATM   24  H13 UNL     1      23.589   2.504  51.284  1.00  0.00     0.171 HD
ENDROOT
BRANCH   1  25
HETATM   25  O2  UNL     1      18.884   1.352  52.141  1.00  0.00    -0.354 OA
BRANCH  25  26
HETATM   26  C2  UNL     1      19.082   0.183  51.425  1.00  0.00     0.338 C 
BRANCH  26  27
HETATM   27  O1  UNL     1      17.914  -0.581  51.557  1.00  0.00    -0.372 OA
HETATM   28  C1  UNL     1      17.866  -1.079  52.846  1.00  0.00     0.204 C 
ENDBRANCH  26  27
ENDBRANCH  25  26
ENDBRANCH   1  25
TORSDOF 3
ENDMDL
MODEL 7
REMARK VINA RESULT:      -7.0      5.830      9.182
REMARK  3 active torsions:
REMARK  status: ('A' for Active; 'I' for Inactive)
REMARK    1  A    between atoms: O1_2  and  C2_3 
REMARK    2  A    between atoms: C2_3  and  O2_4 
REMARK    3  A    between atoms: O2_4  and  C3_5 
ROOT
HETATM    1  C3  UNL     1      27.294   4.916  48.608  1.00  0.00     0.171 C 
HETATM    2  C4  UNL     1      26.323   5.827  49.312  1.00  0.00     0.005 C 
HETATM    3  C5  UNL     1      25.202   6.582  49.158  1.00  0.00    -0.026 C 
HETATM    4  C6  UNL     1      24.586   7.376  50.297  1.00  0.00     0.054 C 
HETATM    5  C7  UNL     1      24.671   8.874  49.820  1.00  0.00     0.184 C 
HETATM    6  O3  UNL     1      25.999   8.956  49.481  1.00  0.00    -0.304 OA
HETATM    7  C8  UNL     1      26.836   9.852  49.039  1.00  0.00     0.365 C 
HETATM    8  O4  UNL     1      26.570  11.001  48.813  1.00  0.00    -0.238 OA
HETATM    9  N1  UNL     1      28.180   9.600  48.752  1.00  0.00    -0.303 N 
HETATM   10  C9  UNL     1      29.569   9.340  48.455  1.00  0.00     0.037 A 
HETATM   11  C10 UNL     1      30.427   9.236  49.521  1.00  0.00     0.032 A 
HETATM   12  C11 UNL     1      31.495   8.821  48.797  1.00  0.00     0.039 A 
HETATM   13  C12 UNL     1      31.596   8.608  47.462  1.00  0.00     0.070 A 
HETATM   14  C13 UNL     1      30.729   8.726  46.419  1.00  0.00     0.039 A 
HETATM   15  C14 UNL     1      29.623   9.142  47.094  1.00  0.00     0.032 A 
HETATM   16  O5  UNL     1      32.900   8.154  47.174  1.00  0.00    -0.333 OA
HETATM   17  C15 UNL     1      33.123   6.732  47.309  1.00  0.00     0.240 A 
HETATM   18  C16 UNL     1      33.894   6.460  48.536  1.00  0.00     0.132 A 
HETATM   19  N2  UNL     1      32.897   5.966  49.196  1.00  0.00    -0.244 NA
HETATM   20  C17 UNL     1      31.978   6.152  48.105  1.00  0.00     0.159 A 
HETATM   21  N3  UNL     1      30.916   6.159  47.398  1.00  0.00    -0.243 NA
HETATM   22  C18 UNL     1      29.649   5.705  47.789  1.00  0.00     0.117 C 
HETATM   23  C19 UNL     1      28.602   5.599  48.596  1.00  0.00     0.028 C 
HETATM   24  H13 UNL     1      28.298   8.541  48.972  1.00  0.00     0.171 HD
ENDROOT
BRANCH   1  25
HETATM   25  O2  UNL     1      27.330   3.731  49.333  1.00  0.00    -0.354 OA
BRANCH  25  26
HETATM   26  C2  UNL     1      26.077   3.276  49.711  1.00  0.00     0.338 C 
BRANCH  26  27
HETATM   27  O1  UNL     1      26.095   3.142  51.106  1.00  0.00    -0.372 OA
HETATM   28  C1  UNL     1      26.772   1.978  51.420  1.00  0.00     0.204 C 
ENDBRANCH  26  27
ENDBRANCH  25  26
ENDBRANCH   1  25
TORSDOF 3
ENDMDL
MODEL 8
REMARK VINA RESULT:      -7.0      1.934      5.367
REMARK  3 active torsions:
REMARK  status: ('A' for Active; 'I' for Inactive)
REMARK    1  A    between atoms: O1_2  and  C2_3 
REMARK    2  A    between atoms: C2_3  and  O2_4 
REMARK    3  A    between atoms: O2_4  and  C3_5 
ROOT
HETATM    1  C3  UNL     1      23.776   0.958  52.903  1.00  0.00     0.171 C 
HETATM    2  C4  UNL     1      24.818   1.429  51.922  1.00  0.00     0.005 C 
HETATM    3  C5  UNL     1      25.756   2.383  51.675  1.00  0.00    -0.026 C 
HETATM    4  C6  UNL     1      26.606   2.389  50.417  1.00  0.00     0.054 C 
HETATM    5  C7  UNL     1      26.229   3.738  49.697  1.00  0.00     0.184 C 
HETATM    6  O3  UNL     1      24.859   3.638  49.676  1.00  0.00    -0.304 OA
HETATM    7  C8  UNL     1      23.841   4.323  49.237  1.00  0.00     0.365 C 
HETATM    8  O4  UNL     1      23.908   5.361  48.636  1.00  0.00    -0.238 OA
HETATM    9  N1  UNL     1      22.506   3.947  49.409  1.00  0.00    -0.303 N 
HETATM   10  C9  UNL     1      21.127   3.560  49.587  1.00  0.00     0.037 A 
HETATM   11  C10 UNL     1      20.650   2.557  48.781  1.00  0.00     0.032 A 
HETATM   12  C11 UNL     1      19.460   2.425  49.415  1.00  0.00     0.039 A 
HETATM   13  C12 UNL     1      18.979   3.103  50.486  1.00  0.00     0.070 A 
HETATM   14  C13 UNL     1      19.469   4.104  51.268  1.00  0.00     0.039 A 
HETATM   15  C14 UNL     1      20.680   4.279  50.672  1.00  0.00     0.032 A 
HETATM   16  O5  UNL     1      17.702   2.596  50.806  1.00  0.00    -0.333 OA
HETATM   17  C15 UNL     1      17.675   1.434  51.666  1.00  0.00     0.240 A 
HETATM   18  C16 UNL     1      17.347   0.233  50.876  1.00  0.00     0.132 A 
HETATM   19  N2  UNL     1      18.543  -0.260  50.908  1.00  0.00    -0.244 NA
HETATM   20  C17 UNL     1      19.062   0.834  51.684  1.00  0.00     0.159 A 
HETATM   21  N3  UNL     1      19.851   1.595  52.337  1.00  0.00    -0.243 NA
HETATM   22  C18 UNL     1      21.216   1.380  52.571  1.00  0.00     0.117 C 
HETATM   23  C19 UNL     1      22.464   1.082  52.237  1.00  0.00     0.028 C 
HETATM   24  H13 UNL     1      22.569   3.019  49.973  1.00  0.00     0.171 HD
ENDROOT
BRANCH   1  25
HETATM   25  O2  UNL     1      24.083  -0.361  53.212  1.00  0.00    -0.354 OA
BRANCH  25  26
HETATM   26  C2  UNL     1      24.700  -0.510  54.443  1.00  0.00     0.338 C 
BRANCH  26  27
HETATM   27  O1  UNL     1      26.029  -0.877  54.192  1.00  0.00    -0.372 OA
HETATM   28  C1  UNL     1      26.855   0.071  54.769  1.00  0.00     0.204 C 
ENDBRANCH  26  27
ENDBRANCH  25  26
ENDBRANCH   1  25
TORSDOF 3
ENDMDL
MODEL 9
REMARK VINA RESULT:      -6.9      9.067     12.126
REMARK  3 active torsions:
REMARK  status: ('A' for Active; 'I' for Inactive)
REMARK    1  A    between atoms: O1_2  and  C2_3 
REMARK    2  A    between atoms: C2_3  and  O2_4 
REMARK    3  A    between atoms: O2_4  and  C3_5 
ROOT
HETATM    1  C3  UNL     1      32.425   6.991  43.718  1.00  0.00     0.171 C 
HETATM    2  C4  UNL     1      33.448   5.995  44.200  1.00  0.00     0.005 C 
HETATM    3  C5  UNL     1      33.781   4.677  44.232  1.00  0.00    -0.026 C 
HETATM    4  C6  UNL     1      35.038   4.166  44.915  1.00  0.00     0.054 C 
HETATM    5  C7  UNL     1      34.504   3.217  46.053  1.00  0.00     0.184 C 
HETATM    6  O3  UNL     1      33.599   4.046  46.670  1.00  0.00    -0.304 OA
HETATM    7  C8  UNL     1      32.785   4.011  47.687  1.00  0.00     0.365 C 
HETATM    8  O4  UNL     1      32.651   3.085  48.440  1.00  0.00    -0.238 OA
HETATM    9  N1  UNL     1      31.935   5.059  48.051  1.00  0.00    -0.303 N 
HETATM   10  C9  UNL     1      31.056   6.141  48.427  1.00  0.00     0.037 A 
HETATM   11  C10 UNL     1      31.624   7.213  49.068  1.00  0.00     0.032 A 
HETATM   12  C11 UNL     1      30.517   7.993  49.037  1.00  0.00     0.039 A 
HETATM   13  C12 UNL     1      29.292   7.724  48.523  1.00  0.00     0.070 A 
HETATM   14  C13 UNL     1      28.747   6.644  47.896  1.00  0.00     0.039 A 
HETATM   15  C14 UNL     1      29.828   5.818  47.896  1.00  0.00     0.032 A 
HETATM   16  O5  UNL     1      28.467   8.855  48.701  1.00  0.00    -0.333 OA
HETATM   17  C15 UNL     1      28.553   9.872  47.677  1.00  0.00     0.240 A 
HETATM   18  C16 UNL     1      29.312  11.030  48.184  1.00  0.00     0.132 A 
HETATM   19  N2  UNL     1      30.373  10.793  47.482  1.00  0.00    -0.244 NA
HETATM   20  C17 UNL     1      29.807   9.620  46.872  1.00  0.00     0.159 A 
HETATM   21  N3  UNL     1      29.655   8.576  46.156  1.00  0.00    -0.243 NA
HETATM   22  C18 UNL     1      30.596   8.020  45.278  1.00  0.00     0.117 C 
HETATM   23  C19 UNL     1      31.792   7.579  44.914  1.00  0.00     0.028 C 
HETATM   24  H13 UNL     1      32.128   5.821  47.300  1.00  0.00     0.171 HD
ENDROOT
BRANCH   1  25
HETATM   25  O2  UNL     1      33.110   7.939  42.969  1.00  0.00    -0.354 OA
BRANCH  25  26
HETATM   26  C2  UNL     1      34.424   8.118  43.371  1.00  0.00     0.338 C 
BRANCH  26  27
HETATM   27  O1  UNL     1      34.551   9.456  43.770  1.00  0.00    -0.372 OA
HETATM   28  C1  UNL     1      35.243   9.486  44.967  1.00  0.00     0.204 C 
ENDBRANCH  26  27
ENDBRANCH  25  26
ENDBRANCH   1  25
TORSDOF 3
ENDMDL
