MODEL 1
REMARK VINA RESULT:      -8.0      0.000      0.000
REMARK  7 active torsions:
REMARK  status: ('A' for Active; 'I' for Inactive)
REMARK    1  A    between atoms: N1_1  and  C1_2 
REMARK    2  A    between atoms: C2_3  and  N2_4 
REMARK    3  A    between atoms: C3_5  and  C4_6 
REMARK    4  A    between atoms: C3_5  and  C11_14 
REMARK    5  A    between atoms: C4_6  and  C5_7 
REMARK    6  A    between atoms: C9_11  and  O1_12 
REMARK    7  A    between atoms: C15_18  and  O2_19 
ROOT
HETATM    1  N2  UNL     1      25.411   1.519  51.707  1.00  0.00    -0.263 NA
HETATM    2  C3  UNL     1      25.377   1.023  52.898  1.00  0.00     0.048 C 
ENDROOT
BRANCH   2   3
HETATM    3  C4  UNL     1      26.419   1.052  53.982  1.00  0.00     0.098 C 
BRANCH   3   4
HETATM    4  C5  UNL     1      27.530   0.104  53.713  1.00  0.00    -0.050 A 
HETATM    5  C6  UNL     1      28.787   0.703  53.848  1.00  0.00     0.007 A 
HETATM    6  C7  UNL     1      29.942  -0.028  53.637  1.00  0.00     0.003 A 
HETATM    7  C8  UNL     1      29.783  -1.373  53.286  1.00  0.00     0.036 A 
HETATM    8  C9  UNL     1      28.547  -1.926  53.162  1.00  0.00     0.066 A 
HETATM    9  C10 UNL     1      27.380  -1.223  53.367  1.00  0.00     0.044 A 
BRANCH   8  10
HETATM   10  O1  UNL     1      28.365  -3.277  52.810  1.00  0.00    -0.361 OA
HETATM   11  H10 UNL     1      29.023  -3.631  52.135  1.00  0.00     0.217 HD
ENDBRANCH   8  10
ENDBRANCH   3   4
ENDBRANCH   2   3
BRANCH   2  12
HETATM   12  C11 UNL     1      24.140   0.327  53.237  1.00  0.00    -0.009 A 
HETATM   13  C12 UNL     1      22.981   0.421  52.489  1.00  0.00     0.013 A 
HETATM   14  C13 UNL     1      21.794  -0.213  52.767  1.00  0.00     0.004 A 
HETATM   15  C14 UNL     1      21.733  -1.017  53.886  1.00  0.00     0.036 A 
HETATM   16  C15 UNL     1      22.847  -1.163  54.686  1.00  0.00     0.066 A 
HETATM   17  C16 UNL     1      23.994  -0.491  54.332  1.00  0.00     0.050 A 
BRANCH  16  18
HETATM   18  O2  UNL     1      22.787  -1.977  55.819  1.00  0.00    -0.361 OA
HETATM   19  H15 UNL     1      22.894  -2.991  55.662  1.00  0.00     0.217 HD
ENDBRANCH  16  18
ENDBRANCH   2  12
BRANCH   1  20
HETATM   20  C2  UNL     1      26.474   2.228  51.130  1.00  0.00     0.133 C 
HETATM   21  C1  UNL     1      25.810   3.080  50.332  1.00  0.00     0.099 C 
BRANCH  21  22
HETATM   22  N1  UNL     1      24.376   3.041  50.289  1.00  0.00    -0.407 N 
HETATM   23  H1  UNL     1      23.401   2.732  50.370  1.00  0.00     0.155 HD
HETATM   24  H2  UNL     1      23.403   3.380  50.114  1.00  0.00     0.155 HD
ENDBRANCH  21  22
ENDBRANCH   1  20
TORSDOF 7
ENDMDL
MODEL 2
REMARK VINA RESULT:      -7.7      1.881      5.395
REMARK  7 active torsions:
REMARK  status: ('A' for Active; 'I' for Inactive)
REMARK    1  A    between atoms: N1_1  and  C1_2 
REMARK    2  A    between atoms: C2_3  and  N2_4 
REMARK    3  A    between atoms: C3_5  and  C4_6 
REMARK    4  A    between atoms: C3_5  and  C11_14 
REMARK    5  A    between atoms: C4_6  and  C5_7 
REMARK    6  A    between atoms: C9_11  and  O1_12 
REMARK    7  A    between atoms: C15_18  and  O2_19 
ROOT
HETATM    1  N2  UNL     1      24.962   2.880  52.527  1.00  0.00    -0.263 NA
HETATM    2  C3  UNL     1      25.157   1.606  52.455  1.00  0.00     0.048 C 
ENDROOT
BRANCH   2   3
HETATM    3  C4  UNL     1      24.228   0.515  51.998  1.00  0.00     0.098 C 
BRANCH   3   4
HETATM    4  C5  UNL     1      23.345   0.040  53.093  1.00  0.00    -0.050 A 
HETATM    5  C6  UNL     1      22.050   0.562  53.000  1.00  0.00     0.007 A 
HETATM    6  C7  UNL     1      21.087   0.229  53.934  1.00  0.00     0.003 A 
HETATM    7  C8  UNL     1      21.475  -0.642  54.958  1.00  0.00     0.036 A 
HETATM    8  C9  UNL     1      22.742  -1.133  55.022  1.00  0.00     0.066 A 
HETATM    9  C10 UNL     1      23.721  -0.819  54.105  1.00  0.00     0.044 A 
BRANCH   8  10
HETATM   10  O1  UNL     1      23.152  -2.010  56.044  1.00  0.00    -0.361 OA
HETATM   11  H10 UNL     1      23.267  -2.968  55.759  1.00  0.00     0.217 HD
ENDBRANCH   8  10
ENDBRANCH   3   4
ENDBRANCH   2   3
BRANCH   2  12
HETATM   12  C11 UNL     1      26.479   1.163  52.885  1.00  0.00    -0.009 A 
HETATM   13  C12 UNL     1      26.953  -0.122  52.697  1.00  0.00     0.013 A 
HETATM   14  C13 UNL     1      28.189  -0.585  53.083  1.00  0.00     0.004 A 
HETATM   15  C14 UNL     1      29.043   0.292  53.717  1.00  0.00     0.036 A 
HETATM   16  C15 UNL     1      28.645   1.592  53.943  1.00  0.00     0.066 A 
HETATM   17  C16 UNL     1      27.391   1.971  53.522  1.00  0.00     0.050 A 
BRANCH  16  18
HETATM   18  O2  UNL     1      29.509   2.483  54.584  1.00  0.00    -0.361 OA
HETATM   19  H15 UNL     1      29.138   3.426  54.774  1.00  0.00     0.217 HD
ENDBRANCH  16  18
ENDBRANCH   2  12
BRANCH   1  20
HETATM   20  C2  UNL     1      23.788   3.563  52.180  1.00  0.00     0.133 C 
HETATM   21  C1  UNL     1      24.240   4.371  51.207  1.00  0.00     0.099 C 
BRANCH  21  22
HETATM   22  N1  UNL     1      25.624   4.325  50.832  1.00  0.00    -0.407 N 
HETATM   23  H1  UNL     1      26.541   4.559  50.434  1.00  0.00     0.155 HD
HETATM   24  H2  UNL     1      26.598   3.948  50.764  1.00  0.00     0.155 HD
ENDBRANCH  21  22
ENDBRANCH   1  20
TORSDOF 7
ENDMDL
MODEL 3
REMARK VINA RESULT:      -7.6      2.207      4.103
REMARK  7 active torsions:
REMARK  status: ('A' for Active; 'I' for Inactive)
REMARK    1  A    between atoms: N1_1  and  C1_2 
REMARK    2  A    between atoms: C2_3  and  N2_4 
REMARK    3  A    between atoms: C3_5  and  C4_6 
REMARK    4  A    between atoms: C3_5  and  C11_14 
REMARK    5  A    between atoms: C4_6  and  C5_7 
REMARK    6  A    between atoms: C9_11  and  O1_12 
REMARK    7  A    between atoms: C15_18  and  O2_19 
ROOT
HETATM    1  N2  UNL     1      24.121   0.092  53.410  1.00  0.00    -0.263 NA
HETATM    2  C3  UNL     1      25.132   0.885  53.281  1.00  0.00     0.048 C 
ENDROOT
BRANCH   2   3
HETATM    3  C4  UNL     1      26.326   1.072  54.175  1.00  0.00     0.098 C 
BRANCH   3   4
HETATM    4  C5  UNL     1      27.432   0.143  53.830  1.00  0.00    -0.050 A 
HETATM    5  C6  UNL     1      28.690   0.745  53.939  1.00  0.00     0.007 A 
HETATM    6  C7  UNL     1      29.839   0.031  53.657  1.00  0.00     0.003 A 
HETATM    7  C8  UNL     1      29.675  -1.301  53.264  1.00  0.00     0.036 A 
HETATM    8  C9  UNL     1      28.439  -1.859  53.168  1.00  0.00     0.066 A 
HETATM    9  C10 UNL     1      27.276  -1.172  53.442  1.00  0.00     0.044 A 
BRANCH   8  10
HETATM   10  O1  UNL     1      28.252  -3.197  52.774  1.00  0.00    -0.361 OA
HETATM   11  H10 UNL     1      27.326  -3.416  52.443  1.00  0.00     0.217 HD
ENDBRANCH   8  10
ENDBRANCH   3   4
ENDBRANCH   2   3
BRANCH   2  12
HETATM   12  C11 UNL     1      25.104   1.726  52.089  1.00  0.00    -0.009 A 
HETATM   13  C12 UNL     1      23.979   1.901  51.304  1.00  0.00     0.013 A 
HETATM   14  C13 UNL     1      23.904   2.681  50.174  1.00  0.00     0.004 A 
HETATM   15  C14 UNL     1      25.038   3.354  49.772  1.00  0.00     0.036 A 
HETATM   16  C15 UNL     1      26.202   3.233  50.502  1.00  0.00     0.066 A 
HETATM   17  C16 UNL     1      26.187   2.431  51.620  1.00  0.00     0.050 A 
BRANCH  16  18
HETATM   18  O2  UNL     1      27.351   3.915  50.098  1.00  0.00    -0.361 OA
HETATM   19  H15 UNL     1      27.792   4.528  50.800  1.00  0.00     0.217 HD
ENDBRANCH  16  18
ENDBRANCH   2  12
BRANCH   1  20
HETATM   20  C2  UNL     1      23.900  -0.812  54.457  1.00  0.00     0.133 C 
HETATM   21  C1  UNL     1      22.577  -1.016  54.345  1.00  0.00     0.099 C 
BRANCH  21  22
HETATM   22  N1  UNL     1      21.840  -0.339  53.316  1.00  0.00    -0.407 N 
HETATM   23  H1  UNL     1      21.086   0.111  52.784  1.00  0.00     0.155 HD
HETATM   24  H2  UNL     1      21.667   0.134  52.400  1.00  0.00     0.155 HD
ENDBRANCH  21  22
ENDBRANCH   1  20
TORSDOF 7
ENDMDL
MODEL 4
REMARK VINA RESULT:      -7.5      2.428      5.709
REMARK  7 active torsions:
REMARK  status: ('A' for Active; 'I' for Inactive)
REMARK    1  A    between atoms: N1_1  and  C1_2 
REMARK    2  A    between atoms: C2_3  and  N2_4 
REMARK    3  A    between atoms: C3_5  and  C4_6 
REMARK    4  A    between atoms: C3_5  and  C11_14 
REMARK    5  A    between atoms: C4_6  and  C5_7 
REMARK    6  A    between atoms: C9_11  and  O1_12 
REMARK    7  A    between atoms: C15_18  and  O2_19 
ROOT
HETATM    1  N2  UNL     1      24.380  -0.515  53.646  1.00  0.00    -0.263 NA
HETATM    2  C3  UNL     1      25.313   0.371  53.543  1.00  0.00     0.048 C 
ENDROOT
BRANCH   2   3
HETATM    3  C4  UNL     1      25.212   1.869  53.459  1.00  0.00     0.098 C 
BRANCH   3   4
HETATM    4  C5  UNL     1      25.178   2.348  52.054  1.00  0.00    -0.050 A 
HETATM    5  C6  UNL     1      23.885   2.347  51.521  1.00  0.00     0.007 A 
HETATM    6  C7  UNL     1      23.659   2.763  50.222  1.00  0.00     0.003 A 
HETATM    7  C8  UNL     1      24.776   3.176  49.487  1.00  0.00     0.036 A 
HETATM    8  C9  UNL     1      26.021   3.166  50.034  1.00  0.00     0.066 A 
HETATM    9  C10 UNL     1      26.276   2.757  51.325  1.00  0.00     0.044 A 
BRANCH   8  10
HETATM   10  O1  UNL     1      27.158   3.577  49.313  1.00  0.00    -0.361 OA
HETATM   11  H10 UNL     1      27.709   2.827  48.929  1.00  0.00     0.217 HD
ENDBRANCH   8  10
ENDBRANCH   3   4
ENDBRANCH   2   3
BRANCH   2  12
HETATM   12  C11 UNL     1      26.668  -0.169  53.499  1.00  0.00    -0.009 A 
HETATM   13  C12 UNL     1      27.796   0.575  53.795  1.00  0.00     0.013 A 
HETATM   14  C13 UNL     1      29.091   0.112  53.769  1.00  0.00     0.004 A 
HETATM   15  C14 UNL     1      29.304  -1.204  53.417  1.00  0.00     0.036 A 
HETATM   16  C15 UNL     1      28.231  -2.012  53.106  1.00  0.00     0.066 A 
HETATM   17  C16 UNL     1      26.969  -1.467  53.160  1.00  0.00     0.050 A 
BRANCH  16  18
HETATM   18  O2  UNL     1      28.444  -3.345  52.751  1.00  0.00    -0.361 OA
HETATM   19  H15 UNL     1      29.426  -3.658  52.710  1.00  0.00     0.217 HD
ENDBRANCH  16  18
ENDBRANCH   2  12
BRANCH   1  20
HETATM   20  C2  UNL     1      23.002  -0.270  53.705  1.00  0.00     0.133 C 
HETATM   21  C1  UNL     1      22.681  -0.886  54.854  1.00  0.00     0.099 C 
BRANCH  21  22
HETATM   22  N1  UNL     1      23.703  -1.546  55.615  1.00  0.00    -0.407 N 
HETATM   23  H1  UNL     1      24.199  -2.061  56.351  1.00  0.00     0.155 HD
HETATM   24  H2  UNL     1      24.656  -1.908  55.847  1.00  0.00     0.155 HD
ENDBRANCH  21  22
ENDBRANCH   1  20
TORSDOF 7
ENDMDL
MODEL 5
REMARK VINA RESULT:      -7.5      2.178      2.727
REMARK  7 active torsions:
REMARK  status: ('A' for Active; 'I' for Inactive)
REMARK    1  A    between atoms: N1_1  and  C1_2 
REMARK    2  A    between atoms: C2_3  and  N2_4 
REMARK    3  A    between atoms: C3_5  and  C4_6 
REMARK    4  A    between atoms: C3_5  and  C11_14 
REMARK    5  A    between atoms: C4_6  and  C5_7 
REMARK    6  A    between atoms: C9_11  and  O1_12 
REMARK    7  A    between atoms: C15_18  and  O2_19 
ROOT
HETATM    1  N2  UNL     1      23.311   2.764  52.785  1.00  0.00    -0.263 NA
HETATM    2  C3  UNL     1      23.676   1.555  52.520  1.00  0.00     0.048 C 
ENDROOT
BRANCH   2   3
HETATM    3  C4  UNL     1      24.780   1.058  51.628  1.00  0.00     0.098 C 
BRANCH   3   4
HETATM    4  C5  UNL     1      26.062   0.904  52.361  1.00  0.00    -0.050 A 
HETATM    5  C6  UNL     1      26.511  -0.421  52.379  1.00  0.00     0.007 A 
HETATM    6  C7  UNL     1      27.691  -0.757  53.015  1.00  0.00     0.003 A 
HETATM    7  C8  UNL     1      28.396   0.285  53.629  1.00  0.00     0.036 A 
HETATM    8  C9  UNL     1      27.934   1.563  53.595  1.00  0.00     0.066 A 
HETATM    9  C10 UNL     1      26.761   1.926  52.968  1.00  0.00     0.044 A 
BRANCH   8  10
HETATM   10  O1  UNL     1      28.627   2.625  54.206  1.00  0.00    -0.361 OA
HETATM   11  H10 UNL     1      29.553   2.397  54.526  1.00  0.00     0.217 HD
ENDBRANCH   8  10
ENDBRANCH   3   4
ENDBRANCH   2   3
BRANCH   2  12
HETATM   12  C11 UNL     1      22.895   0.518  53.188  1.00  0.00    -0.009 A 
HETATM   13  C12 UNL     1      21.607   0.175  52.819  1.00  0.00     0.013 A 
HETATM   14  C13 UNL     1      20.834  -0.792  53.415  1.00  0.00     0.004 A 
HETATM   15  C14 UNL     1      21.370  -1.492  54.475  1.00  0.00     0.036 A 
HETATM   16  C15 UNL     1      22.650  -1.210  54.905  1.00  0.00     0.066 A 
HETATM   17  C16 UNL     1      23.353  -0.226  54.250  1.00  0.00     0.050 A 
BRANCH  16  18
HETATM   18  O2  UNL     1      23.195  -1.918  55.977  1.00  0.00    -0.361 OA
HETATM   19  H15 UNL     1      24.018  -2.504  55.770  1.00  0.00     0.217 HD
ENDBRANCH  16  18
ENDBRANCH   2  12
BRANCH   1  20
HETATM   20  C2  UNL     1      23.885   3.938  52.279  1.00  0.00     0.133 C 
HETATM   21  C1  UNL     1      22.790   4.678  52.044  1.00  0.00     0.099 C 
BRANCH  21  22
HETATM   22  N1  UNL     1      21.493   4.139  52.336  1.00  0.00    -0.407 N 
HETATM   23  H1  UNL     1      20.678   3.517  52.385  1.00  0.00     0.155 HD
HETATM   24  H2  UNL     1      20.523   4.105  52.726  1.00  0.00     0.155 HD
ENDBRANCH  21  22
ENDBRANCH   1  20
TORSDOF 7
ENDMDL
MODEL 6
REMARK VINA RESULT:      -7.4      3.170      6.210
REMARK  7 active torsions:
REMARK  status: ('A' for Active; 'I' for Inactive)
REMARK    1  A    between atoms: N1_1  and  C1_2 
REMARK    2  A    between atoms: C2_3  and  N2_4 
REMARK    3  A    between atoms: C3_5  and  C4_6 
REMARK    4  A    between atoms: C3_5  and  C11_14 
REMARK    5  A    between atoms: C4_6  and  C5_7 
REMARK    6  A    between atoms: C9_11  and  O1_12 
REMARK    7  A    between atoms: C15_18  and  O2_19 
ROOT
HETATM    1  N2  UNL     1      23.267  -0.549  53.365  1.00  0.00    -0.263 NA
HETATM    2  C3  UNL     1      23.809   0.588  53.084  1.00  0.00     0.048 C 
ENDROOT
BRANCH   2   3
HETATM    3  C4  UNL     1      23.163   1.895  52.715  1.00  0.00     0.098 C 
BRANCH   3   4
HETATM    4  C5  UNL     1      22.992   2.038  51.247  1.00  0.00    -0.050 A 
HETATM    5  C6  UNL     1      23.901   2.943  50.689  1.00  0.00     0.007 A 
HETATM    6  C7  UNL     1      23.891   3.205  49.331  1.00  0.00     0.003 A 
HETATM    7  C8  UNL     1      22.938   2.526  48.564  1.00  0.00     0.036 A 
HETATM    8  C9  UNL     1      22.067   1.652  49.136  1.00  0.00     0.066 A 
HETATM    9  C10 UNL     1      22.054   1.372  50.485  1.00  0.00     0.044 A 
BRANCH   8  10
HETATM   10  O1  UNL     1      21.101   0.959  48.383  1.00  0.00    -0.361 OA
HETATM   11  H10 UNL     1      20.999   1.275  47.432  1.00  0.00     0.217 HD
ENDBRANCH   8  10
ENDBRANCH   3   4
ENDBRANCH   2   3
BRANCH   2  12
HETATM   12  C11 UNL     1      25.267   0.601  53.129  1.00  0.00    -0.009 A 
HETATM   13  C12 UNL     1      26.053  -0.468  52.741  1.00  0.00     0.013 A 
HETATM   14  C13 UNL     1      27.427  -0.503  52.765  1.00  0.00     0.004 A 
HETATM   15  C14 UNL     1      28.099   0.614  53.214  1.00  0.00     0.036 A 
HETATM   16  C15 UNL     1      27.387   1.723  53.620  1.00  0.00     0.066 A 
HETATM   17  C16 UNL     1      26.014   1.672  53.562  1.00  0.00     0.050 A 
BRANCH  16  18
HETATM   18  O2  UNL     1      28.065   2.857  54.074  1.00  0.00    -0.361 OA
HETATM   19  H15 UNL     1      27.831   3.748  53.610  1.00  0.00     0.217 HD
ENDBRANCH  16  18
ENDBRANCH   2  12
BRANCH   1  20
HETATM   20  C2  UNL     1      21.896  -0.835  53.391  1.00  0.00     0.133 C 
HETATM   21  C1  UNL     1      21.767  -1.361  54.620  1.00  0.00     0.099 C 
BRANCH  21  22
HETATM   22  N1  UNL     1      22.919  -1.476  55.467  1.00  0.00    -0.407 N 
HETATM   23  H1  UNL     1      23.835  -1.319  55.904  1.00  0.00     0.155 HD
HETATM   24  H2  UNL     1      23.531  -1.859  56.224  1.00  0.00     0.155 HD
ENDBRANCH  21  22
ENDBRANCH   1  20
TORSDOF 7
ENDMDL
MODEL 7
REMARK VINA RESULT:      -7.3      2.281      5.503
REMARK  7 active torsions:
REMARK  status: ('A' for Active; 'I' for Inactive)
REMARK    1  A    between atoms: N1_1  and  C1_2 
REMARK    2  A    between atoms: C2_3  and  N2_4 
REMARK    3  A    between atoms: C3_5  and  C4_6 
REMARK    4  A    between atoms: C3_5  and  C11_14 
REMARK    5  A    between atoms: C4_6  and  C5_7 
REMARK    6  A    between atoms: C9_11  and  O1_12 
REMARK    7  A    between atoms: C15_18  and  O2_19 
ROOT
HETATM    1  N2  UNL     1      25.875   2.617  50.845  1.00  0.00    -0.263 NA
HETATM    2  C3  UNL     1      25.729   2.272  52.080  1.00  0.00     0.048 C 
ENDROOT
BRANCH   2   3
HETATM    3  C4  UNL     1      24.548   2.447  52.994  1.00  0.00     0.098 C 
BRANCH   3   4
HETATM    4  C5  UNL     1      23.559   1.349  52.845  1.00  0.00    -0.050 A 
HETATM    5  C6  UNL     1      23.802   0.289  53.726  1.00  0.00     0.007 A 
HETATM    6  C7  UNL     1      22.983  -0.824  53.732  1.00  0.00     0.003 A 
HETATM    7  C8  UNL     1      21.918  -0.829  52.824  1.00  0.00     0.036 A 
HETATM    8  C9  UNL     1      21.708   0.216  51.980  1.00  0.00     0.066 A 
HETATM    9  C10 UNL     1      22.508   1.338  51.952  1.00  0.00     0.044 A 
BRANCH   8  10
HETATM   10  O1  UNL     1      20.643   0.231  51.059  1.00  0.00    -0.361 OA
HETATM   11  H10 UNL     1      20.907   0.050  50.104  1.00  0.00     0.217 HD
ENDBRANCH   8  10
ENDBRANCH   3   4
ENDBRANCH   2   3
BRANCH   2  12
HETATM   12  C11 UNL     1      26.888   1.614  52.674  1.00  0.00    -0.009 A 
HETATM   13  C12 UNL     1      27.155   0.265  52.536  1.00  0.00     0.013 A 
HETATM   14  C13 UNL     1      28.232  -0.399  53.076  1.00  0.00     0.004 A 
HETATM   15  C14 UNL     1      29.134   0.327  53.824  1.00  0.00     0.036 A 
HETATM   16  C15 UNL     1      28.940   1.679  54.008  1.00  0.00     0.066 A 
HETATM   17  C16 UNL     1      27.835   2.262  53.432  1.00  0.00     0.050 A 
BRANCH  16  18
HETATM   18  O2  UNL     1      29.853   2.417  54.765  1.00  0.00    -0.361 OA
HETATM   19  H15 UNL     1      29.575   2.638  55.733  1.00  0.00     0.217 HD
ENDBRANCH  16  18
ENDBRANCH   2  12
BRANCH   1  20
HETATM   20  C2  UNL     1      24.925   3.262  50.042  1.00  0.00     0.133 C 
HETATM   21  C1  UNL     1      25.686   4.189  49.438  1.00  0.00     0.099 C 
BRANCH  21  22
HETATM   22  N1  UNL     1      27.087   4.262  49.739  1.00  0.00    -0.407 N 
HETATM   23  H1  UNL     1      28.099   4.086  49.749  1.00  0.00     0.155 HD
HETATM   24  H2  UNL     1      27.964   4.605  50.195  1.00  0.00     0.155 HD
ENDBRANCH  21  22
ENDBRANCH   1  20
TORSDOF 7
ENDMDL
MODEL 8
REMARK VINA RESULT:      -7.3      2.763      5.653
REMARK  7 active torsions:
REMARK  status: ('A' for Active; 'I' for Inactive)
REMARK    1  A    between atoms: N1_1  and  C1_2 
REMARK    2  A    between atoms: C2_3  and  N2_4 
REMARK    3  A    between atoms: C3_5  and  C4_6 
REMARK    4  A    between atoms: C3_5  and  C11_14 
REMARK    5  A    between atoms: C4_6  and  C5_7 
REMARK    6  A    between atoms: C9_11  and  O1_12 
REMARK    7  A    between atoms: C15_18  and  O2_19 
ROOT
HETATM    1  N2  UNL     1      23.514  -0.492  53.269  1.00  0.00    -0.263 NA
HETATM    2  C3  UNL     1      24.362   0.481  53.274  1.00  0.00     0.048 C 
ENDROOT
BRANCH   2   3
HETATM    3  C4  UNL     1      24.126   1.962  53.168  1.00  0.00     0.098 C 
BRANCH   3   4
HETATM    4  C5  UNL     1      24.523   2.497  51.841  1.00  0.00    -0.050 A 
HETATM    5  C6  UNL     1      23.481   2.441  50.909  1.00  0.00     0.007 A 
HETATM    6  C7  UNL     1      23.667   2.896  49.617  1.00  0.00     0.003 A 
HETATM    7  C8  UNL     1      24.931   3.406  49.302  1.00  0.00     0.036 A 
HETATM    8  C9  UNL     1      25.924   3.447  50.230  1.00  0.00     0.066 A 
HETATM    9  C10 UNL     1      25.768   3.000  51.524  1.00  0.00     0.044 A 
BRANCH   8  10
HETATM   10  O1  UNL     1      27.203   3.955  49.934  1.00  0.00    -0.361 OA
HETATM   11  H10 UNL     1      27.252   4.523  49.104  1.00  0.00     0.217 HD
ENDBRANCH   8  10
ENDBRANCH   3   4
ENDBRANCH   2   3
BRANCH   2  12
HETATM   12  C11 UNL     1      25.759   0.077  53.398  1.00  0.00    -0.009 A 
HETATM   13  C12 UNL     1      26.312  -0.983  52.705  1.00  0.00     0.013 A 
HETATM   14  C13 UNL     1      27.619  -1.401  52.788  1.00  0.00     0.004 A 
HETATM   15  C14 UNL     1      28.468  -0.717  53.632  1.00  0.00     0.036 A 
HETATM   16  C15 UNL     1      27.993   0.354  54.360  1.00  0.00     0.066 A 
HETATM   17  C16 UNL     1      26.671   0.704  54.215  1.00  0.00     0.050 A 
BRANCH  16  18
HETATM   18  O2  UNL     1      28.851   1.049  55.214  1.00  0.00    -0.361 OA
HETATM   19  H15 UNL     1      28.776   2.078  55.203  1.00  0.00     0.217 HD
ENDBRANCH  16  18
ENDBRANCH   2  12
BRANCH   1  20
HETATM   20  C2  UNL     1      22.122  -0.383  53.159  1.00  0.00     0.133 C 
HETATM   21  C1  UNL     1      21.729  -0.934  54.319  1.00  0.00     0.099 C 
BRANCH  21  22
HETATM   22  N1  UNL     1      22.713  -1.425  55.241  1.00  0.00    -0.407 N 
HETATM   23  H1  UNL     1      23.402  -2.020  55.716  1.00  0.00     0.155 HD
HETATM   24  H2  UNL     1      23.357  -1.418  56.065  1.00  0.00     0.155 HD
ENDBRANCH  21  22
ENDBRANCH   1  20
TORSDOF 7
ENDMDL
MODEL 9
REMARK VINA RESULT:      -7.1      3.259      6.195
REMARK  7 active torsions:
REMARK  status: ('A' for Active; 'I' for Inactive)
REMARK    1  A    between atoms: N1_1  and  C1_2 
REMARK    2  A    between atoms: C2_3  and  N2_4 
REMARK    3  A    between atoms: C3_5  and  C4_6 
REMARK    4  A    between atoms: C3_5  and  C11_14 
REMARK    5  A    between atoms: C4_6  and  C5_7 
REMARK    6  A    between atoms: C9_11  and  O1_12 
REMARK    7  A    between atoms: C15_18  and  O2_19 
ROOT
HETATM    1  N2  UNL     1      22.837   1.057  53.215  1.00  0.00    -0.263 NA
HETATM    2  C3  UNL     1      23.655   1.377  52.269  1.00  0.00     0.048 C 
ENDROOT
BRANCH   2   3
HETATM    3  C4  UNL     1      23.372   1.949  50.907  1.00  0.00     0.098 C 
BRANCH   3   4
HETATM    4  C5  UNL     1      23.979   3.292  50.730  1.00  0.00    -0.050 A 
HETATM    5  C6  UNL     1      24.838   3.349  49.627  1.00  0.00     0.007 A 
HETATM    6  C7  UNL     1      25.494   4.522  49.304  1.00  0.00     0.003 A 
HETATM    7  C8  UNL     1      25.255   5.627  50.129  1.00  0.00     0.036 A 
HETATM    8  C9  UNL     1      24.414   5.541  51.194  1.00  0.00     0.066 A 
HETATM    9  C10 UNL     1      23.747   4.385  51.539  1.00  0.00     0.044 A 
BRANCH   8  10
HETATM   10  O1  UNL     1      24.160   6.640  52.036  1.00  0.00    -0.361 OA
HETATM   11  H10 UNL     1      24.243   7.540  51.593  1.00  0.00     0.217 HD
ENDBRANCH   8  10
ENDBRANCH   3   4
ENDBRANCH   2   3
BRANCH   2  12
HETATM   12  C11 UNL     1      25.063   1.145  52.572  1.00  0.00    -0.009 A 
HETATM   13  C12 UNL     1      25.740  -0.009  52.222  1.00  0.00     0.013 A 
HETATM   14  C13 UNL     1      27.063  -0.272  52.484  1.00  0.00     0.004 A 
HETATM   15  C14 UNL     1      27.797   0.684  53.153  1.00  0.00     0.036 A 
HETATM   16  C15 UNL     1      27.195   1.864  53.537  1.00  0.00     0.066 A 
HETATM   17  C16 UNL     1      25.866   2.045  53.234  1.00  0.00     0.050 A 
BRANCH  16  18
HETATM   18  O2  UNL     1      27.936   2.834  54.215  1.00  0.00    -0.361 OA
HETATM   19  H15 UNL     1      28.783   2.507  54.703  1.00  0.00     0.217 HD
ENDBRANCH  16  18
ENDBRANCH   2  12
BRANCH   1  20
HETATM   20  C2  UNL     1      21.441   1.174  53.185  1.00  0.00     0.133 C 
HETATM   21  C1  UNL     1      21.083   0.206  54.044  1.00  0.00     0.099 C 
BRANCH  21  22
HETATM   22  N1  UNL     1      22.095  -0.588  54.679  1.00  0.00    -0.407 N 
HETATM   23  H1  UNL     1      22.935  -0.878  55.195  1.00  0.00     0.155 HD
HETATM   24  H2  UNL     1      22.588  -1.452  55.003  1.00  0.00     0.155 HD
ENDBRANCH  21  22
ENDBRANCH   1  20
TORSDOF 7
ENDMDL
