MODEL 1
REMARK VINA RESULT:      -7.2      0.000      0.000
REMARK  4 active torsions:
REMARK  status: ('A' for Active; 'I' for Inactive)
REMARK    1  A    between atoms: C2_2  and  N1_3 
REMARK    2  A    between atoms: N1_3  and  C3_4 
REMARK    3  A    between atoms: C8_10  and  O2_11 
REMARK    4  A    between atoms: C17_22  and  N3_24 
ROOT
HETATM    1  C3  UNL     1      22.201   2.291  49.986  1.00  0.00     0.022 C 
HETATM    2  C4  UNL     1      22.244   1.514  51.066  1.00  0.00     0.000 A 
HETATM    3  C5  UNL     1      20.991   1.012  51.309  1.00  0.00     0.054 A 
HETATM    4  C6  UNL     1      20.194   0.198  52.093  1.00  0.00     0.102 A 
HETATM    5  O1  UNL     1      19.350  -0.481  52.694  1.00  0.00    -0.353 OA
HETATM    6  C7  UNL     1      18.474  -1.180  53.310  1.00  0.00     0.210 C 
HETATM    7  C8  UNL     1      21.214  -0.290  53.029  1.00  0.00     0.102 A 
HETATM    8  C10 UNL     1      22.620   0.049  53.041  1.00  0.00     0.053 A 
HETATM    9  C11 UNL     1      22.988   0.949  52.020  1.00  0.00    -0.010 A 
HETATM   10  C12 UNL     1      24.252   1.415  52.005  1.00  0.00    -0.008 C 
HETATM   11  C13 UNL     1      24.264   2.242  53.087  1.00  0.00     0.087 C 
HETATM   12  C14 UNL     1      23.455   3.353  52.647  1.00  0.00     0.242 C 
HETATM   13  O3  UNL     1      24.227   4.052  51.947  1.00  0.00    -0.269 OA
HETATM   14  N2  UNL     1      22.571   4.373  52.288  1.00  0.00    -0.357 N 
HETATM   15  C15 UNL     1      22.632   5.538  51.423  1.00  0.00     0.125 C 
HETATM   16  C16 UNL     1      22.547   5.303  49.982  1.00  0.00     0.047 C 
HETATM   17  C17 UNL     1      23.280   4.398  49.134  1.00  0.00     0.043 C 
HETATM   18  C18 UNL     1      22.711   4.568  47.698  1.00  0.00     0.035 C 
HETATM   19  C19 UNL     1      23.393   2.942  49.453  1.00  0.00     0.085 C 
HETATM   20  H14 UNL     1      21.924   3.844  52.946  1.00  0.00     0.162 HD
ENDROOT
BRANCH   7  21
HETATM   21  O2  UNL     1      21.105  -1.193  54.121  1.00  0.00    -0.353 OA
HETATM   22  C9  UNL     1      22.137  -1.572  54.957  1.00  0.00     0.210 C 
ENDBRANCH   7  21
BRANCH   1  23
HETATM   23  N1  UNL     1      21.061   2.552  49.236  1.00  0.00    -0.369 N 
HETATM   24  H4  UNL     1      20.507   2.497  50.158  1.00  0.00     0.165 HD
BRANCH  23  25
HETATM   25  C2  UNL     1      19.915   2.806  48.540  1.00  0.00     0.078 C 
HETATM   26  C1  UNL     1      19.060   3.786  48.371  1.00  0.00     0.029 C 
ENDBRANCH  23  25
ENDBRANCH   1  23
BRANCH  17  27
HETATM   27  N3  UNL     1      24.649   4.982  48.935  1.00  0.00    -0.153 NA
HETATM   28  F1  UNL     1      25.588   4.003  49.085  1.00  0.00    -0.135 F 
HETATM   29  H22 UNL     1      24.780   5.249  47.923  1.00  0.00     0.160 HD
ENDBRANCH  17  27
TORSDOF 4
ENDMDL
MODEL 2
REMARK VINA RESULT:      -7.1      2.516      4.444
REMARK  4 active torsions:
REMARK  status: ('A' for Active; 'I' for Inactive)
REMARK    1  A    between atoms: C2_2  and  N1_3 
REMARK    2  A    between atoms: N1_3  and  C3_4 
REMARK    3  A    between atoms: C8_10  and  O2_11 
REMARK    4  A    between atoms: C17_22  and  N3_24 
ROOT
HETATM    1  C3  UNL     1      23.400   3.270  50.912  1.00  0.00     0.022 C 
HETATM    2  C4  UNL     1      23.504   2.210  51.712  1.00  0.00     0.000 A 
HETATM    3  C5  UNL     1      24.805   1.779  51.722  1.00  0.00     0.054 A 
HETATM    4  C6  UNL     1      25.732   0.884  52.224  1.00  0.00     0.102 A 
HETATM    5  O1  UNL     1      26.676   0.163  52.572  1.00  0.00    -0.353 OA
HETATM    6  C7  UNL     1      27.656  -0.578  52.929  1.00  0.00     0.210 C 
HETATM    7  C8  UNL     1      24.852   0.116  53.113  1.00  0.00     0.102 A 
HETATM    8  C10 UNL     1      23.436   0.319  53.327  1.00  0.00     0.053 A 
HETATM    9  C11 UNL     1      22.903   1.382  52.570  1.00  0.00    -0.010 A 
HETATM   10  C12 UNL     1      21.571   1.591  52.611  1.00  0.00    -0.008 C 
HETATM   11  C13 UNL     1      21.095   0.521  51.915  1.00  0.00     0.087 C 
HETATM   12  C14 UNL     1      21.476   0.830  50.558  1.00  0.00     0.242 C 
HETATM   13  O3  UNL     1      20.603   1.639  50.159  1.00  0.00    -0.269 OA
HETATM   14  N2  UNL     1      21.948   1.047  49.262  1.00  0.00    -0.357 N 
HETATM   15  C15 UNL     1      21.572   1.910  48.155  1.00  0.00     0.125 C 
HETATM   16  C16 UNL     1      21.943   3.320  48.254  1.00  0.00     0.047 C 
HETATM   17  C17 UNL     1      21.735   4.272  49.315  1.00  0.00     0.043 C 
HETATM   18  C18 UNL     1      22.393   5.604  48.859  1.00  0.00     0.035 C 
HETATM   19  C19 UNL     1      22.138   3.978  50.724  1.00  0.00     0.085 C 
HETATM   20  H14 UNL     1      22.648   0.299  49.549  1.00  0.00     0.162 HD
ENDROOT
BRANCH   7  21
HETATM   21  O2  UNL     1      25.140  -0.977  53.973  1.00  0.00    -0.353 OA
HETATM   22  C9  UNL     1      24.640  -1.151  55.248  1.00  0.00     0.210 C 
ENDBRANCH   7  21
BRANCH   1  23
HETATM   23  N1  UNL     1      24.450   3.836  50.199  1.00  0.00    -0.369 N 
HETATM   24  H4  UNL     1      25.044   3.727  51.091  1.00  0.00     0.165 HD
BRANCH  23  25
HETATM   25  C2  UNL     1      25.508   4.388  49.538  1.00  0.00     0.078 C 
HETATM   26  C1  UNL     1      26.753   4.094  49.249  1.00  0.00     0.029 C 
ENDBRANCH  23  25
ENDBRANCH   1  23
BRANCH  17  27
HETATM   27  N3  UNL     1      20.289   4.678  49.276  1.00  0.00    -0.153 NA
HETATM   28  F1  UNL     1      19.878   5.024  50.531  1.00  0.00    -0.135 F 
HETATM   29  H22 UNL     1      20.189   5.592  48.759  1.00  0.00     0.160 HD
ENDBRANCH  17  27
TORSDOF 4
ENDMDL
MODEL 3
REMARK VINA RESULT:      -7.1      2.416      4.311
REMARK  4 active torsions:
REMARK  status: ('A' for Active; 'I' for Inactive)
REMARK    1  A    between atoms: C2_2  and  N1_3 
REMARK    2  A    between atoms: N1_3  and  C3_4 
REMARK    3  A    between atoms: C8_10  and  O2_11 
REMARK    4  A    between atoms: C17_22  and  N3_24 
ROOT
HETATM    1  C3  UNL     1      23.031   2.051  50.434  1.00  0.00     0.022 C 
HETATM    2  C4  UNL     1      24.283   2.120  50.882  1.00  0.00     0.000 A 
HETATM    3  C5  UNL     1      24.382   1.412  52.052  1.00  0.00     0.054 A 
HETATM    4  C6  UNL     1      25.196   0.963  53.075  1.00  0.00     0.102 A 
HETATM    5  O1  UNL     1      25.782   0.488  54.058  1.00  0.00    -0.353 OA
HETATM    6  C7  UNL     1      26.382  -0.006  55.074  1.00  0.00     0.210 C 
HETATM    7  C8  UNL     1      26.471   1.535  52.626  1.00  0.00     0.102 A 
HETATM    8  C10 UNL     1      26.699   2.329  51.438  1.00  0.00     0.053 A 
HETATM    9  C11 UNL     1      25.533   2.540  50.674  1.00  0.00    -0.010 A 
HETATM   10  C12 UNL     1      25.611   3.357  49.604  1.00  0.00    -0.008 C 
HETATM   11  C13 UNL     1      25.756   4.579  50.188  1.00  0.00     0.087 C 
HETATM   12  C14 UNL     1      24.447   4.822  50.745  1.00  0.00     0.242 C 
HETATM   13  O3  UNL     1      23.759   5.227  49.776  1.00  0.00    -0.269 OA
HETATM   14  N2  UNL     1      23.229   5.018  51.400  1.00  0.00    -0.357 N 
HETATM   15  C15 UNL     1      21.885   5.393  50.996  1.00  0.00     0.125 C 
HETATM   16  C16 UNL     1      21.077   4.367  50.338  1.00  0.00     0.047 C 
HETATM   17  C17 UNL     1      21.378   3.509  49.221  1.00  0.00     0.043 C 
HETATM   18  C18 UNL     1      20.139   2.594  49.011  1.00  0.00     0.035 C 
HETATM   19  C19 UNL     1      22.620   2.678  49.182  1.00  0.00     0.085 C 
HETATM   20  H14 UNL     1      23.814   4.760  52.251  1.00  0.00     0.162 HD
ENDROOT
BRANCH   7  21
HETATM   21  O2  UNL     1      27.767   1.461  53.201  1.00  0.00    -0.353 OA
HETATM   22  C9  UNL     1      28.576   2.539  53.501  1.00  0.00     0.210 C 
ENDBRANCH   7  21
BRANCH   1  23
HETATM   23  N1  UNL     1      21.994   1.374  51.066  1.00  0.00    -0.369 N 
HETATM   24  H4  UNL     1      22.642   1.292  51.923  1.00  0.00     0.165 HD
BRANCH  23  25
HETATM   25  C2  UNL     1      21.005   0.704  51.724  1.00  0.00     0.078 C 
HETATM   26  C1  UNL     1      20.862  -0.044  52.792  1.00  0.00     0.029 C 
ENDBRANCH  23  25
ENDBRANCH   1  23
BRANCH  17  27
HETATM   27  N3  UNL     1      21.289   4.346  47.977  1.00  0.00    -0.153 NA
HETATM   28  F1  UNL     1      22.388   4.123  47.198  1.00  0.00    -0.135 F 
HETATM   29  H22 UNL     1      20.513   3.986  47.360  1.00  0.00     0.160 HD
ENDBRANCH  17  27
TORSDOF 4
ENDMDL
MODEL 4
REMARK VINA RESULT:      -7.0      2.806      4.706
REMARK  4 active torsions:
REMARK  status: ('A' for Active; 'I' for Inactive)
REMARK    1  A    between atoms: C2_2  and  N1_3 
REMARK    2  A    between atoms: N1_3  and  C3_4 
REMARK    3  A    between atoms: C8_10  and  O2_11 
REMARK    4  A    between atoms: C17_22  and  N3_24 
ROOT
HETATM    1  C3  UNL     1      25.146   4.834  50.507  1.00  0.00     0.022 C 
HETATM    2  C4  UNL     1      24.754   3.855  51.321  1.00  0.00     0.000 A 
HETATM    3  C5  UNL     1      25.619   2.798  51.202  1.00  0.00     0.054 A 
HETATM    4  C6  UNL     1      25.975   1.532  51.626  1.00  0.00     0.102 A 
HETATM    5  O1  UNL     1      26.422   0.407  51.890  1.00  0.00    -0.353 OA
HETATM    6  C7  UNL     1      26.889  -0.753  52.159  1.00  0.00     0.210 C 
HETATM    7  C8  UNL     1      24.924   1.319  52.627  1.00  0.00     0.102 A 
HETATM    8  C10 UNL     1      23.865   2.237  52.987  1.00  0.00     0.053 A 
HETATM    9  C11 UNL     1      23.902   3.446  52.263  1.00  0.00    -0.010 A 
HETATM   10  C12 UNL     1      22.899   4.329  52.442  1.00  0.00    -0.008 C 
HETATM   11  C13 UNL     1      21.855   3.700  51.833  1.00  0.00     0.087 C 
HETATM   12  C14 UNL     1      22.193   3.804  50.435  1.00  0.00     0.242 C 
HETATM   13  O3  UNL     1      21.848   4.967  50.109  1.00  0.00    -0.269 OA
HETATM   14  N2  UNL     1      22.566   3.781  49.089  1.00  0.00    -0.357 N 
HETATM   15  C15 UNL     1      22.591   4.747  48.005  1.00  0.00     0.125 C 
HETATM   16  C16 UNL     1      23.664   5.741  48.023  1.00  0.00     0.047 C 
HETATM   17  C17 UNL     1      24.109   6.621  49.072  1.00  0.00     0.043 C 
HETATM   18  C18 UNL     1      25.322   7.414  48.508  1.00  0.00     0.035 C 
HETATM   19  C19 UNL     1      24.442   6.111  50.436  1.00  0.00     0.085 C 
HETATM   20  H14 UNL     1      22.787   2.765  49.319  1.00  0.00     0.162 HD
ENDROOT
BRANCH   7  21
HETATM   21  O2  UNL     1      24.676   0.212  53.482  1.00  0.00    -0.353 OA
HETATM   22  C9  UNL     1      23.448  -0.387  53.686  1.00  0.00     0.210 C 
ENDBRANCH   7  21
BRANCH   1  23
HETATM   23  N1  UNL     1      26.252   4.779  49.668  1.00  0.00    -0.369 N 
HETATM   24  H4  UNL     1      25.851   3.854  49.288  1.00  0.00     0.165 HD
BRANCH  23  25
HETATM   25  C2  UNL     1      27.322   4.683  48.826  1.00  0.00     0.078 C 
HETATM   26  C1  UNL     1      28.329   5.419  48.424  1.00  0.00     0.029 C 
ENDBRANCH  23  25
ENDBRANCH   1  23
BRANCH  17  27
HETATM   27  N3  UNL     1      23.107   7.735  49.178  1.00  0.00    -0.153 NA
HETATM   28  F1  UNL     1      23.759   8.932  49.231  1.00  0.00    -0.135 F 
HETATM   29  H22 UNL     1      22.573   7.822  48.272  1.00  0.00     0.160 HD
ENDBRANCH  17  27
TORSDOF 4
ENDMDL
MODEL 5
REMARK VINA RESULT:      -7.0      3.433      7.506
REMARK  4 active torsions:
REMARK  status: ('A' for Active; 'I' for Inactive)
REMARK    1  A    between atoms: C2_2  and  N1_3 
REMARK    2  A    between atoms: N1_3  and  C3_4 
REMARK    3  A    between atoms: C8_10  and  O2_11 
REMARK    4  A    between atoms: C17_22  and  N3_24 
ROOT
HETATM    1  C3  UNL     1      24.734   3.628  50.130  1.00  0.00     0.022 C 
HETATM    2  C4  UNL     1      24.951   4.742  49.433  1.00  0.00     0.000 A 
HETATM    3  C5  UNL     1      26.302   4.921  49.280  1.00  0.00     0.054 A 
HETATM    4  C6  UNL     1      27.322   5.684  48.743  1.00  0.00     0.102 A 
HETATM    5  O1  UNL     1      28.343   6.256  48.337  1.00  0.00    -0.353 OA
HETATM    6  C7  UNL     1      29.401   6.841  47.920  1.00  0.00     0.210 C 
HETATM    7  C8  UNL     1      26.514   6.708  48.069  1.00  0.00     0.102 A 
HETATM    8  C10 UNL     1      25.070   6.800  48.041  1.00  0.00     0.053 A 
HETATM    9  C11 UNL     1      24.430   5.768  48.756  1.00  0.00    -0.010 A 
HETATM   10  C12 UNL     1      23.089   5.817  48.885  1.00  0.00    -0.008 C 
HETATM   11  C13 UNL     1      22.924   6.861  49.745  1.00  0.00     0.087 C 
HETATM   12  C14 UNL     1      23.396   6.319  50.996  1.00  0.00     0.242 C 
HETATM   13  O3  UNL     1      22.434   5.642  51.434  1.00  0.00    -0.269 OA
HETATM   14  N2  UNL     1      23.968   5.856  52.184  1.00  0.00    -0.357 N 
HETATM   15  C15 UNL     1      23.563   4.947  53.242  1.00  0.00     0.125 C 
HETATM   16  C16 UNL     1      23.628   3.515  52.950  1.00  0.00     0.047 C 
HETATM   17  C17 UNL     1      23.107   2.760  51.840  1.00  0.00     0.043 C 
HETATM   18  C18 UNL     1      23.535   1.282  52.063  1.00  0.00     0.035 C 
HETATM   19  C19 UNL     1      23.388   3.148  50.425  1.00  0.00     0.085 C 
HETATM   20  H14 UNL     1      24.764   6.492  51.876  1.00  0.00     0.162 HD
ENDROOT
BRANCH   7  21
HETATM   21  O2  UNL     1      26.910   7.828  47.290  1.00  0.00    -0.353 OA
HETATM   22  C9  UNL     1      26.103   8.519  46.408  1.00  0.00     0.210 C 
ENDBRANCH   7  21
BRANCH   1  23
HETATM   23  N1  UNL     1      25.727   2.791  50.626  1.00  0.00    -0.369 N 
HETATM   24  H4  UNL     1      25.494   3.182  51.602  1.00  0.00     0.165 HD
BRANCH  23  25
HETATM   25  C2  UNL     1      26.693   1.988  51.157  1.00  0.00     0.078 C 
HETATM   26  C1  UNL     1      27.240   1.742  52.323  1.00  0.00     0.029 C 
ENDBRANCH  23  25
ENDBRANCH   1  23
BRANCH  17  27
HETATM   27  N3  UNL     1      21.625   2.628  52.045  1.00  0.00    -0.153 NA
HETATM   28  F1  UNL     1      21.369   1.550  52.843  1.00  0.00    -0.135 F 
HETATM   29  H22 UNL     1      21.275   3.424  52.643  1.00  0.00     0.160 HD
ENDBRANCH  17  27
TORSDOF 4
ENDMDL
MODEL 6
REMARK VINA RESULT:      -6.9      2.641      4.369
REMARK  4 active torsions:
REMARK  status: ('A' for Active; 'I' for Inactive)
REMARK    1  A    between atoms: C2_2  and  N1_3 
REMARK    2  A    between atoms: N1_3  and  C3_4 
REMARK    3  A    between atoms: C8_10  and  O2_11 
REMARK    4  A    between atoms: C17_22  and  N3_24 
ROOT
HETATM    1  C3  UNL     1      19.989   0.497  51.042  1.00  0.00     0.022 C 
HETATM    2  C4  UNL     1      21.244   0.607  51.476  1.00  0.00     0.000 A 
HETATM    3  C5  UNL     1      21.369  -0.065  52.664  1.00  0.00     0.054 A 
HETATM    4  C6  UNL     1      22.201  -0.467  53.692  1.00  0.00     0.102 A 
HETATM    5  O1  UNL     1      22.806  -0.901  54.682  1.00  0.00    -0.353 OA
HETATM    6  C7  UNL     1      23.426  -1.353  55.706  1.00  0.00     0.210 C 
HETATM    7  C8  UNL     1      23.459   0.121  53.215  1.00  0.00     0.102 A 
HETATM    8  C10 UNL     1      23.658   0.886  52.003  1.00  0.00     0.053 A 
HETATM    9  C11 UNL     1      22.482   1.050  51.245  1.00  0.00    -0.010 A 
HETATM   10  C12 UNL     1      22.531   1.838  50.152  1.00  0.00    -0.008 C 
HETATM   11  C13 UNL     1      22.653   3.079  50.701  1.00  0.00     0.087 C 
HETATM   12  C14 UNL     1      21.345   3.308  51.262  1.00  0.00     0.242 C 
HETATM   13  O3  UNL     1      20.639   3.669  50.289  1.00  0.00    -0.269 OA
HETATM   14  N2  UNL     1      20.128   3.494  51.924  1.00  0.00    -0.357 N 
HETATM   15  C15 UNL     1      18.773   3.827  51.522  1.00  0.00     0.125 C 
HETATM   16  C16 UNL     1      17.982   2.765  50.900  1.00  0.00     0.047 C 
HETATM   17  C17 UNL     1      18.294   1.883  49.804  1.00  0.00     0.043 C 
HETATM   18  C18 UNL     1      17.074   0.935  49.631  1.00  0.00     0.035 C 
HETATM   19  C19 UNL     1      19.553   1.080  49.777  1.00  0.00     0.085 C 
HETATM   20  H14 UNL     1      20.726   3.273  52.776  1.00  0.00     0.162 HD
ENDROOT
BRANCH   7  21
HETATM   21  O2  UNL     1      24.762   0.092  53.780  1.00  0.00    -0.353 OA
HETATM   22  C9  UNL     1      25.919  -0.263  53.115  1.00  0.00     0.210 C 
ENDBRANCH   7  21
BRANCH   1  23
HETATM   23  N1  UNL     1      18.974  -0.185  51.702  1.00  0.00    -0.369 N 
HETATM   24  H4  UNL     1      18.732  -0.634  50.752  1.00  0.00     0.165 HD
BRANCH  23  25
HETATM   25  C2  UNL     1      17.965  -0.876  52.307  1.00  0.00     0.078 C 
HETATM   26  C1  UNL     1      17.787  -1.649  53.351  1.00  0.00     0.029 C 
ENDBRANCH  23  25
ENDBRANCH   1  23
BRANCH  17  27
HETATM   27  N3  UNL     1      18.174   2.683  48.539  1.00  0.00    -0.153 NA
HETATM   28  F1  UNL     1      19.323   2.559  47.811  1.00  0.00    -0.135 F 
HETATM   29  H22 UNL     1      17.467   2.234  47.898  1.00  0.00     0.160 HD
ENDBRANCH  17  27
TORSDOF 4
ENDMDL
MODEL 7
REMARK VINA RESULT:      -6.9      6.897     10.027
REMARK  4 active torsions:
REMARK  status: ('A' for Active; 'I' for Inactive)
REMARK    1  A    between atoms: C2_2  and  N1_3 
REMARK    2  A    between atoms: N1_3  and  C3_4 
REMARK    3  A    between atoms: C8_10  and  O2_11 
REMARK    4  A    between atoms: C17_22  and  N3_24 
ROOT
HETATM    1  C3  UNL     1      27.591   6.569  48.004  1.00  0.00     0.022 C 
HETATM    2  C4  UNL     1      28.826   6.760  47.543  1.00  0.00     0.000 A 
HETATM    3  C5  UNL     1      29.626   5.727  47.958  1.00  0.00     0.054 A 
HETATM    4  C6  UNL     1      30.879   5.143  47.936  1.00  0.00     0.102 A 
HETATM    5  O1  UNL     1      31.934   4.499  48.019  1.00  0.00    -0.353 OA
HETATM    6  C7  UNL     1      33.020   3.829  48.108  1.00  0.00     0.210 C 
HETATM    7  C8  UNL     1      31.571   6.113  47.078  1.00  0.00     0.102 A 
HETATM    8  C10 UNL     1      31.009   7.306  46.483  1.00  0.00     0.053 A 
HETATM    9  C11 UNL     1      29.649   7.501  46.798  1.00  0.00    -0.010 A 
HETATM   10  C12 UNL     1      29.054   8.638  46.383  1.00  0.00    -0.008 C 
HETATM   11  C13 UNL     1      29.637   9.573  47.185  1.00  0.00     0.087 C 
HETATM   12  C14 UNL     1      29.049   9.296  48.473  1.00  0.00     0.242 C 
HETATM   13  O3  UNL     1      27.922   9.848  48.434  1.00  0.00    -0.269 OA
HETATM   14  N2  UNL     1      28.590   8.962  49.750  1.00  0.00    -0.357 N 
HETATM   15  C15 UNL     1      27.348   9.137  50.482  1.00  0.00     0.125 C 
HETATM   16  C16 UNL     1      26.237   8.255  50.128  1.00  0.00     0.047 C 
HETATM   17  C17 UNL     1      25.659   7.942  48.846  1.00  0.00     0.043 C 
HETATM   18  C18 UNL     1      24.532   6.903  49.104  1.00  0.00     0.035 C 
HETATM   19  C19 UNL     1      26.499   7.487  47.698  1.00  0.00     0.085 C 
HETATM   20  H14 UNL     1      29.572   8.561  49.838  1.00  0.00     0.162 HD
ENDROOT
BRANCH   7  21
HETATM   21  O2  UNL     1      32.913   6.140  46.614  1.00  0.00    -0.353 OA
HETATM   22  C9  UNL     1      33.677   7.275  46.427  1.00  0.00     0.210 C 
ENDBRANCH   7  21
BRANCH   1  23
HETATM   23  N1  UNL     1      27.190   5.494  48.788  1.00  0.00    -0.369 N 
HETATM   24  H4  UNL     1      27.696   4.858  48.080  1.00  0.00     0.165 HD
BRANCH  23  25
HETATM   25  C2  UNL     1      26.818   4.408  49.527  1.00  0.00     0.078 C 
HETATM   26  C1  UNL     1      25.857   3.517  49.555  1.00  0.00     0.029 C 
ENDBRANCH  23  25
ENDBRANCH   1  23
BRANCH  17  27
HETATM   27  N3  UNL     1      24.826   9.120  48.431  1.00  0.00    -0.153 NA
HETATM   28  F1  UNL     1      25.100   9.436  47.131  1.00  0.00    -0.135 F 
HETATM   29  H22 UNL     1      23.811   8.839  48.373  1.00  0.00     0.160 HD
ENDBRANCH  17  27
TORSDOF 4
ENDMDL
MODEL 8
REMARK VINA RESULT:      -6.7      1.831      2.731
REMARK  4 active torsions:
REMARK  status: ('A' for Active; 'I' for Inactive)
REMARK    1  A    between atoms: C2_2  and  N1_3 
REMARK    2  A    between atoms: N1_3  and  C3_4 
REMARK    3  A    between atoms: C8_10  and  O2_11 
REMARK    4  A    between atoms: C17_22  and  N3_24 
ROOT
HETATM    1  C3  UNL     1      21.700   1.964  50.444  1.00  0.00     0.022 C 
HETATM    2  C4  UNL     1      22.730   1.599  51.206  1.00  0.00     0.000 A 
HETATM    3  C5  UNL     1      22.275   0.804  52.226  1.00  0.00     0.054 A 
HETATM    4  C6  UNL     1      22.588   0.040  53.335  1.00  0.00     0.102 A 
HETATM    5  O1  UNL     1      22.699  -0.672  54.342  1.00  0.00    -0.353 OA
HETATM    6  C7  UNL     1      22.807  -1.410  55.381  1.00  0.00     0.210 C 
HETATM    7  C8  UNL     1      24.046   0.217  53.333  1.00  0.00     0.102 A 
HETATM    8  C10 UNL     1      24.828   0.992  52.395  1.00  0.00     0.053 A 
HETATM    9  C11 UNL     1      24.050   1.621  51.402  1.00  0.00    -0.010 A 
HETATM   10  C12 UNL     1      24.667   2.455  50.541  1.00  0.00    -0.008 C 
HETATM   11  C13 UNL     1      24.965   3.518  51.339  1.00  0.00     0.087 C 
HETATM   12  C14 UNL     1      23.672   4.114  51.570  1.00  0.00     0.242 C 
HETATM   13  O3  UNL     1      23.444   4.792  50.538  1.00  0.00    -0.269 OA
HETATM   14  N2  UNL     1      22.419   4.629  51.911  1.00  0.00    -0.357 N 
HETATM   15  C15 UNL     1      21.416   5.439  51.241  1.00  0.00     0.125 C 
HETATM   16  C16 UNL     1      20.589   4.776  50.234  1.00  0.00     0.047 C 
HETATM   17  C17 UNL     1      20.958   3.960  49.106  1.00  0.00     0.043 C 
HETATM   18  C18 UNL     1      19.635   3.501  48.432  1.00  0.00     0.035 C 
HETATM   19  C19 UNL     1      21.872   2.787  49.251  1.00  0.00     0.085 C 
HETATM   20  H14 UNL     1      22.627   4.133  52.829  1.00  0.00     0.162 HD
ENDROOT
BRANCH   7  21
HETATM   21  O2  UNL     1      25.038  -0.307  54.204  1.00  0.00    -0.353 OA
HETATM   22  C9  UNL     1      26.331   0.162  54.324  1.00  0.00     0.210 C 
ENDBRANCH   7  21
BRANCH   1  23
HETATM   23  N1  UNL     1      20.377   1.598  50.662  1.00  0.00    -0.369 N 
HETATM   24  H4  UNL     1      20.435   1.041  49.741  1.00  0.00     0.165 HD
BRANCH  23  25
HETATM   25  C2  UNL     1      19.080   1.214  50.836  1.00  0.00     0.078 C 
HETATM   26  C1  UNL     1      18.362   0.117  50.797  1.00  0.00     0.029 C 
ENDBRANCH  23  25
ENDBRANCH   1  23
BRANCH  17  27
HETATM   27  N3  UNL     1      21.479   4.881  48.040  1.00  0.00    -0.153 NA
HETATM   28  F1  UNL     1      22.645   4.380  47.536  1.00  0.00    -0.135 F 
HETATM   29  H22 UNL     1      20.849   4.842  47.195  1.00  0.00     0.160 HD
ENDBRANCH  17  27
TORSDOF 4
ENDMDL
MODEL 9
REMARK VINA RESULT:      -6.5      8.227     11.383
REMARK  4 active torsions:
REMARK  status: ('A' for Active; 'I' for Inactive)
REMARK    1  A    between atoms: C2_2  and  N1_3 
REMARK    2  A    between atoms: N1_3  and  C3_4 
REMARK    3  A    between atoms: C8_10  and  O2_11 
REMARK    4  A    between atoms: C17_22  and  N3_24 
ROOT
HETATM    1  C3  UNL     1      29.915   7.761  48.790  1.00  0.00     0.022 C 
HETATM    2  C4  UNL     1      29.309   8.947  48.754  1.00  0.00     0.000 A 
HETATM    3  C5  UNL     1      27.971   8.760  48.517  1.00  0.00     0.054 A 
HETATM    4  C6  UNL     1      26.724   9.337  48.368  1.00  0.00     0.102 A 
HETATM    5  O1  UNL     1      25.548   9.693  48.207  1.00  0.00    -0.353 OA
HETATM    6  C7  UNL     1      24.333  10.055  48.041  1.00  0.00     0.210 C 
HETATM    7  C8  UNL     1      27.094  10.743  48.565  1.00  0.00     0.102 A 
HETATM    8  C10 UNL     1      28.417  11.267  48.831  1.00  0.00     0.053 A 
HETATM    9  C11 UNL     1      29.411  10.270  48.895  1.00  0.00    -0.010 A 
HETATM   10  C12 UNL     1      30.695  10.657  49.031  1.00  0.00    -0.008 C 
HETATM   11  C13 UNL     1      30.960  11.200  47.809  1.00  0.00     0.087 C 
HETATM   12  C14 UNL     1      31.011  10.042  46.951  1.00  0.00     0.242 C 
HETATM   13  O3  UNL     1      32.159   9.565  47.128  1.00  0.00    -0.269 OA
HETATM   14  N2  UNL     1      30.937   8.949  46.084  1.00  0.00    -0.357 N 
HETATM   15  C15 UNL     1      31.803   7.831  45.752  1.00  0.00     0.125 C 
HETATM   16  C16 UNL     1      31.878   6.736  46.719  1.00  0.00     0.047 C 
HETATM   17  C17 UNL     1      32.126   6.754  48.138  1.00  0.00     0.043 C 
HETATM   18  C18 UNL     1      32.037   5.281  48.627  1.00  0.00     0.035 C 
HETATM   19  C19 UNL     1      31.343   7.630  49.061  1.00  0.00     0.085 C 
HETATM   20  H14 UNL     1      29.993   9.383  45.854  1.00  0.00     0.162 HD
ENDROOT
BRANCH   7  21
HETATM   21  O2  UNL     1      26.294  11.917  48.558  1.00  0.00    -0.353 OA
HETATM   22  C9  UNL     1      26.700  13.165  48.130  1.00  0.00     0.210 C 
ENDBRANCH   7  21
BRANCH   1  23
HETATM   23  N1  UNL     1      29.285   6.537  48.608  1.00  0.00    -0.369 N 
HETATM   24  H4  UNL     1      28.405   7.092  48.327  1.00  0.00     0.165 HD
BRANCH  23  25
HETATM   25  C2  UNL     1      28.625   5.358  48.416  1.00  0.00     0.078 C 
HETATM   26  C1  UNL     1      27.469   4.815  48.713  1.00  0.00     0.029 C 
ENDBRANCH  23  25
ENDBRANCH   1  23
BRANCH  17  27
HETATM   27  N3  UNL     1      33.595   6.996  48.332  1.00  0.00    -0.153 NA
HETATM   28  F1  UNL     1      33.775   8.070  49.155  1.00  0.00    -0.135 F 
HETATM   29  H22 UNL     1      34.014   6.216  48.905  1.00  0.00     0.160 HD
ENDBRANCH  17  27
TORSDOF 4
ENDMDL
