MODEL 1
REMARK VINA RESULT:      -9.4      0.000      0.000
REMARK  5 active torsions:
REMARK  status: ('A' for Active; 'I' for Inactive)
REMARK    1  A    between atoms: O1_2  and  C2_3 
REMARK    2  A    between atoms: C5_6  and  N1_7 
REMARK    3  A    between atoms: C9_12  and  N3_13 
REMARK    4  A    between atoms: N5_20  and  C15_21 
REMARK    5  A    between atoms: C18_24  and  O2_25 
ROOT
HETATM    1  N1  UNL     1      25.318   3.739  50.310  1.00  0.00    -0.295 N 
HETATM    2  C6  UNL     1      23.946   3.985  49.992  1.00  0.00     0.178 A 
HETATM    3  C7  UNL     1      23.058   2.980  50.634  1.00  0.00     0.025 A 
HETATM    4  C8  UNL     1      21.703   3.179  50.350  1.00  0.00     0.149 A 
HETATM    5  N2  UNL     1      20.809   2.305  50.897  1.00  0.00    -0.074 NA
HETATM    6  C9  UNL     1      21.230   1.283  51.684  1.00  0.00     0.734 A 
HETATM    7  N4  UNL     1      22.539   1.105  51.946  1.00  0.00    -0.043 NA
HETATM    8  C14 UNL     1      23.483   1.939  51.435  1.00  0.00     0.162 A 
HETATM    9  N5  UNL     1      24.883   1.797  51.681  1.00  0.00    -0.278 N 
HETATM   10  C20 UNL     1      25.818   2.705  51.114  1.00  0.00     0.331 A 
HETATM   11  O3  UNL     1      27.040   2.630  51.292  1.00  0.00    -0.246 OA
ENDROOT
BRANCH   1  12
HETATM   12  C5  UNL     1      26.136   4.716  49.681  1.00  0.00     0.039 A 
HETATM   13  C4  UNL     1      27.275   4.408  48.940  1.00  0.00     0.032 A 
HETATM   14  C3  UNL     1      28.026   5.404  48.355  1.00  0.00     0.039 A 
HETATM   15  C2  UNL     1      27.654   6.729  48.499  1.00  0.00     0.068 A 
HETATM   16  C22 UNL     1      26.519   7.021  49.238  1.00  0.00     0.039 A 
HETATM   17  C21 UNL     1      25.765   6.042  49.825  1.00  0.00     0.032 A 
BRANCH  15  18
HETATM   18  O1  UNL     1      28.341   7.800  47.951  1.00  0.00    -0.356 OA
HETATM   19  C1  UNL     1      29.281   8.556  48.694  1.00  0.00     0.210 C 
ENDBRANCH  15  18
ENDBRANCH   1  12
BRANCH   9  20
HETATM   20  C15 UNL     1      25.323   0.723  52.508  1.00  0.00     0.099 C 
HETATM   21  C16 UNL     1      26.408  -0.137  51.956  1.00  0.00     0.028 C 
HETATM   22  C17 UNL     1      26.731  -1.022  53.145  1.00  0.00     0.034 C 
HETATM   23  C18 UNL     1      26.458  -0.182  54.355  1.00  0.00     0.120 C 
HETATM   24  C19 UNL     1      25.920   1.156  53.830  1.00  0.00     0.057 C 
BRANCH  23  25
HETATM   25  O2  UNL     1      27.597  -0.018  55.125  1.00  0.00    -0.396 OA
HETATM   26  H19 UNL     1      28.295   0.542  54.681  1.00  0.00     0.210 HD
ENDBRANCH  23  25
ENDBRANCH   9  20
BRANCH   6  27
HETATM   27  N3  UNL     1      20.261   0.387  52.238  1.00  0.00    -0.165 N 
HETATM   28  C10 UNL     1      19.124   0.326  51.521  1.00  0.00     0.114 A 
HETATM   29  C11 UNL     1      18.268  -0.570  52.158  1.00  0.00     0.020 A 
HETATM   30  C12 UNL     1      18.923  -1.047  53.276  1.00  0.00     0.020 A 
HETATM   31  C13 UNL     1      20.173  -0.426  53.299  1.00  0.00     0.114 A 
ENDBRANCH   6  27
TORSDOF 5
ENDMDL
MODEL 2
REMARK VINA RESULT:      -9.2      2.406      7.870
REMARK  5 active torsions:
REMARK  status: ('A' for Active; 'I' for Inactive)
REMARK    1  A    between atoms: O1_2  and  C2_3 
REMARK    2  A    between atoms: C5_6  and  N1_7 
REMARK    3  A    between atoms: C9_12  and  N3_13 
REMARK    4  A    between atoms: N5_20  and  C15_21 
REMARK    5  A    between atoms: C18_24  and  O2_25 
ROOT
HETATM    1  N1  UNL     1      22.605   1.093  52.016  1.00  0.00    -0.295 N 
HETATM    2  C6  UNL     1      22.276   2.091  51.047  1.00  0.00     0.178 A 
HETATM    3  C7  UNL     1      23.493   2.806  50.579  1.00  0.00     0.025 A 
HETATM    4  C8  UNL     1      23.220   3.795  49.628  1.00  0.00     0.149 A 
HETATM    5  N2  UNL     1      24.277   4.506  49.138  1.00  0.00    -0.074 NA
HETATM    6  C9  UNL     1      25.540   4.257  49.565  1.00  0.00     0.734 A 
HETATM    7  N4  UNL     1      25.784   3.301  50.482  1.00  0.00    -0.043 NA
HETATM    8  C14 UNL     1      24.779   2.554  51.012  1.00  0.00     0.162 A 
HETATM    9  N5  UNL     1      24.982   1.529  51.985  1.00  0.00    -0.278 N 
HETATM   10  C20 UNL     1      23.885   0.785  52.499  1.00  0.00     0.331 A 
HETATM   11  O3  UNL     1      24.002  -0.113  53.342  1.00  0.00    -0.246 OA
ENDROOT
BRANCH   1  12
HETATM   12  C5  UNL     1      21.422   0.431  52.441  1.00  0.00     0.039 A 
HETATM   13  C4  UNL     1      21.339  -0.334  53.603  1.00  0.00     0.032 A 
HETATM   14  C3  UNL     1      20.160  -0.951  53.958  1.00  0.00     0.039 A 
HETATM   15  C2  UNL     1      19.038  -0.816  53.159  1.00  0.00     0.068 A 
HETATM   16  C22 UNL     1      19.133  -0.053  52.006  1.00  0.00     0.039 A 
HETATM   17  C21 UNL     1      20.299   0.564  51.641  1.00  0.00     0.032 A 
BRANCH  15  18
HETATM   18  O1  UNL     1      17.809  -1.396  53.429  1.00  0.00    -0.356 OA
HETATM   19  C1  UNL     1      17.656  -2.792  53.616  1.00  0.00     0.210 C 
ENDBRANCH  15  18
ENDBRANCH   1  12
BRANCH   9  20
HETATM   20  C15 UNL     1      26.310   1.267  52.433  1.00  0.00     0.099 C 
HETATM   21  C16 UNL     1      26.610   1.605  53.853  1.00  0.00     0.028 C 
HETATM   22  C17 UNL     1      28.007   1.038  54.013  1.00  0.00     0.034 C 
HETATM   23  C18 UNL     1      28.069  -0.143  53.094  1.00  0.00     0.120 C 
HETATM   24  C19 UNL     1      26.714  -0.190  52.373  1.00  0.00     0.057 C 
BRANCH  23  25
HETATM   25  O2  UNL     1      28.329  -1.312  53.787  1.00  0.00    -0.396 OA
HETATM   26  H19 UNL     1      29.211  -1.721  53.554  1.00  0.00     0.210 HD
ENDBRANCH  23  25
ENDBRANCH   9  20
BRANCH   6  27
HETATM   27  N3  UNL     1      26.622   5.025  49.028  1.00  0.00    -0.165 N 
HETATM   28  C10 UNL     1      26.334   6.335  48.912  1.00  0.00     0.114 A 
HETATM   29  C11 UNL     1      27.455   6.970  48.381  1.00  0.00     0.020 A 
HETATM   30  C12 UNL     1      28.423   6.006  48.182  1.00  0.00     0.020 A 
HETATM   31  C13 UNL     1      27.868   4.794  48.597  1.00  0.00     0.114 A 
ENDBRANCH   6  27
TORSDOF 5
ENDMDL
MODEL 3
REMARK VINA RESULT:      -8.9      3.406      8.750
REMARK  5 active torsions:
REMARK  status: ('A' for Active; 'I' for Inactive)
REMARK    1  A    between atoms: O1_2  and  C2_3 
REMARK    2  A    between atoms: C5_6  and  N1_7 
REMARK    3  A    between atoms: C9_12  and  N3_13 
REMARK    4  A    between atoms: N5_20  and  C15_21 
REMARK    5  A    between atoms: C18_24  and  O2_25 
ROOT
HETATM    1  N1  UNL     1      20.950   0.507  52.466  1.00  0.00    -0.295 N 
HETATM    2  C6  UNL     1      21.749  -0.454  53.161  1.00  0.00     0.178 A 
HETATM    3  C7  UNL     1      23.147   0.025  53.320  1.00  0.00     0.025 A 
HETATM    4  C8  UNL     1      23.969  -0.884  53.994  1.00  0.00     0.149 A 
HETATM    5  N2  UNL     1      25.273  -0.531  54.188  1.00  0.00    -0.074 NA
HETATM    6  C9  UNL     1      25.745   0.658  53.738  1.00  0.00     0.734 A 
HETATM    7  N4  UNL     1      24.940   1.522  53.089  1.00  0.00    -0.043 NA
HETATM    8  C14 UNL     1      23.631   1.235  52.862  1.00  0.00     0.162 A 
HETATM    9  N5  UNL     1      22.733   2.113  52.181  1.00  0.00    -0.278 N 
HETATM   10  C20 UNL     1      21.374   1.751  51.977  1.00  0.00     0.331 A 
HETATM   11  O3  UNL     1      20.554   2.471  51.394  1.00  0.00    -0.246 OA
ENDROOT
BRANCH   1  12
HETATM   12  C5  UNL     1      19.623   0.018  52.333  1.00  0.00     0.039 A 
HETATM   13  C4  UNL     1      18.811   0.279  51.231  1.00  0.00     0.032 A 
HETATM   14  C3  UNL     1      17.531  -0.226  51.164  1.00  0.00     0.039 A 
HETATM   15  C2  UNL     1      17.036  -1.003  52.196  1.00  0.00     0.068 A 
HETATM   16  C22 UNL     1      17.854  -1.255  53.286  1.00  0.00     0.039 A 
HETATM   17  C21 UNL     1      19.126  -0.759  53.367  1.00  0.00     0.032 A 
BRANCH  15  18
HETATM   18  O1  UNL     1      15.765  -1.555  52.222  1.00  0.00    -0.356 OA
HETATM   19  C1  UNL     1      14.896  -1.504  51.106  1.00  0.00     0.210 C 
ENDBRANCH  15  18
ENDBRANCH   1  12
BRANCH   9  20
HETATM   20  C15 UNL     1      23.231   3.363  51.709  1.00  0.00     0.099 C 
HETATM   21  C16 UNL     1      22.982   3.676  50.274  1.00  0.00     0.028 C 
HETATM   22  C17 UNL     1      23.470   5.109  50.185  1.00  0.00     0.034 C 
HETATM   23  C18 UNL     1      23.210   5.705  51.535  1.00  0.00     0.120 C 
HETATM   24  C19 UNL     1      22.632   4.573  52.394  1.00  0.00     0.057 C 
BRANCH  23  25
HETATM   25  O2  UNL     1      22.350   6.787  51.454  1.00  0.00    -0.396 OA
HETATM   26  H19 UNL     1      22.403   7.392  52.248  1.00  0.00     0.210 HD
ENDBRANCH  23  25
ENDBRANCH   9  20
BRANCH   6  27
HETATM   27  N3  UNL     1      27.119   0.992  53.961  1.00  0.00    -0.165 N 
HETATM   28  C10 UNL     1      27.471   2.175  53.423  1.00  0.00     0.114 A 
HETATM   29  C11 UNL     1      28.819   2.384  53.704  1.00  0.00     0.020 A 
HETATM   30  C12 UNL     1      29.268   1.296  54.424  1.00  0.00     0.020 A 
HETATM   31  C13 UNL     1      28.176   0.438  54.569  1.00  0.00     0.114 A 
ENDBRANCH   6  27
TORSDOF 5
ENDMDL
MODEL 4
REMARK VINA RESULT:      -8.7      3.651      5.940
REMARK  5 active torsions:
REMARK  status: ('A' for Active; 'I' for Inactive)
REMARK    1  A    between atoms: O1_2  and  C2_3 
REMARK    2  A    between atoms: C5_6  and  N1_7 
REMARK    3  A    between atoms: C9_12  and  N3_13 
REMARK    4  A    between atoms: N5_20  and  C15_21 
REMARK    5  A    between atoms: C18_24  and  O2_25 
ROOT
HETATM    1  N1  UNL     1      24.039   0.640  52.548  1.00  0.00    -0.295 N 
HETATM    2  C6  UNL     1      23.317  -0.223  53.430  1.00  0.00     0.178 A 
HETATM    3  C7  UNL     1      21.870  -0.250  53.090  1.00  0.00     0.025 A 
HETATM    4  C8  UNL     1      21.121  -1.082  53.929  1.00  0.00     0.149 A 
HETATM    5  N2  UNL     1      19.780  -1.171  53.693  1.00  0.00    -0.074 NA
HETATM    6  C9  UNL     1      19.205  -0.474  52.682  1.00  0.00     0.734 A 
HETATM    7  N4  UNL     1      19.940   0.324  51.885  1.00  0.00    -0.043 NA
HETATM    8  C14 UNL     1      21.282   0.459  52.062  1.00  0.00     0.162 A 
HETATM    9  N5  UNL     1      22.109   1.290  51.246  1.00  0.00    -0.278 N 
HETATM   10  C20 UNL     1      23.507   1.386  51.487  1.00  0.00     0.331 A 
HETATM   11  O3  UNL     1      24.270   2.089  50.814  1.00  0.00    -0.246 OA
ENDROOT
BRANCH   1  12
HETATM   12  C5  UNL     1      25.415   0.640  52.900  1.00  0.00     0.039 A 
HETATM   13  C4  UNL     1      26.036   1.683  53.587  1.00  0.00     0.032 A 
HETATM   14  C3  UNL     1      27.376   1.621  53.898  1.00  0.00     0.039 A 
HETATM   15  C2  UNL     1      28.124   0.517  53.532  1.00  0.00     0.068 A 
HETATM   16  C22 UNL     1      27.495  -0.513  52.851  1.00  0.00     0.039 A 
HETATM   17  C21 UNL     1      26.165  -0.465  52.534  1.00  0.00     0.032 A 
BRANCH  15  18
HETATM   18  O1  UNL     1      29.475   0.361  53.799  1.00  0.00    -0.356 OA
HETATM   19  C1  UNL     1      30.129  -0.891  53.686  1.00  0.00     0.210 C 
ENDBRANCH  15  18
ENDBRANCH   1  12
BRANCH   9  20
HETATM   20  C15 UNL     1      21.503   2.022  50.184  1.00  0.00     0.099 C 
HETATM   21  C16 UNL     1      21.793   3.482  50.135  1.00  0.00     0.028 C 
HETATM   22  C17 UNL     1      21.155   3.877  48.817  1.00  0.00     0.034 C 
HETATM   23  C18 UNL     1      21.273   2.670  47.938  1.00  0.00     0.120 C 
HETATM   24  C19 UNL     1      21.925   1.580  48.799  1.00  0.00     0.057 C 
BRANCH  23  25
HETATM   25  O2  UNL     1      22.011   2.943  46.799  1.00  0.00    -0.396 OA
HETATM   26  H19 UNL     1      22.060   2.170  46.167  1.00  0.00     0.210 HD
ENDBRANCH  23  25
ENDBRANCH   9  20
BRANCH   6  27
HETATM   27  N3  UNL     1      17.794  -0.594  52.468  1.00  0.00    -0.165 N 
HETATM   28  C10 UNL     1      17.286   0.401  51.716  1.00  0.00     0.114 A 
HETATM   29  C11 UNL     1      15.918   0.174  51.581  1.00  0.00     0.020 A 
HETATM   30  C12 UNL     1      15.618  -0.982  52.272  1.00  0.00     0.020 A 
HETATM   31  C13 UNL     1      16.818  -1.441  52.819  1.00  0.00     0.114 A 
ENDBRANCH   6  27
TORSDOF 5
ENDMDL
MODEL 5
REMARK VINA RESULT:      -8.2      2.491      4.564
REMARK  5 active torsions:
REMARK  status: ('A' for Active; 'I' for Inactive)
REMARK    1  A    between atoms: O1_2  and  C2_3 
REMARK    2  A    between atoms: C5_6  and  N1_7 
REMARK    3  A    between atoms: C9_12  and  N3_13 
REMARK    4  A    between atoms: N5_20  and  C15_21 
REMARK    5  A    between atoms: C18_24  and  O2_25 
ROOT
HETATM    1  N1  UNL     1      25.429   4.344  49.801  1.00  0.00    -0.295 N 
HETATM    2  C6  UNL     1      26.021   3.600  50.869  1.00  0.00     0.178 A 
HETATM    3  C7  UNL     1      25.042   2.659  51.474  1.00  0.00     0.025 A 
HETATM    4  C8  UNL     1      25.576   1.908  52.527  1.00  0.00     0.149 A 
HETATM    5  N2  UNL     1      24.750   1.014  53.146  1.00  0.00    -0.074 NA
HETATM    6  C9  UNL     1      23.462   0.869  52.748  1.00  0.00     0.734 A 
HETATM    7  N4  UNL     1      22.963   1.601  51.734  1.00  0.00    -0.043 NA
HETATM    8  C14 UNL     1      23.730   2.508  51.072  1.00  0.00     0.162 A 
HETATM    9  N5  UNL     1      23.253   3.310  49.990  1.00  0.00    -0.278 N 
HETATM   10  C20 UNL     1      24.108   4.242  49.342  1.00  0.00     0.331 A 
HETATM   11  O3  UNL     1      23.749   4.960  48.402  1.00  0.00    -0.246 OA
ENDROOT
BRANCH   1  12
HETATM   12  C5  UNL     1      26.391   5.231  49.247  1.00  0.00     0.039 A 
HETATM   13  C4  UNL     1      26.219   6.612  49.181  1.00  0.00     0.032 A 
HETATM   14  C3  UNL     1      27.191   7.417  48.630  1.00  0.00     0.039 A 
HETATM   15  C2  UNL     1      28.356   6.859  48.135  1.00  0.00     0.068 A 
HETATM   16  C22 UNL     1      28.515   5.484  48.208  1.00  0.00     0.039 A 
HETATM   17  C21 UNL     1      27.557   4.673  48.751  1.00  0.00     0.032 A 
BRANCH  15  18
HETATM   18  O1  UNL     1      29.391   7.582  47.563  1.00  0.00    -0.356 OA
HETATM   19  C1  UNL     1      30.327   8.307  48.342  1.00  0.00     0.210 C 
ENDBRANCH  15  18
ENDBRANCH   1  12
BRANCH   9  20
HETATM   20  C15 UNL     1      21.898   3.155  49.574  1.00  0.00     0.099 C 
HETATM   21  C16 UNL     1      21.046   4.377  49.622  1.00  0.00     0.028 C 
HETATM   22  C17 UNL     1      19.775   3.889  48.956  1.00  0.00     0.034 C 
HETATM   23  C18 UNL     1      20.212   2.853  47.966  1.00  0.00     0.120 C 
HETATM   24  C19 UNL     1      21.733   2.724  48.132  1.00  0.00     0.057 C 
BRANCH  23  25
HETATM   25  O2  UNL     1      19.859   3.206  46.675  1.00  0.00    -0.396 OA
HETATM   26  H19 UNL     1      19.871   2.434  46.039  1.00  0.00     0.210 HD
ENDBRANCH  23  25
ENDBRANCH   9  20
BRANCH   6  27
HETATM   27  N3  UNL     1      22.628  -0.079  53.424  1.00  0.00    -0.165 N 
HETATM   28  C10 UNL     1      21.330   0.017  53.078  1.00  0.00     0.114 A 
HETATM   29  C11 UNL     1      20.627  -0.948  53.796  1.00  0.00     0.020 A 
HETATM   30  C12 UNL     1      21.537  -1.625  54.582  1.00  0.00     0.020 A 
HETATM   31  C13 UNL     1      22.785  -1.055  54.326  1.00  0.00     0.114 A 
ENDBRANCH   6  27
TORSDOF 5
ENDMDL
MODEL 6
REMARK VINA RESULT:      -8.2      3.218      6.775
REMARK  5 active torsions:
REMARK  status: ('A' for Active; 'I' for Inactive)
REMARK    1  A    between atoms: O1_2  and  C2_3 
REMARK    2  A    between atoms: C5_6  and  N1_7 
REMARK    3  A    between atoms: C9_12  and  N3_13 
REMARK    4  A    between atoms: N5_20  and  C15_21 
REMARK    5  A    between atoms: C18_24  and  O2_25 
ROOT
HETATM    1  N1  UNL     1      24.289   1.911  52.335  1.00  0.00    -0.295 N 
HETATM    2  C6  UNL     1      24.743   3.236  52.049  1.00  0.00     0.178 A 
HETATM    3  C7  UNL     1      23.640   4.077  51.512  1.00  0.00     0.025 A 
HETATM    4  C8  UNL     1      24.037   5.385  51.215  1.00  0.00     0.149 A 
HETATM    5  N2  UNL     1      23.090   6.232  50.717  1.00  0.00    -0.074 NA
HETATM    6  C9  UNL     1      21.816   5.811  50.518  1.00  0.00     0.734 A 
HETATM    7  N4  UNL     1      21.451   4.548  50.809  1.00  0.00    -0.043 NA
HETATM    8  C14 UNL     1      22.342   3.651  51.309  1.00  0.00     0.162 A 
HETATM    9  N5  UNL     1      22.010   2.301  51.635  1.00  0.00    -0.278 N 
HETATM   10  C20 UNL     1      22.991   1.414  52.155  1.00  0.00     0.331 A 
HETATM   11  O3  UNL     1      22.759   0.236  52.453  1.00  0.00    -0.246 OA
ENDROOT
BRANCH   1  12
HETATM   12  C5  UNL     1      25.366   1.138  52.846  1.00  0.00     0.039 A 
HETATM   13  C4  UNL     1      25.689   1.063  54.200  1.00  0.00     0.032 A 
HETATM   14  C3  UNL     1      26.748   0.294  54.629  1.00  0.00     0.039 A 
HETATM   15  C2  UNL     1      27.506  -0.418  53.716  1.00  0.00     0.068 A 
HETATM   16  C22 UNL     1      27.173  -0.336  52.373  1.00  0.00     0.039 A 
HETATM   17  C21 UNL     1      26.125   0.425  51.932  1.00  0.00     0.032 A 
BRANCH  15  18
HETATM   18  O1  UNL     1      28.587  -1.218  54.048  1.00  0.00    -0.356 OA
HETATM   19  C1  UNL     1      29.912  -0.896  53.665  1.00  0.00     0.210 C 
ENDBRANCH  15  18
ENDBRANCH   1  12
BRANCH   9  20
HETATM   20  C15 UNL     1      20.670   1.860  51.426  1.00  0.00     0.099 C 
HETATM   21  C16 UNL     1      20.450   0.919  50.292  1.00  0.00     0.028 C 
HETATM   22  C17 UNL     1      18.996   0.539  50.488  1.00  0.00     0.034 C 
HETATM   23  C18 UNL     1      18.760   0.604  51.965  1.00  0.00     0.120 C 
HETATM   24  C19 UNL     1      20.079   1.085  52.585  1.00  0.00     0.057 C 
BRANCH  23  25
HETATM   25  O2  UNL     1      18.367  -0.624  52.471  1.00  0.00    -0.396 OA
HETATM   26  H19 UNL     1      17.374  -0.728  52.524  1.00  0.00     0.210 HD
ENDBRANCH  23  25
ENDBRANCH   9  20
BRANCH   6  27
HETATM   27  N3  UNL     1      20.853   6.731  49.993  1.00  0.00    -0.165 N 
HETATM   28  C10 UNL     1      21.173   8.019  50.217  1.00  0.00     0.114 A 
HETATM   29  C11 UNL     1      20.167   8.808  49.664  1.00  0.00     0.020 A 
HETATM   30  C12 UNL     1      19.235   7.960  49.102  1.00  0.00     0.020 A 
HETATM   31  C13 UNL     1      19.694   6.661  49.326  1.00  0.00     0.114 A 
ENDBRANCH   6  27
TORSDOF 5
ENDMDL
MODEL 7
REMARK VINA RESULT:      -8.1      2.743      6.067
REMARK  5 active torsions:
REMARK  status: ('A' for Active; 'I' for Inactive)
REMARK    1  A    between atoms: O1_2  and  C2_3 
REMARK    2  A    between atoms: C5_6  and  N1_7 
REMARK    3  A    between atoms: C9_12  and  N3_13 
REMARK    4  A    between atoms: N5_20  and  C15_21 
REMARK    5  A    between atoms: C18_24  and  O2_25 
ROOT
HETATM    1  N1  UNL     1      24.111   1.135  52.775  1.00  0.00    -0.295 N 
HETATM    2  C6  UNL     1      23.051   0.225  53.079  1.00  0.00     0.178 A 
HETATM    3  C7  UNL     1      21.737   0.766  52.641  1.00  0.00     0.025 A 
HETATM    4  C8  UNL     1      20.667  -0.091  52.918  1.00  0.00     0.149 A 
HETATM    5  N2  UNL     1      19.418   0.321  52.552  1.00  0.00    -0.074 NA
HETATM    6  C9  UNL     1      19.233   1.519  51.944  1.00  0.00     0.734 A 
HETATM    7  N4  UNL     1      20.275   2.333  51.685  1.00  0.00    -0.043 NA
HETATM    8  C14 UNL     1      21.545   1.985  52.022  1.00  0.00     0.162 A 
HETATM    9  N5  UNL     1      22.685   2.808  51.771  1.00  0.00    -0.278 N 
HETATM   10  C20 UNL     1      23.988   2.384  52.150  1.00  0.00     0.331 A 
HETATM   11  O3  UNL     1      25.009   3.055  51.958  1.00  0.00    -0.246 OA
ENDROOT
BRANCH   1  12
HETATM   12  C5  UNL     1      25.349   0.587  53.206  1.00  0.00     0.039 A 
HETATM   13  C4  UNL     1      25.933   0.874  54.438  1.00  0.00     0.032 A 
HETATM   14  C3  UNL     1      27.137   0.309  54.795  1.00  0.00     0.039 A 
HETATM   15  C2  UNL     1      27.782  -0.557  53.929  1.00  0.00     0.068 A 
HETATM   16  C22 UNL     1      27.190  -0.835  52.708  1.00  0.00     0.039 A 
HETATM   17  C21 UNL     1      25.995  -0.279  52.339  1.00  0.00     0.032 A 
BRANCH  15  18
HETATM   18  O1  UNL     1      28.993  -1.175  54.196  1.00  0.00    -0.356 OA
HETATM   19  C1  UNL     1      30.168  -0.888  53.458  1.00  0.00     0.210 C 
ENDBRANCH  15  18
ENDBRANCH   1  12
BRANCH   9  20
HETATM   20  C15 UNL     1      22.489   4.067  51.131  1.00  0.00     0.099 C 
HETATM   21  C16 UNL     1      23.056   5.258  51.823  1.00  0.00     0.028 C 
HETATM   22  C17 UNL     1      22.823   6.348  50.795  1.00  0.00     0.034 C 
HETATM   23  C18 UNL     1      22.906   5.668  49.463  1.00  0.00     0.120 C 
HETATM   24  C19 UNL     1      23.123   4.178  49.761  1.00  0.00     0.057 C 
BRANCH  23  25
HETATM   25  O2  UNL     1      23.922   6.196  48.686  1.00  0.00    -0.396 OA
HETATM   26  H19 UNL     1      23.693   7.083  48.287  1.00  0.00     0.210 HD
ENDBRANCH  23  25
ENDBRANCH   9  20
BRANCH   6  27
HETATM   27  N3  UNL     1      17.908   1.916  51.575  1.00  0.00    -0.165 N 
HETATM   28  C10 UNL     1      17.733   3.251  51.583  1.00  0.00     0.114 A 
HETATM   29  C11 UNL     1      16.415   3.508  51.212  1.00  0.00     0.020 A 
HETATM   30  C12 UNL     1      15.803   2.292  50.981  1.00  0.00     0.020 A 
HETATM   31  C13 UNL     1      16.767   1.311  51.219  1.00  0.00     0.114 A 
ENDBRANCH   6  27
TORSDOF 5
ENDMDL
MODEL 8
REMARK VINA RESULT:      -7.9      3.058      7.959
REMARK  5 active torsions:
REMARK  status: ('A' for Active; 'I' for Inactive)
REMARK    1  A    between atoms: O1_2  and  C2_3 
REMARK    2  A    between atoms: C5_6  and  N1_7 
REMARK    3  A    between atoms: C9_12  and  N3_13 
REMARK    4  A    between atoms: N5_20  and  C15_21 
REMARK    5  A    between atoms: C18_24  and  O2_25 
ROOT
HETATM    1  N1  UNL     1      21.068   1.908  51.233  1.00  0.00    -0.295 N 
HETATM    2  C6  UNL     1      21.497   0.967  52.220  1.00  0.00     0.178 A 
HETATM    3  C7  UNL     1      22.965   1.052  52.441  1.00  0.00     0.025 A 
HETATM    4  C8  UNL     1      23.433   0.147  53.400  1.00  0.00     0.149 A 
HETATM    5  N2  UNL     1      24.771   0.152  53.670  1.00  0.00    -0.074 NA
HETATM    6  C9  UNL     1      25.606   1.004  53.027  1.00  0.00     0.734 A 
HETATM    7  N4  UNL     1      25.139   1.869  52.106  1.00  0.00    -0.043 NA
HETATM    8  C14 UNL     1      23.818   1.919  51.787  1.00  0.00     0.162 A 
HETATM    9  N5  UNL     1      23.269   2.815  50.820  1.00  0.00    -0.278 N 
HETATM   10  C20 UNL     1      21.877   2.815  50.534  1.00  0.00     0.331 A 
HETATM   11  O3  UNL     1      21.349   3.567  49.707  1.00  0.00    -0.246 OA
ENDROOT
BRANCH   1  12
HETATM   12  C5  UNL     1      19.663   1.800  51.049  1.00  0.00     0.039 A 
HETATM   13  C4  UNL     1      18.740   2.669  51.627  1.00  0.00     0.032 A 
HETATM   14  C3  UNL     1      17.389   2.508  51.408  1.00  0.00     0.039 A 
HETATM   15  C2  UNL     1      16.933   1.477  50.607  1.00  0.00     0.068 A 
HETATM   16  C22 UNL     1      17.862   0.621  50.037  1.00  0.00     0.039 A 
HETATM   17  C21 UNL     1      19.206   0.768  50.247  1.00  0.00     0.032 A 
BRANCH  15  18
HETATM   18  O1  UNL     1      15.599   1.233  50.326  1.00  0.00    -0.356 OA
HETATM   19  C1  UNL     1      14.562   1.574  51.229  1.00  0.00     0.210 C 
ENDBRANCH  15  18
ENDBRANCH   1  12
BRANCH   9  20
HETATM   20  C15 UNL     1      24.150   3.711  50.145  1.00  0.00     0.099 C 
HETATM   21  C16 UNL     1      24.485   4.975  50.859  1.00  0.00     0.028 C 
HETATM   22  C17 UNL     1      25.549   5.564  49.954  1.00  0.00     0.034 C 
HETATM   23  C18 UNL     1      26.250   4.391  49.342  1.00  0.00     0.120 C 
HETATM   24  C19 UNL     1      25.526   3.144  49.867  1.00  0.00     0.057 C 
BRANCH  23  25
HETATM   25  O2  UNL     1      27.597   4.382  49.662  1.00  0.00    -0.396 OA
HETATM   26  H19 UNL     1      28.178   4.740  48.932  1.00  0.00     0.210 HD
ENDBRANCH  23  25
ENDBRANCH   9  20
BRANCH   6  27
HETATM   27  N3  UNL     1      27.003   0.978  53.339  1.00  0.00    -0.165 N 
HETATM   28  C10 UNL     1      27.557   2.204  53.395  1.00  0.00     0.114 A 
HETATM   29  C11 UNL     1      28.907   2.046  53.702  1.00  0.00     0.020 A 
HETATM   30  C12 UNL     1      29.149   0.693  53.829  1.00  0.00     0.020 A 
HETATM   31  C13 UNL     1      27.933   0.048  53.594  1.00  0.00     0.114 A 
ENDBRANCH   6  27
TORSDOF 5
ENDMDL
MODEL 9
REMARK VINA RESULT:      -7.9      2.910      7.319
REMARK  5 active torsions:
REMARK  status: ('A' for Active; 'I' for Inactive)
REMARK    1  A    between atoms: O1_2  and  C2_3 
REMARK    2  A    between atoms: C5_6  and  N1_7 
REMARK    3  A    between atoms: C9_12  and  N3_13 
REMARK    4  A    between atoms: N5_20  and  C15_21 
REMARK    5  A    between atoms: C18_24  and  O2_25 
ROOT
HETATM    1  N1  UNL     1      25.680   2.521  51.221  1.00  0.00    -0.295 N 
HETATM    2  C6  UNL     1      26.540   3.423  50.521  1.00  0.00     0.178 A 
HETATM    3  C7  UNL     1      25.755   4.410  49.732  1.00  0.00     0.025 A 
HETATM    4  C8  UNL     1      26.555   5.315  49.027  1.00  0.00     0.149 A 
HETATM    5  N2  UNL     1      25.922   6.260  48.273  1.00  0.00    -0.074 NA
HETATM    6  C9  UNL     1      24.568   6.310  48.215  1.00  0.00     0.734 A 
HETATM    7  N4  UNL     1      23.813   5.430  48.900  1.00  0.00    -0.043 NA
HETATM    8  C14 UNL     1      24.377   4.463  49.671  1.00  0.00     0.162 A 
HETATM    9  N5  UNL     1      23.625   3.505  50.418  1.00  0.00    -0.278 N 
HETATM   10  C20 UNL     1      24.278   2.518  51.205  1.00  0.00     0.331 A 
HETATM   11  O3  UNL     1      23.678   1.666  51.870  1.00  0.00    -0.246 OA
ENDROOT
BRANCH   1  12
HETATM   12  C5  UNL     1      26.462   1.595  51.963  1.00  0.00     0.039 A 
HETATM   13  C4  UNL     1      26.391   0.214  51.791  1.00  0.00     0.032 A 
HETATM   14  C3  UNL     1      27.178  -0.630  52.544  1.00  0.00     0.039 A 
HETATM   15  C2  UNL     1      28.052  -0.112  53.482  1.00  0.00     0.068 A 
HETATM   16  C22 UNL     1      28.114   1.263  53.642  1.00  0.00     0.039 A 
HETATM   17  C21 UNL     1      27.337   2.113  52.902  1.00  0.00     0.032 A 
BRANCH  15  18
HETATM   18  O1  UNL     1      28.883  -0.876  54.286  1.00  0.00    -0.356 OA
HETATM   19  C1  UNL     1      29.926  -1.673  53.753  1.00  0.00     0.210 C 
ENDBRANCH  15  18
ENDBRANCH   1  12
BRANCH   9  20
HETATM   20  C15 UNL     1      22.201   3.560  50.356  1.00  0.00     0.099 C 
HETATM   21  C16 UNL     1      21.500   2.275  50.079  1.00  0.00     0.028 C 
HETATM   22  C17 UNL     1      20.049   2.672  50.266  1.00  0.00     0.034 C 
HETATM   23  C18 UNL     1      20.060   3.754  51.302  1.00  0.00     0.120 C 
HETATM   24  C19 UNL     1      21.536   3.999  51.643  1.00  0.00     0.057 C 
BRANCH  23  25
HETATM   25  O2  UNL     1      19.322   3.396  52.417  1.00  0.00    -0.396 OA
HETATM   26  H19 UNL     1      18.981   2.457  52.379  1.00  0.00     0.210 HD
ENDBRANCH  23  25
ENDBRANCH   9  20
BRANCH   6  27
HETATM   27  N3  UNL     1      23.942   7.317  47.412  1.00  0.00    -0.165 N 
HETATM   28  C10 UNL     1      22.623   7.441  47.653  1.00  0.00     0.114 A 
HETATM   29  C11 UNL     1      22.133   8.442  46.817  1.00  0.00     0.020 A 
HETATM   30  C12 UNL     1      23.191   8.915  46.069  1.00  0.00     0.020 A 
HETATM   31  C13 UNL     1      24.315   8.187  46.465  1.00  0.00     0.114 A 
ENDBRANCH   6  27
TORSDOF 5
ENDMDL
