MODEL 1
REMARK VINA RESULT:      -7.7      0.000      0.000
REMARK  7 active torsions:
REMARK  status: ('A' for Active; 'I' for Inactive)
REMARK    1  A    between atoms: N1_2  and  C2_3 
REMARK    2  A    between atoms: C2_3  and  C3_4 
REMARK    3  A    between atoms: C3_4  and  P1_5 
REMARK    4  A    between atoms: C9_12  and  N2_13 
REMARK    5  A    between atoms: C9_12  and  C12_16 
REMARK    6  A    between atoms: N2_13  and  C10_14 
REMARK    7  A    between atoms: C15_19  and  N3_20 
ROOT
HETATM    1  C2  UNL     1      21.199   3.097  51.234  1.00  0.00     0.084 C 
HETATM    2  C9  UNL     1      22.356   3.700  51.480  1.00  0.00     0.067 C 
ENDROOT
BRANCH   2   3
HETATM    3  N2  UNL     1      22.283   5.106  51.627  1.00  0.00    -0.388 N 
HETATM    4  H8  UNL     1      21.748   5.198  52.545  1.00  0.00     0.159 HD
BRANCH   3   5
HETATM    5  C10 UNL     1      22.694   6.294  50.950  1.00  0.00     0.115 C 
HETATM    6  C11 UNL     1      24.143   6.668  51.279  1.00  0.00     0.026 C 
ENDBRANCH   3   5
ENDBRANCH   2   3
BRANCH   2   7
HETATM    7  C12 UNL     1      23.680   3.121  51.668  1.00  0.00    -0.007 A 
HETATM    8  C13 UNL     1      24.633   2.691  50.778  1.00  0.00     0.016 A 
HETATM    9  C14 UNL     1      25.834   2.202  51.236  1.00  0.00     0.030 A 
HETATM   10  C15 UNL     1      26.187   2.098  52.562  1.00  0.00     0.031 A 
HETATM   11  C20 UNL     1      25.219   2.534  53.452  1.00  0.00     0.030 A 
HETATM   12  C21 UNL     1      23.991   3.037  53.033  1.00  0.00     0.016 A 
BRANCH  10  13
HETATM   13  N3  UNL     1      27.455   1.573  52.975  1.00  0.00    -0.356 N 
HETATM   14  C16 UNL     1      27.596   0.162  52.803  1.00  0.00     0.126 C 
HETATM   15  C17 UNL     1      28.715  -0.405  53.645  1.00  0.00     0.050 C 
HETATM   16  C18 UNL     1      28.803   0.457  54.898  1.00  0.00     0.273 C 
HETATM   17  N4  UNL     1      29.367   1.715  54.447  1.00  0.00     0.100 NA
HETATM   18  C19 UNL     1      28.499   2.381  53.502  1.00  0.00     0.395 C 
HETATM   19  H22 UNL     1      30.275   1.451  53.964  1.00  0.00     0.318 HD
ENDBRANCH  10  13
ENDBRANCH   2   7
BRANCH   1  20
HETATM   20  N1  UNL     1      20.124   3.977  51.170  1.00  0.00    -0.270 NA
HETATM   21  C1  UNL     1      18.895   3.703  51.464  1.00  0.00     0.149 C 
ENDBRANCH   1  20
BRANCH   1  22
HETATM   22  C3  UNL     1      21.179   1.661  51.053  1.00  0.00     0.048 C 
BRANCH  22  23
HETATM   23  P1  UNL     1      21.146   0.494  52.173  1.00  0.00    -0.045 P 
HETATM   24  C4  UNL     1      22.612  -0.292  52.241  1.00  0.00     0.018 A 
HETATM   25  C5  UNL     1      23.079  -0.827  53.542  1.00  0.00     0.043 A 
HETATM   26  C6  UNL     1      22.355  -0.688  54.633  1.00  0.00     0.116 A 
HETATM   27  F1  UNL     1      22.945  -1.243  55.726  1.00  0.00    -0.206 F 
HETATM   28  C7  UNL     1      21.067  -0.055  54.843  1.00  0.00     0.043 A 
HETATM   29  C8  UNL     1      20.386   0.531  53.819  1.00  0.00     0.018 A 
ENDBRANCH  22  23
ENDBRANCH   1  22
TORSDOF 7
ENDMDL
MODEL 2
REMARK VINA RESULT:      -7.4      3.157      7.245
REMARK  7 active torsions:
REMARK  status: ('A' for Active; 'I' for Inactive)
REMARK    1  A    between atoms: N1_2  and  C2_3 
REMARK    2  A    between atoms: C2_3  and  C3_4 
REMARK    3  A    between atoms: C3_4  and  P1_5 
REMARK    4  A    between atoms: C9_12  and  N2_13 
REMARK    5  A    between atoms: C9_12  and  C12_16 
REMARK    6  A    between atoms: N2_13  and  C10_14 
REMARK    7  A    between atoms: C15_19  and  N3_20 
ROOT
HETATM    1  C2  UNL     1      24.809   1.606  52.218  1.00  0.00     0.084 C 
HETATM    2  C9  UNL     1      23.575   2.085  52.126  1.00  0.00     0.067 C 
ENDROOT
BRANCH   2   3
HETATM    3  N2  UNL     1      23.482   3.434  51.709  1.00  0.00    -0.388 N 
HETATM    4  H8  UNL     1      24.019   3.412  50.788  1.00  0.00     0.159 HD
BRANCH   3   5
HETATM    5  C10 UNL     1      22.921   4.672  52.146  1.00  0.00     0.115 C 
HETATM    6  C11 UNL     1      21.541   4.925  51.528  1.00  0.00     0.026 C 
ENDBRANCH   3   5
ENDBRANCH   2   3
BRANCH   2   7
HETATM    7  C12 UNL     1      22.302   1.410  52.344  1.00  0.00    -0.007 A 
HETATM    8  C13 UNL     1      21.667   0.986  53.486  1.00  0.00     0.016 A 
HETATM    9  C14 UNL     1      20.431   0.389  53.407  1.00  0.00     0.030 A 
HETATM   10  C15 UNL     1      19.738   0.167  52.238  1.00  0.00     0.031 A 
HETATM   11  C20 UNL     1      20.387   0.598  51.092  1.00  0.00     0.030 A 
HETATM   12  C21 UNL     1      21.637   1.207  51.126  1.00  0.00     0.016 A 
BRANCH  10  13
HETATM   13  N3  UNL     1      18.453  -0.467  52.222  1.00  0.00    -0.356 N 
HETATM   14  C16 UNL     1      17.726  -0.299  51.004  1.00  0.00     0.126 C 
HETATM   15  C17 UNL     1      16.249  -0.567  51.180  1.00  0.00     0.050 C 
HETATM   16  C18 UNL     1      15.899  -0.172  52.610  1.00  0.00     0.273 C 
HETATM   17  N4  UNL     1      16.497  -1.200  53.438  1.00  0.00     0.100 NA
HETATM   18  C19 UNL     1      17.938  -1.214  53.315  1.00  0.00     0.395 C 
HETATM   19  H22 UNL     1      16.104  -2.114  53.068  1.00  0.00     0.318 HD
ENDBRANCH  10  13
ENDBRANCH   2   7
BRANCH   1  20
HETATM   20  N1  UNL     1      25.787   2.537  51.880  1.00  0.00    -0.270 NA
HETATM   21  C1  UNL     1      26.674   2.408  50.950  1.00  0.00     0.149 C 
ENDBRANCH   1  20
BRANCH   1  22
HETATM   22  C3  UNL     1      25.003   0.239  52.652  1.00  0.00     0.048 C 
BRANCH  22  23
HETATM   23  P1  UNL     1      26.186  -0.384  53.563  1.00  0.00    -0.045 P 
HETATM   24  C4  UNL     1      27.035  -1.534  52.712  1.00  0.00     0.018 A 
HETATM   25  C5  UNL     1      28.482  -1.705  52.983  1.00  0.00     0.043 A 
HETATM   26  C6  UNL     1      29.098  -0.963  53.880  1.00  0.00     0.116 A 
HETATM   27  F1  UNL     1      30.419  -1.264  53.990  1.00  0.00    -0.206 F 
HETATM   28  C7  UNL     1      28.599   0.093  54.741  1.00  0.00     0.043 A 
HETATM   29  C8  UNL     1      27.293   0.475  54.716  1.00  0.00     0.018 A 
ENDBRANCH  22  23
ENDBRANCH   1  22
TORSDOF 7
ENDMDL
MODEL 3
REMARK VINA RESULT:      -7.3      2.539      4.634
REMARK  7 active torsions:
REMARK  status: ('A' for Active; 'I' for Inactive)
REMARK    1  A    between atoms: N1_2  and  C2_3 
REMARK    2  A    between atoms: C2_3  and  C3_4 
REMARK    3  A    between atoms: C3_4  and  P1_5 
REMARK    4  A    between atoms: C9_12  and  N2_13 
REMARK    5  A    between atoms: C9_12  and  C12_16 
REMARK    6  A    between atoms: N2_13  and  C10_14 
REMARK    7  A    between atoms: C15_19  and  N3_20 
ROOT
HETATM    1  C2  UNL     1      21.096   3.177  52.239  1.00  0.00     0.084 C 
HETATM    2  C9  UNL     1      21.780   2.163  52.754  1.00  0.00     0.067 C 
ENDROOT
BRANCH   2   3
HETATM    3  N2  UNL     1      20.995   1.076  53.205  1.00  0.00    -0.388 N 
HETATM    4  H8  UNL     1      20.508   0.775  52.306  1.00  0.00     0.159 HD
BRANCH   3   5
HETATM    5  C10 UNL     1      20.720   0.357  54.408  1.00  0.00     0.115 C 
HETATM    6  C11 UNL     1      21.100  -1.123  54.290  1.00  0.00     0.026 C 
ENDBRANCH   3   5
ENDBRANCH   2   3
BRANCH   2   7
HETATM    7  C12 UNL     1      23.221   1.987  52.878  1.00  0.00    -0.007 A 
HETATM    8  C13 UNL     1      24.207   2.792  53.393  1.00  0.00     0.016 A 
HETATM    9  C14 UNL     1      25.512   2.359  53.411  1.00  0.00     0.030 A 
HETATM   10  C15 UNL     1      25.943   1.139  52.941  1.00  0.00     0.031 A 
HETATM   11  C20 UNL     1      24.940   0.334  52.423  1.00  0.00     0.030 A 
HETATM   12  C21 UNL     1      23.608   0.732  52.386  1.00  0.00     0.016 A 
BRANCH  10  13
HETATM   13  N3  UNL     1      27.321   0.747  52.983  1.00  0.00    -0.356 N 
HETATM   14  C16 UNL     1      27.545  -0.650  52.790  1.00  0.00     0.126 C 
HETATM   15  C17 UNL     1      28.906  -1.082  53.286  1.00  0.00     0.050 C 
HETATM   16  C18 UNL     1      29.257  -0.170  54.456  1.00  0.00     0.273 C 
HETATM   17  N4  UNL     1      29.546   1.116  53.853  1.00  0.00     0.100 NA
HETATM   18  C19 UNL     1      28.386   1.666  53.186  1.00  0.00     0.395 C 
HETATM   19  H22 UNL     1      30.303   0.920  53.135  1.00  0.00     0.318 HD
ENDBRANCH  10  13
ENDBRANCH   2   7
BRANCH   1  20
HETATM   20  N1  UNL     1      19.720   2.970  52.240  1.00  0.00    -0.270 NA
HETATM   21  C1  UNL     1      18.869   3.487  51.416  1.00  0.00     0.149 C 
ENDBRANCH   1  20
BRANCH   1  22
HETATM   22  C3  UNL     1      21.814   4.341  51.764  1.00  0.00     0.048 C 
BRANCH  22  23
HETATM   23  P1  UNL     1      22.775   4.489  50.472  1.00  0.00    -0.045 P 
HETATM   24  C4  UNL     1      23.793   5.794  50.647  1.00  0.00     0.018 A 
HETATM   25  C5  UNL     1      25.148   5.732  50.049  1.00  0.00     0.043 A 
HETATM   26  C6  UNL     1      25.552   4.666  49.389  1.00  0.00     0.116 A 
HETATM   27  F1  UNL     1      26.820   4.794  48.915  1.00  0.00    -0.206 F 
HETATM   28  C7  UNL     1      24.874   3.416  49.100  1.00  0.00     0.043 A 
HETATM   29  C8  UNL     1      23.602   3.181  49.526  1.00  0.00     0.018 A 
ENDBRANCH  22  23
ENDBRANCH   1  22
TORSDOF 7
ENDMDL
MODEL 4
REMARK VINA RESULT:      -7.3      3.695      6.217
REMARK  7 active torsions:
REMARK  status: ('A' for Active; 'I' for Inactive)
REMARK    1  A    between atoms: N1_2  and  C2_3 
REMARK    2  A    between atoms: C2_3  and  C3_4 
REMARK    3  A    between atoms: C3_4  and  P1_5 
REMARK    4  A    between atoms: C9_12  and  N2_13 
REMARK    5  A    between atoms: C9_12  and  C12_16 
REMARK    6  A    between atoms: N2_13  and  C10_14 
REMARK    7  A    between atoms: C15_19  and  N3_20 
ROOT
HETATM    1  C2  UNL     1      24.222   2.249  51.479  1.00  0.00     0.084 C 
HETATM    2  C9  UNL     1      24.040   3.128  50.502  1.00  0.00     0.067 C 
ENDROOT
BRANCH   2   3
HETATM    3  N2  UNL     1      22.831   2.982  49.779  1.00  0.00    -0.388 N 
HETATM    4  H8  UNL     1      22.258   2.373  50.440  1.00  0.00     0.159 HD
BRANCH   3   5
HETATM    5  C10 UNL     1      22.246   3.393  48.543  1.00  0.00     0.115 C 
HETATM    6  C11 UNL     1      22.399   2.325  47.454  1.00  0.00     0.026 C 
ENDBRANCH   3   5
ENDBRANCH   2   3
BRANCH   2   7
HETATM    7  C12 UNL     1      24.878   4.249  50.096  1.00  0.00    -0.007 A 
HETATM    8  C13 UNL     1      25.970   4.331  49.267  1.00  0.00     0.016 A 
HETATM    9  C14 UNL     1      26.567   5.547  49.032  1.00  0.00     0.030 A 
HETATM   10  C15 UNL     1      26.155   6.744  49.572  1.00  0.00     0.031 A 
HETATM   11  C20 UNL     1      25.053   6.650  50.407  1.00  0.00     0.030 A 
HETATM   12  C21 UNL     1      24.418   5.441  50.673  1.00  0.00     0.016 A 
BRANCH  10  13
HETATM   13  N3  UNL     1      26.825   7.979  49.291  1.00  0.00    -0.356 N 
HETATM   14  C16 UNL     1      27.598   7.973  48.090  1.00  0.00     0.126 C 
HETATM   15  C17 UNL     1      28.622   9.084  48.066  1.00  0.00     0.050 C 
HETATM   16  C18 UNL     1      29.034   9.333  49.512  1.00  0.00     0.273 C 
HETATM   17  N4  UNL     1      27.889   9.985  50.118  1.00  0.00     0.100 NA
HETATM   18  C19 UNL     1      26.725   9.127  50.123  1.00  0.00     0.395 C 
HETATM   19  H22 UNL     1      27.699  10.831  49.506  1.00  0.00     0.318 HD
ENDBRANCH  10  13
ENDBRANCH   2   7
BRANCH   1  20
HETATM   20  N1  UNL     1      23.174   1.343  51.607  1.00  0.00    -0.270 NA
HETATM   21  C1  UNL     1      22.925   0.604  52.638  1.00  0.00     0.149 C 
ENDBRANCH   1  20
BRANCH   1  22
HETATM   22  C3  UNL     1      25.437   2.311  52.263  1.00  0.00     0.048 C 
BRANCH  22  23
HETATM   23  P1  UNL     1      26.744   1.359  52.196  1.00  0.00    -0.045 P 
HETATM   24  C4  UNL     1      28.003   2.034  53.050  1.00  0.00     0.018 A 
HETATM   25  C5  UNL     1      28.967   1.139  53.732  1.00  0.00     0.043 A 
HETATM   26  C6  UNL     1      28.840  -0.170  53.673  1.00  0.00     0.116 A 
HETATM   27  F1  UNL     1      29.817  -0.823  54.358  1.00  0.00    -0.206 F 
HETATM   28  C7  UNL     1      27.849  -0.997  53.011  1.00  0.00     0.043 A 
HETATM   29  C8  UNL     1      26.827  -0.450  52.296  1.00  0.00     0.018 A 
ENDBRANCH  22  23
ENDBRANCH   1  22
TORSDOF 7
ENDMDL
MODEL 5
REMARK VINA RESULT:      -7.2      2.995      6.089
REMARK  7 active torsions:
REMARK  status: ('A' for Active; 'I' for Inactive)
REMARK    1  A    between atoms: N1_2  and  C2_3 
REMARK    2  A    between atoms: C2_3  and  C3_4 
REMARK    3  A    between atoms: C3_4  and  P1_5 
REMARK    4  A    between atoms: C9_12  and  N2_13 
REMARK    5  A    between atoms: C9_12  and  C12_16 
REMARK    6  A    between atoms: N2_13  and  C10_14 
REMARK    7  A    between atoms: C15_19  and  N3_20 
ROOT
HETATM    1  C2  UNL     1      23.937   0.663  52.701  1.00  0.00     0.084 C 
HETATM    2  C9  UNL     1      23.391   1.447  51.780  1.00  0.00     0.067 C 
ENDROOT
BRANCH   2   3
HETATM    3  N2  UNL     1      22.089   1.074  51.368  1.00  0.00    -0.388 N 
HETATM    4  H8  UNL     1      21.870   0.277  52.043  1.00  0.00     0.159 HD
BRANCH   3   5
HETATM    5  C10 UNL     1      21.104   1.445  50.403  1.00  0.00     0.115 C 
HETATM    6  C11 UNL     1      21.486   0.987  48.991  1.00  0.00     0.026 C 
ENDBRANCH   3   5
ENDBRANCH   2   3
BRANCH   2   7
HETATM    7  C12 UNL     1      23.916   2.660  51.167  1.00  0.00    -0.007 A 
HETATM    8  C13 UNL     1      24.684   2.869  50.048  1.00  0.00     0.016 A 
HETATM    9  C14 UNL     1      25.021   4.148  49.672  1.00  0.00     0.030 A 
HETATM   10  C15 UNL     1      24.643   5.291  50.341  1.00  0.00     0.031 A 
HETATM   11  C20 UNL     1      23.867   5.069  51.468  1.00  0.00     0.030 A 
HETATM   12  C21 UNL     1      23.503   3.792  51.884  1.00  0.00     0.016 A 
BRANCH  10  13
HETATM   13  N3  UNL     1      25.031   6.597  49.900  1.00  0.00    -0.356 N 
HETATM   14  C16 UNL     1      25.908   6.605  48.772  1.00  0.00     0.126 C 
HETATM   15  C17 UNL     1      26.641   7.919  48.629  1.00  0.00     0.050 C 
HETATM   16  C18 UNL     1      26.826   8.474  50.037  1.00  0.00     0.273 C 
HETATM   17  N4  UNL     1      25.502   8.905  50.444  1.00  0.00     0.100 NA
HETATM   18  C19 UNL     1      24.578   7.795  50.516  1.00  0.00     0.395 C 
HETATM   19  H22 UNL     1      25.186   9.576  49.686  1.00  0.00     0.318 HD
ENDBRANCH  10  13
ENDBRANCH   2   7
BRANCH   1  20
HETATM   20  N1  UNL     1      23.111  -0.386  53.091  1.00  0.00    -0.270 NA
HETATM   21  C1  UNL     1      23.004  -0.870  54.285  1.00  0.00     0.149 C 
ENDBRANCH   1  20
BRANCH   1  22
HETATM   22  C3  UNL     1      25.274   0.958  53.172  1.00  0.00     0.048 C 
BRANCH  22  23
HETATM   23  P1  UNL     1      26.680   0.293  52.729  1.00  0.00    -0.045 P 
HETATM   24  C4  UNL     1      27.957   1.224  53.253  1.00  0.00     0.018 A 
HETATM   25  C5  UNL     1      29.227   0.555  53.625  1.00  0.00     0.043 A 
HETATM   26  C6  UNL     1      29.354  -0.753  53.548  1.00  0.00     0.116 A 
HETATM   27  F1  UNL     1      30.587  -1.182  53.928  1.00  0.00    -0.206 F 
HETATM   28  C7  UNL     1      28.411  -1.775  53.133  1.00  0.00     0.043 A 
HETATM   29  C8  UNL     1      27.150  -1.459  52.730  1.00  0.00     0.018 A 
ENDBRANCH  22  23
ENDBRANCH   1  22
TORSDOF 7
ENDMDL
MODEL 6
REMARK VINA RESULT:      -7.1      1.495      2.073
REMARK  7 active torsions:
REMARK  status: ('A' for Active; 'I' for Inactive)
REMARK    1  A    between atoms: N1_2  and  C2_3 
REMARK    2  A    between atoms: C2_3  and  C3_4 
REMARK    3  A    between atoms: C3_4  and  P1_5 
REMARK    4  A    between atoms: C9_12  and  N2_13 
REMARK    5  A    between atoms: C9_12  and  C12_16 
REMARK    6  A    between atoms: N2_13  and  C10_14 
REMARK    7  A    between atoms: C15_19  and  N3_20 
ROOT
HETATM    1  C2  UNL     1      21.582   3.312  50.496  1.00  0.00     0.084 C 
HETATM    2  C9  UNL     1      22.747   3.871  50.799  1.00  0.00     0.067 C 
ENDROOT
BRANCH   2   3
HETATM    3  N2  UNL     1      22.885   5.224  50.405  1.00  0.00    -0.388 N 
HETATM    4  H8  UNL     1      22.672   5.167  49.362  1.00  0.00     0.159 HD
BRANCH   3   5
HETATM    5  C10 UNL     1      23.193   6.497  50.973  1.00  0.00     0.115 C 
HETATM    6  C11 UNL     1      24.668   6.867  50.783  1.00  0.00     0.026 C 
ENDBRANCH   3   5
ENDBRANCH   2   3
BRANCH   2   7
HETATM    7  C12 UNL     1      23.884   3.312  51.518  1.00  0.00    -0.007 A 
HETATM    8  C13 UNL     1      24.068   2.984  52.839  1.00  0.00     0.016 A 
HETATM    9  C14 UNL     1      25.258   2.433  53.253  1.00  0.00     0.030 A 
HETATM   10  C15 UNL     1      26.330   2.167  52.432  1.00  0.00     0.031 A 
HETATM   11  C20 UNL     1      26.134   2.501  51.101  1.00  0.00     0.030 A 
HETATM   12  C21 UNL     1      24.947   3.059  50.639  1.00  0.00     0.016 A 
BRANCH  10  13
HETATM   13  N3  UNL     1      27.547   1.595  52.927  1.00  0.00    -0.356 N 
HETATM   14  C16 UNL     1      27.640   0.178  52.775  1.00  0.00     0.126 C 
HETATM   15  C17 UNL     1      28.682  -0.426  53.689  1.00  0.00     0.050 C 
HETATM   16  C18 UNL     1      28.728   0.446  54.938  1.00  0.00     0.273 C 
HETATM   17  N4  UNL     1      29.370   1.674  54.512  1.00  0.00     0.100 NA
HETATM   18  C19 UNL     1      28.590   2.365  53.510  1.00  0.00     0.395 C 
HETATM   19  H22 UNL     1      30.294   1.369  54.089  1.00  0.00     0.318 HD
ENDBRANCH  10  13
ENDBRANCH   2   7
BRANCH   1  20
HETATM   20  N1  UNL     1      20.709   4.176  49.844  1.00  0.00    -0.270 NA
HETATM   21  C1  UNL     1      19.731   3.834  49.071  1.00  0.00     0.149 C 
ENDBRANCH   1  20
BRANCH   1  22
HETATM   22  C3  UNL     1      21.356   1.925  50.847  1.00  0.00     0.048 C 
BRANCH  22  23
HETATM   23  P1  UNL     1      20.527   1.312  52.093  1.00  0.00    -0.045 P 
HETATM   24  C4  UNL     1      19.026   0.792  51.597  1.00  0.00     0.018 A 
HETATM   25  C5  UNL     1      18.413  -0.377  52.272  1.00  0.00     0.043 A 
HETATM   26  C6  UNL     1      19.037  -1.003  53.248  1.00  0.00     0.116 A 
HETATM   27  F1  UNL     1      18.320  -2.048  53.742  1.00  0.00    -0.206 F 
HETATM   28  C7  UNL     1      20.331  -0.759  53.857  1.00  0.00     0.043 A 
HETATM   29  C8  UNL     1      21.132   0.261  53.442  1.00  0.00     0.018 A 
ENDBRANCH  22  23
ENDBRANCH   1  22
TORSDOF 7
ENDMDL
MODEL 7
REMARK VINA RESULT:      -6.9      4.172      6.892
REMARK  7 active torsions:
REMARK  status: ('A' for Active; 'I' for Inactive)
REMARK    1  A    between atoms: N1_2  and  C2_3 
REMARK    2  A    between atoms: C2_3  and  C3_4 
REMARK    3  A    between atoms: C3_4  and  P1_5 
REMARK    4  A    between atoms: C9_12  and  N2_13 
REMARK    5  A    between atoms: C9_12  and  C12_16 
REMARK    6  A    between atoms: N2_13  and  C10_14 
REMARK    7  A    between atoms: C15_19  and  N3_20 
ROOT
HETATM    1  C2  UNL     1      25.220   2.656  51.058  1.00  0.00     0.084 C 
HETATM    2  C9  UNL     1      24.910   3.658  50.246  1.00  0.00     0.067 C 
ENDROOT
BRANCH   2   3
HETATM    3  N2  UNL     1      23.543   3.739  49.884  1.00  0.00    -0.388 N 
HETATM    4  H8  UNL     1      23.073   3.808  50.839  1.00  0.00     0.159 HD
BRANCH   3   5
HETATM    5  C10 UNL     1      22.726   3.754  48.713  1.00  0.00     0.115 C 
HETATM    6  C11 UNL     1      22.703   2.391  48.014  1.00  0.00     0.026 C 
ENDBRANCH   3   5
ENDBRANCH   2   3
BRANCH   2   7
HETATM    7  C12 UNL     1      25.760   4.715  49.712  1.00  0.00    -0.007 A 
HETATM    8  C13 UNL     1      26.844   4.688  48.870  1.00  0.00     0.016 A 
HETATM    9  C14 UNL     1      27.456   5.862  48.496  1.00  0.00     0.030 A 
HETATM   10  C15 UNL     1      27.066   7.117  48.904  1.00  0.00     0.031 A 
HETATM   11  C20 UNL     1      25.972   7.133  49.753  1.00  0.00     0.030 A 
HETATM   12  C21 UNL     1      25.322   5.971  50.156  1.00  0.00     0.016 A 
BRANCH  10  13
HETATM   13  N3  UNL     1      27.751   8.303  48.482  1.00  0.00    -0.356 N 
HETATM   14  C16 UNL     1      28.053   9.219  49.536  1.00  0.00     0.126 C 
HETATM   15  C17 UNL     1      28.341  10.609  49.018  1.00  0.00     0.050 C 
HETATM   16  C18 UNL     1      27.510  10.787  47.753  1.00  0.00     0.273 C 
HETATM   17  N4  UNL     1      28.157   9.951  46.761  1.00  0.00     0.100 NA
HETATM   18  C19 UNL     1      28.117   8.554  47.132  1.00  0.00     0.395 C 
HETATM   19  H22 UNL     1      29.166  10.280  46.740  1.00  0.00     0.318 HD
ENDBRANCH  10  13
ENDBRANCH   2   7
BRANCH   1  20
HETATM   20  N1  UNL     1      24.127   1.868  51.403  1.00  0.00    -0.270 NA
HETATM   21  C1  UNL     1      23.580   1.791  52.571  1.00  0.00     0.149 C 
ENDBRANCH   1  20
BRANCH   1  22
HETATM   22  C3  UNL     1      26.598   2.485  51.469  1.00  0.00     0.048 C 
BRANCH  22  23
HETATM   23  P1  UNL     1      27.189   1.680  52.742  1.00  0.00    -0.045 P 
HETATM   24  C4  UNL     1      27.050   0.038  52.511  1.00  0.00     0.018 A 
HETATM   25  C5  UNL     1      28.080  -0.857  53.090  1.00  0.00     0.043 A 
HETATM   26  C6  UNL     1      29.093  -0.373  53.777  1.00  0.00     0.116 A 
HETATM   27  F1  UNL     1      29.931  -1.344  54.228  1.00  0.00    -0.206 F 
HETATM   28  C7  UNL     1      29.443   0.994  54.115  1.00  0.00     0.043 A 
HETATM   29  C8  UNL     1      28.674   2.045  53.717  1.00  0.00     0.018 A 
ENDBRANCH  22  23
ENDBRANCH   1  22
TORSDOF 7
ENDMDL
MODEL 8
REMARK VINA RESULT:      -6.6      2.887      5.830
REMARK  7 active torsions:
REMARK  status: ('A' for Active; 'I' for Inactive)
REMARK    1  A    between atoms: N1_2  and  C2_3 
REMARK    2  A    between atoms: C2_3  and  C3_4 
REMARK    3  A    between atoms: C3_4  and  P1_5 
REMARK    4  A    between atoms: C9_12  and  N2_13 
REMARK    5  A    between atoms: C9_12  and  C12_16 
REMARK    6  A    between atoms: N2_13  and  C10_14 
REMARK    7  A    between atoms: C15_19  and  N3_20 
ROOT
HETATM    1  C2  UNL     1      22.211   0.124  53.318  1.00  0.00     0.084 C 
HETATM    2  C9  UNL     1      23.360   0.678  52.954  1.00  0.00     0.067 C 
ENDROOT
BRANCH   2   3
HETATM    3  N2  UNL     1      24.482  -0.184  52.992  1.00  0.00    -0.388 N 
HETATM    4  H8  UNL     1      24.031  -1.133  52.812  1.00  0.00     0.159 HD
BRANCH   3   5
HETATM    5  C10 UNL     1      25.897  -0.122  53.182  1.00  0.00     0.115 C 
HETATM    6  C11 UNL     1      26.265   0.278  54.615  1.00  0.00     0.026 C 
ENDBRANCH   3   5
ENDBRANCH   2   3
BRANCH   2   7
HETATM    7  C12 UNL     1      23.627   2.029  52.475  1.00  0.00    -0.007 A 
HETATM    8  C13 UNL     1      23.821   3.218  53.134  1.00  0.00     0.016 A 
HETATM    9  C14 UNL     1      24.088   4.364  52.422  1.00  0.00     0.030 A 
HETATM   10  C15 UNL     1      24.184   4.435  51.051  1.00  0.00     0.031 A 
HETATM   11  C20 UNL     1      23.987   3.230  50.396  1.00  0.00     0.030 A 
HETATM   12  C21 UNL     1      23.715   2.046  51.076  1.00  0.00     0.016 A 
BRANCH  10  13
HETATM   13  N3  UNL     1      24.461   5.664  50.368  1.00  0.00    -0.356 N 
HETATM   14  C16 UNL     1      24.919   5.504  49.024  1.00  0.00     0.126 C 
HETATM   15  C17 UNL     1      25.618   6.741  48.510  1.00  0.00     0.050 C 
HETATM   16  C18 UNL     1      26.277   7.406  49.713  1.00  0.00     0.273 C 
HETATM   17  N4  UNL     1      25.179   7.969  50.474  1.00  0.00     0.100 NA
HETATM   18  C19 UNL     1      24.284   6.943  50.961  1.00  0.00     0.395 C 
HETATM   19  H22 UNL     1      24.660   8.591  49.789  1.00  0.00     0.318 HD
ENDBRANCH  10  13
ENDBRANCH   2   7
BRANCH   1  20
HETATM   20  N1  UNL     1      22.333  -1.217  53.669  1.00  0.00    -0.270 NA
HETATM   21  C1  UNL     1      21.608  -1.849  54.532  1.00  0.00     0.149 C 
ENDBRANCH   1  20
BRANCH   1  22
HETATM   22  C3  UNL     1      21.011   0.934  53.324  1.00  0.00     0.048 C 
BRANCH  22  23
HETATM   23  P1  UNL     1      20.183   1.539  52.073  1.00  0.00    -0.045 P 
HETATM   24  C4  UNL     1      20.219   3.203  52.100  1.00  0.00     0.018 A 
HETATM   25  C5  UNL     1      20.207   3.941  50.814  1.00  0.00     0.043 A 
HETATM   26  C6  UNL     1      20.169   3.302  49.664  1.00  0.00     0.116 A 
HETATM   27  F1  UNL     1      20.163   4.146  48.597  1.00  0.00    -0.206 F 
HETATM   28  C7  UNL     1      20.136   1.882  49.368  1.00  0.00     0.043 A 
HETATM   29  C8  UNL     1      20.137   0.948  50.359  1.00  0.00     0.018 A 
ENDBRANCH  22  23
ENDBRANCH   1  22
TORSDOF 7
ENDMDL
MODEL 9
REMARK VINA RESULT:      -6.6      3.447      5.538
REMARK  7 active torsions:
REMARK  status: ('A' for Active; 'I' for Inactive)
REMARK    1  A    between atoms: N1_2  and  C2_3 
REMARK    2  A    between atoms: C2_3  and  C3_4 
REMARK    3  A    between atoms: C3_4  and  P1_5 
REMARK    4  A    between atoms: C9_12  and  N2_13 
REMARK    5  A    between atoms: C9_12  and  C12_16 
REMARK    6  A    between atoms: N2_13  and  C10_14 
REMARK    7  A    between atoms: C15_19  and  N3_20 
ROOT
HETATM    1  C2  UNL     1      22.348   4.418  50.807  1.00  0.00     0.084 C 
HETATM    2  C9  UNL     1      22.612   3.118  50.762  1.00  0.00     0.067 C 
ENDROOT
BRANCH   2   3
HETATM    3  N2  UNL     1      21.663   2.335  50.064  1.00  0.00    -0.388 N 
HETATM    4  H8  UNL     1      21.044   1.987  50.860  1.00  0.00     0.159 HD
BRANCH   3   5
HETATM    5  C10 UNL     1      21.350   1.938  48.728  1.00  0.00     0.115 C 
HETATM    6  C11 UNL     1      22.543   2.117  47.783  1.00  0.00     0.026 C 
ENDBRANCH   3   5
ENDBRANCH   2   3
BRANCH   2   7
HETATM    7  C12 UNL     1      23.760   2.388  51.285  1.00  0.00    -0.007 A 
HETATM    8  C13 UNL     1      25.093   2.407  50.954  1.00  0.00     0.016 A 
HETATM    9  C14 UNL     1      25.986   1.620  51.642  1.00  0.00     0.030 A 
HETATM   10  C15 UNL     1      25.655   0.777  52.679  1.00  0.00     0.031 A 
HETATM   11  C20 UNL     1      24.308   0.766  53.006  1.00  0.00     0.030 A 
HETATM   12  C21 UNL     1      23.371   1.546  52.336  1.00  0.00     0.016 A 
BRANCH  10  13
HETATM   13  N3  UNL     1      26.634  -0.023  53.354  1.00  0.00    -0.356 N 
HETATM   14  C16 UNL     1      27.248   0.615  54.475  1.00  0.00     0.126 C 
HETATM   15  C17 UNL     1      28.551  -0.046  54.862  1.00  0.00     0.050 C 
HETATM   16  C18 UNL     1      29.157  -0.607  53.581  1.00  0.00     0.273 C 
HETATM   17  N4  UNL     1      28.325  -1.746  53.243  1.00  0.00     0.100 NA
HETATM   18  C19 UNL     1      26.964  -1.348  52.960  1.00  0.00     0.395 C 
HETATM   19  H22 UNL     1      28.339  -2.362  54.107  1.00  0.00     0.318 HD
ENDBRANCH  10  13
ENDBRANCH   2   7
BRANCH   1  20
HETATM   20  N1  UNL     1      21.173   4.763  50.147  1.00  0.00    -0.270 NA
HETATM   21  C1  UNL     1      20.571   5.906  50.206  1.00  0.00     0.149 C 
ENDBRANCH   1  20
BRANCH   1  22
HETATM   22  C3  UNL     1      23.256   5.296  51.513  1.00  0.00     0.048 C 
BRANCH  22  23
HETATM   23  P1  UNL     1      24.193   6.478  50.927  1.00  0.00    -0.045 P 
HETATM   24  C4  UNL     1      25.414   5.845  49.991  1.00  0.00     0.018 A 
HETATM   25  C5  UNL     1      25.909   6.627  48.833  1.00  0.00     0.043 A 
HETATM   26  C6  UNL     1      25.397   7.804  48.539  1.00  0.00     0.116 A 
HETATM   27  F1  UNL     1      25.977   8.368  47.446  1.00  0.00    -0.206 F 
HETATM   28  C7  UNL     1      24.342   8.566  49.180  1.00  0.00     0.043 A 
HETATM   29  C8  UNL     1      23.693   8.098  50.281  1.00  0.00     0.018 A 
ENDBRANCH  22  23
ENDBRANCH   1  22
TORSDOF 7
ENDMDL
