MODEL 1
REMARK VINA RESULT:      -7.8      0.000      0.000
REMARK  7 active torsions:
REMARK  status: ('A' for Active; 'I' for Inactive)
REMARK    1  A    between atoms: N1_1  and  C1_2 
REMARK    2  A    between atoms: C5_6  and  C6_7 
REMARK    3  A    between atoms: C7_9  and  N3_10 
REMARK    4  A    between atoms: N5_16  and  C12_17 
REMARK    5  A    between atoms: C12_17  and  C13_18 
REMARK    6  A    between atoms: C13_18  and  C14_19 
REMARK    7  A    between atoms: C14_19  and  C15_21 
ROOT
HETATM    1  C15 UNL     1      18.679   1.355  50.221  1.00  0.00     0.005 C 
HETATM    2  C16 UNL     1      18.059   2.236  50.968  1.00  0.00     0.215 C 
HETATM    3 CL2  UNL     1      17.124   3.469  51.788  1.00  0.00    -0.230 Cl
ENDROOT
BRANCH   1   4
HETATM    4  C14 UNL     1      19.718   0.437  50.776  1.00  0.00     0.107 C 
HETATM    5 CL1  UNL     1      19.446   0.167  52.509  1.00  0.00    -0.121 Cl
BRANCH   4   6
HETATM    6  C13 UNL     1      21.114   0.968  50.485  1.00  0.00     0.044 C 
BRANCH   6   7
HETATM    7  C12 UNL     1      21.597   1.579  51.774  1.00  0.00     0.132 C 
BRANCH   7   8
HETATM    8  N5  UNL     1      22.993   1.291  52.028  1.00  0.00    -0.340 N 
HETATM    9  C8  UNL     1      23.481   0.470  52.977  1.00  0.00     0.161 A 
HETATM   10  N4  UNL     1      22.903  -0.286  53.918  1.00  0.00    -0.044 NA
HETATM   11  C9  UNL     1      24.856   0.476  52.881  1.00  0.00     0.042 A 
HETATM   12  C7  UNL     1      23.666  -1.033  54.761  1.00  0.00     0.722 A 
HETATM   13  N2  UNL     1      25.006  -1.016  54.653  1.00  0.00    -0.062 NA
HETATM   14  C6  UNL     1      25.662  -0.270  53.718  1.00  0.00     0.100 A 
HETATM   15  C10 UNL     1      25.192   1.316  51.853  1.00  0.00     0.035 A 
HETATM   16  C11 UNL     1      24.029   1.818  51.329  1.00  0.00     0.093 A 
BRANCH  12  17
HETATM   17  N3  UNL     1      23.032  -1.822  55.748  1.00  0.00    -0.231 N 
HETATM   18  H6  UNL     1      22.659  -2.756  55.439  1.00  0.00     0.174 HD
HETATM   19  H7  UNL     1      22.846  -1.660  56.779  1.00  0.00     0.174 HD
ENDBRANCH  12  17
BRANCH  14  20
HETATM   20  C5  UNL     1      27.122  -0.302  53.662  1.00  0.00    -0.004 A 
HETATM   21  C4  UNL     1      27.965  -1.314  53.250  1.00  0.00     0.014 A 
HETATM   22  C3  UNL     1      29.314  -1.152  53.272  1.00  0.00     0.003 A 
HETATM   23  C2  UNL     1      29.878   0.033  53.706  1.00  0.00     0.029 A 
HETATM   24  C1  UNL     1      29.057   1.061  54.123  1.00  0.00     0.026 A 
HETATM   25  C17 UNL     1      27.685   0.889  54.099  1.00  0.00     0.042 A 
BRANCH  24  26
HETATM   26  N1  UNL     1      29.733   2.238  54.551  1.00  0.00    -0.399 N 
HETATM   27  H1  UNL     1      30.624   2.748  54.311  1.00  0.00     0.156 HD
HETATM   28  H2  UNL     1      29.350   2.852  55.299  1.00  0.00     0.156 HD
ENDBRANCH  24  26
ENDBRANCH  14  20
ENDBRANCH   7   8
ENDBRANCH   6   7
ENDBRANCH   4   6
ENDBRANCH   1   4
TORSDOF 7
ENDMDL
MODEL 2
REMARK VINA RESULT:      -7.7      3.619      4.398
REMARK  7 active torsions:
REMARK  status: ('A' for Active; 'I' for Inactive)
REMARK    1  A    between atoms: N1_1  and  C1_2 
REMARK    2  A    between atoms: C5_6  and  C6_7 
REMARK    3  A    between atoms: C7_9  and  N3_10 
REMARK    4  A    between atoms: N5_16  and  C12_17 
REMARK    5  A    between atoms: C12_17  and  C13_18 
REMARK    6  A    between atoms: C13_18  and  C14_19 
REMARK    7  A    between atoms: C14_19  and  C15_21 
ROOT
HETATM    1  C15 UNL     1      23.146   6.167  48.965  1.00  0.00     0.005 C 
HETATM    2  C16 UNL     1      24.044   6.847  48.294  1.00  0.00     0.215 C 
HETATM    3 CL2  UNL     1      25.159   7.670  47.223  1.00  0.00    -0.230 Cl
ENDROOT
BRANCH   1   4
HETATM    4  C14 UNL     1      23.059   6.224  50.454  1.00  0.00     0.107 C 
HETATM    5 CL1  UNL     1      24.592   6.794  51.145  1.00  0.00    -0.121 Cl
BRANCH   4   6
HETATM    6  C13 UNL     1      22.636   4.875  51.018  1.00  0.00     0.044 C 
BRANCH   6   7
HETATM    7  C12 UNL     1      23.181   3.844  50.065  1.00  0.00     0.132 C 
BRANCH   7   8
HETATM    8  N5  UNL     1      24.310   3.127  50.622  1.00  0.00    -0.340 N 
HETATM    9  C8  UNL     1      24.258   2.156  51.554  1.00  0.00     0.161 A 
HETATM   10  N4  UNL     1      23.252   1.579  52.220  1.00  0.00    -0.044 NA
HETATM   11  C9  UNL     1      25.548   1.738  51.806  1.00  0.00     0.042 A 
HETATM   12  C7  UNL     1      23.504   0.597  53.128  1.00  0.00     0.722 A 
HETATM   13  N2  UNL     1      24.768   0.201  53.362  1.00  0.00    -0.062 NA
HETATM   14  C6  UNL     1      25.841   0.746  52.719  1.00  0.00     0.100 A 
HETATM   15  C10 UNL     1      26.381   2.475  51.007  1.00  0.00     0.035 A 
HETATM   16  C11 UNL     1      25.604   3.334  50.275  1.00  0.00     0.093 A 
BRANCH  12  17
HETATM   17  N3  UNL     1      22.423   0.003  53.820  1.00  0.00    -0.231 N 
HETATM   18  H6  UNL     1      22.037   0.536  54.641  1.00  0.00     0.174 HD
HETATM   19  H7  UNL     1      21.900  -0.908  53.676  1.00  0.00     0.174 HD
ENDBRANCH  12  17
BRANCH  14  20
HETATM   20  C5  UNL     1      27.186   0.264  53.026  1.00  0.00    -0.004 A 
HETATM   21  C4  UNL     1      28.316   0.972  53.382  1.00  0.00     0.014 A 
HETATM   22  C3  UNL     1      29.491   0.336  53.631  1.00  0.00     0.003 A 
HETATM   23  C2  UNL     1      29.585  -1.040  53.536  1.00  0.00     0.029 A 
HETATM   24  C1  UNL     1      28.470  -1.772  53.182  1.00  0.00     0.026 A 
HETATM   25  C17 UNL     1      27.278  -1.118  52.929  1.00  0.00     0.042 A 
BRANCH  24  26
HETATM   26  N1  UNL     1      28.669  -3.179  53.111  1.00  0.00    -0.399 N 
HETATM   27  H1  UNL     1      28.888  -3.964  53.780  1.00  0.00     0.156 HD
HETATM   28  H2  UNL     1      28.610  -3.699  52.211  1.00  0.00     0.156 HD
ENDBRANCH  24  26
ENDBRANCH  14  20
ENDBRANCH   7   8
ENDBRANCH   6   7
ENDBRANCH   4   6
ENDBRANCH   1   4
TORSDOF 7
ENDMDL
MODEL 3
REMARK VINA RESULT:      -7.6      3.325      3.851
REMARK  7 active torsions:
REMARK  status: ('A' for Active; 'I' for Inactive)
REMARK    1  A    between atoms: N1_1  and  C1_2 
REMARK    2  A    between atoms: C5_6  and  C6_7 
REMARK    3  A    between atoms: C7_9  and  N3_10 
REMARK    4  A    between atoms: N5_16  and  C12_17 
REMARK    5  A    between atoms: C12_17  and  C13_18 
REMARK    6  A    between atoms: C13_18  and  C14_19 
REMARK    7  A    between atoms: C14_19  and  C15_21 
ROOT
HETATM    1  C15 UNL     1      22.135   4.094  46.366  1.00  0.00     0.005 C 
HETATM    2  C16 UNL     1      20.923   3.887  45.911  1.00  0.00     0.215 C 
HETATM    3 CL2  UNL     1      19.396   3.575  45.113  1.00  0.00    -0.230 Cl
ENDROOT
BRANCH   1   4
HETATM    4  C14 UNL     1      22.395   4.447  47.793  1.00  0.00     0.107 C 
HETATM    5 CL1  UNL     1      23.440   5.878  47.898  1.00  0.00    -0.121 Cl
BRANCH   4   6
HETATM    6  C13 UNL     1      22.969   3.254  48.545  1.00  0.00     0.044 C 
BRANCH   6   7
HETATM    7  C12 UNL     1      23.319   3.766  49.918  1.00  0.00     0.132 C 
BRANCH   7   8
HETATM    8  N5  UNL     1      24.432   3.048  50.502  1.00  0.00    -0.340 N 
HETATM    9  C8  UNL     1      24.360   2.100  51.457  1.00  0.00     0.161 A 
HETATM   10  N4  UNL     1      23.340   1.552  52.127  1.00  0.00    -0.044 NA
HETATM   11  C9  UNL     1      25.642   1.673  51.731  1.00  0.00     0.042 A 
HETATM   12  C7  UNL     1      23.571   0.590  53.060  1.00  0.00     0.722 A 
HETATM   13  N2  UNL     1      24.827   0.184  53.315  1.00  0.00    -0.062 NA
HETATM   14  C6  UNL     1      25.914   0.699  52.670  1.00  0.00     0.100 A 
HETATM   15  C10 UNL     1      26.492   2.379  50.922  1.00  0.00     0.035 A 
HETATM   16  C11 UNL     1      25.732   3.231  50.163  1.00  0.00     0.093 A 
BRANCH  12  17
HETATM   17  N3  UNL     1      22.476   0.027  53.755  1.00  0.00    -0.231 N 
HETATM   18  H6  UNL     1      22.052  -0.843  53.343  1.00  0.00     0.174 HD
HETATM   19  H7  UNL     1      21.973   0.313  54.644  1.00  0.00     0.174 HD
ENDBRANCH  12  17
BRANCH  14  20
HETATM   20  C5  UNL     1      27.250   0.208  53.002  1.00  0.00    -0.004 A 
HETATM   21  C4  UNL     1      28.380   0.909  53.370  1.00  0.00     0.014 A 
HETATM   22  C3  UNL     1      29.545   0.265  53.642  1.00  0.00     0.003 A 
HETATM   23  C2  UNL     1      29.629  -1.112  53.558  1.00  0.00     0.029 A 
HETATM   24  C1  UNL     1      28.513  -1.838  53.191  1.00  0.00     0.026 A 
HETATM   25  C17 UNL     1      27.331  -1.175  52.916  1.00  0.00     0.042 A 
BRANCH  24  26
HETATM   26  N1  UNL     1      28.701  -3.247  53.133  1.00  0.00    -0.399 N 
HETATM   27  H1  UNL     1      28.444  -4.035  52.481  1.00  0.00     0.156 HD
HETATM   28  H2  UNL     1      29.218  -3.765  53.873  1.00  0.00     0.156 HD
ENDBRANCH  24  26
ENDBRANCH  14  20
ENDBRANCH   7   8
ENDBRANCH   6   7
ENDBRANCH   4   6
ENDBRANCH   1   4
TORSDOF 7
ENDMDL
MODEL 4
REMARK VINA RESULT:      -7.6      2.293      3.632
REMARK  7 active torsions:
REMARK  status: ('A' for Active; 'I' for Inactive)
REMARK    1  A    between atoms: N1_1  and  C1_2 
REMARK    2  A    between atoms: C5_6  and  C6_7 
REMARK    3  A    between atoms: C7_9  and  N3_10 
REMARK    4  A    between atoms: N5_16  and  C12_17 
REMARK    5  A    between atoms: C12_17  and  C13_18 
REMARK    6  A    between atoms: C13_18  and  C14_19 
REMARK    7  A    between atoms: C14_19  and  C15_21 
ROOT
HETATM    1  C15 UNL     1      20.012   2.379  48.891  1.00  0.00     0.005 C 
HETATM    2  C16 UNL     1      21.182   2.347  48.299  1.00  0.00     0.215 C 
HETATM    3 CL2  UNL     1      22.660   2.434  47.364  1.00  0.00    -0.230 Cl
ENDROOT
BRANCH   1   4
HETATM    4  C14 UNL     1      19.738   1.619  50.146  1.00  0.00     0.107 C 
HETATM    5 CL1  UNL     1      19.138   2.707  51.413  1.00  0.00    -0.121 Cl
BRANCH   4   6
HETATM    6  C13 UNL     1      20.972   0.844  50.584  1.00  0.00     0.044 C 
BRANCH   6   7
HETATM    7  C12 UNL     1      21.408   1.470  51.883  1.00  0.00     0.132 C 
BRANCH   7   8
HETATM    8  N5  UNL     1      22.746   1.068  52.263  1.00  0.00    -0.340 N 
HETATM    9  C8  UNL     1      23.899   1.549  51.758  1.00  0.00     0.161 A 
HETATM   10  N4  UNL     1      24.177   2.468  50.828  1.00  0.00    -0.044 NA
HETATM   11  C9  UNL     1      24.942   0.903  52.388  1.00  0.00     0.042 A 
HETATM   12  C7  UNL     1      25.469   2.757  50.514  1.00  0.00     0.722 A 
HETATM   13  N2  UNL     1      26.475   2.118  51.138  1.00  0.00    -0.062 NA
HETATM   14  C6  UNL     1      26.264   1.170  52.096  1.00  0.00     0.100 A 
HETATM   15  C10 UNL     1      24.398   0.023  53.285  1.00  0.00     0.035 A 
HETATM   16  C11 UNL     1      23.034   0.132  53.200  1.00  0.00     0.093 A 
BRANCH  12  17
HETATM   17  N3  UNL     1      25.738   3.732  49.526  1.00  0.00    -0.231 N 
HETATM   18  H6  UNL     1      25.293   3.586  48.584  1.00  0.00     0.174 HD
HETATM   19  H7  UNL     1      26.321   4.618  49.539  1.00  0.00     0.174 HD
ENDBRANCH  12  17
BRANCH  14  20
HETATM   20  C5  UNL     1      27.408   0.519  52.731  1.00  0.00    -0.004 A 
HETATM   21  C4  UNL     1      28.474   1.074  53.410  1.00  0.00     0.014 A 
HETATM   22  C3  UNL     1      29.452   0.292  53.935  1.00  0.00     0.003 A 
HETATM   23  C2  UNL     1      29.406  -1.083  53.804  1.00  0.00     0.029 A 
HETATM   24  C1  UNL     1      28.351  -1.665  53.130  1.00  0.00     0.026 A 
HETATM   25  C17 UNL     1      27.359  -0.862  52.597  1.00  0.00     0.042 A 
BRANCH  24  26
HETATM   26  N1  UNL     1      28.395  -3.085  53.049  1.00  0.00    -0.399 N 
HETATM   27  H1  UNL     1      29.136  -3.834  53.005  1.00  0.00     0.156 HD
HETATM   28  H2  UNL     1      27.530  -3.662  53.018  1.00  0.00     0.156 HD
ENDBRANCH  24  26
ENDBRANCH  14  20
ENDBRANCH   7   8
ENDBRANCH   6   7
ENDBRANCH   4   6
ENDBRANCH   1   4
TORSDOF 7
ENDMDL
MODEL 5
REMARK VINA RESULT:      -7.3      3.341      4.503
REMARK  7 active torsions:
REMARK  status: ('A' for Active; 'I' for Inactive)
REMARK    1  A    between atoms: N1_1  and  C1_2 
REMARK    2  A    between atoms: C5_6  and  C6_7 
REMARK    3  A    between atoms: C7_9  and  N3_10 
REMARK    4  A    between atoms: N5_16  and  C12_17 
REMARK    5  A    between atoms: C12_17  and  C13_18 
REMARK    6  A    between atoms: C13_18  and  C14_19 
REMARK    7  A    between atoms: C14_19  and  C15_21 
ROOT
HETATM    1  C15 UNL     1      21.889   6.905  50.740  1.00  0.00     0.005 C 
HETATM    2  C16 UNL     1      21.554   7.988  50.081  1.00  0.00     0.215 C 
HETATM    3 CL2  UNL     1      21.234   9.539  49.335  1.00  0.00    -0.230 Cl
ENDROOT
BRANCH   1   4
HETATM    4  C14 UNL     1      21.355   5.559  50.376  1.00  0.00     0.107 C 
HETATM    5 CL1  UNL     1      19.725   5.702  49.689  1.00  0.00    -0.121 Cl
BRANCH   4   6
HETATM    6  C13 UNL     1      21.398   4.623  51.576  1.00  0.00     0.044 C 
BRANCH   6   7
HETATM    7  C12 UNL     1      21.634   3.247  51.012  1.00  0.00     0.132 C 
BRANCH   7   8
HETATM    8  N5  UNL     1      22.830   2.632  51.551  1.00  0.00    -0.340 N 
HETATM    9  C8  UNL     1      24.097   2.870  51.159  1.00  0.00     0.161 A 
HETATM   10  N4  UNL     1      24.633   3.673  50.233  1.00  0.00    -0.044 NA
HETATM   11  C9  UNL     1      24.934   2.084  51.922  1.00  0.00     0.042 A 
HETATM   12  C7  UNL     1      25.981   3.707  50.053  1.00  0.00     0.722 A 
HETATM   13  N2  UNL     1      26.783   2.934  50.806  1.00  0.00    -0.062 NA
HETATM   14  C6  UNL     1      26.305   2.094  51.769  1.00  0.00     0.100 A 
HETATM   15  C10 UNL     1      24.149   1.366  52.785  1.00  0.00     0.035 A 
HETATM   16  C11 UNL     1      22.844   1.713  52.547  1.00  0.00     0.093 A 
BRANCH  12  17
HETATM   17  N3  UNL     1      26.523   4.563  49.066  1.00  0.00    -0.231 N 
HETATM   18  H6  UNL     1      27.572   4.616  49.011  1.00  0.00     0.174 HD
HETATM   19  H7  UNL     1      26.071   5.190  48.341  1.00  0.00     0.174 HD
ENDBRANCH  12  17
BRANCH  14  20
HETATM   20  C5  UNL     1      27.239   1.283  52.548  1.00  0.00    -0.004 A 
HETATM   21  C4  UNL     1      27.363  -0.089  52.624  1.00  0.00     0.014 A 
HETATM   22  C3  UNL     1      28.306  -0.663  53.416  1.00  0.00     0.003 A 
HETATM   23  C2  UNL     1      29.168   0.115  54.167  1.00  0.00     0.029 A 
HETATM   24  C1  UNL     1      29.066   1.490  54.109  1.00  0.00     0.026 A 
HETATM   25  C17 UNL     1      28.103   2.066  53.301  1.00  0.00     0.042 A 
BRANCH  24  26
HETATM   26  N1  UNL     1      29.997   2.200  54.918  1.00  0.00    -0.399 N 
HETATM   27  H1  UNL     1      30.445   2.082  55.865  1.00  0.00     0.156 HD
HETATM   28  H2  UNL     1      30.429   3.094  54.606  1.00  0.00     0.156 HD
ENDBRANCH  24  26
ENDBRANCH  14  20
ENDBRANCH   7   8
ENDBRANCH   6   7
ENDBRANCH   4   6
ENDBRANCH   1   4
TORSDOF 7
ENDMDL
MODEL 6
REMARK VINA RESULT:      -7.3      1.979      3.052
REMARK  7 active torsions:
REMARK  status: ('A' for Active; 'I' for Inactive)
REMARK    1  A    between atoms: N1_1  and  C1_2 
REMARK    2  A    between atoms: C5_6  and  C6_7 
REMARK    3  A    between atoms: C7_9  and  N3_10 
REMARK    4  A    between atoms: N5_16  and  C12_17 
REMARK    5  A    between atoms: C12_17  and  C13_18 
REMARK    6  A    between atoms: C13_18  and  C14_19 
REMARK    7  A    between atoms: C14_19  and  C15_21 
ROOT
HETATM    1  C15 UNL     1      17.371   0.272  50.232  1.00  0.00     0.005 C 
HETATM    2  C16 UNL     1      16.638  -0.556  49.528  1.00  0.00     0.215 C 
HETATM    3 CL2  UNL     1      15.543  -1.493  48.532  1.00  0.00    -0.230 Cl
ENDROOT
BRANCH   1   4
HETATM    4  C14 UNL     1      18.543  -0.191  51.032  1.00  0.00     0.107 C 
HETATM    5 CL1  UNL     1      18.010  -0.847  52.592  1.00  0.00    -0.121 Cl
BRANCH   4   6
HETATM    6  C13 UNL     1      19.560   0.930  51.192  1.00  0.00     0.044 C 
BRANCH   6   7
HETATM    7  C12 UNL     1      19.977   0.901  52.638  1.00  0.00     0.132 C 
BRANCH   7   8
HETATM    8  N5  UNL     1      21.372   0.549  52.799  1.00  0.00    -0.340 N 
HETATM    9  C8  UNL     1      22.428   1.367  52.624  1.00  0.00     0.161 A 
HETATM   10  N4  UNL     1      22.541   2.654  52.276  1.00  0.00    -0.044 NA
HETATM   11  C9  UNL     1      23.575   0.644  52.875  1.00  0.00     0.042 A 
HETATM   12  C7  UNL     1      23.768   3.232  52.174  1.00  0.00     0.722 A 
HETATM   13  N2  UNL     1      24.877   2.512  52.423  1.00  0.00    -0.062 NA
HETATM   14  C6  UNL     1      24.836   1.196  52.783  1.00  0.00     0.100 A 
HETATM   15  C10 UNL     1      23.192  -0.629  53.208  1.00  0.00     0.035 A 
HETATM   16  C11 UNL     1      21.823  -0.678  53.157  1.00  0.00     0.093 A 
BRANCH  12  17
HETATM   17  N3  UNL     1      23.861   4.593  51.804  1.00  0.00    -0.231 N 
HETATM   18  H6  UNL     1      24.625   4.848  51.127  1.00  0.00     0.174 HD
HETATM   19  H7  UNL     1      23.296   5.447  52.081  1.00  0.00     0.174 HD
ENDBRANCH  12  17
BRANCH  14  20
HETATM   20  C5  UNL     1      26.083   0.479  53.037  1.00  0.00    -0.004 A 
HETATM   21  C4  UNL     1      26.503  -0.751  52.572  1.00  0.00     0.014 A 
HETATM   22  C3  UNL     1      27.713  -1.257  52.925  1.00  0.00     0.003 A 
HETATM   23  C2  UNL     1      28.558  -0.551  53.761  1.00  0.00     0.029 A 
HETATM   24  C1  UNL     1      28.163   0.682  54.240  1.00  0.00     0.026 A 
HETATM   25  C17 UNL     1      26.930   1.190  53.876  1.00  0.00     0.042 A 
BRANCH  24  26
HETATM   26  N1  UNL     1      29.102   1.328  55.092  1.00  0.00    -0.399 N 
HETATM   27  H1  UNL     1      29.956   1.937  54.981  1.00  0.00     0.156 HD
HETATM   28  H2  UNL     1      29.043   1.260  56.129  1.00  0.00     0.156 HD
ENDBRANCH  24  26
ENDBRANCH  14  20
ENDBRANCH   7   8
ENDBRANCH   6   7
ENDBRANCH   4   6
ENDBRANCH   1   4
TORSDOF 7
ENDMDL
MODEL 7
REMARK VINA RESULT:      -7.2      2.870      3.252
REMARK  7 active torsions:
REMARK  status: ('A' for Active; 'I' for Inactive)
REMARK    1  A    between atoms: N1_1  and  C1_2 
REMARK    2  A    between atoms: C5_6  and  C6_7 
REMARK    3  A    between atoms: C7_9  and  N3_10 
REMARK    4  A    between atoms: N5_16  and  C12_17 
REMARK    5  A    between atoms: C12_17  and  C13_18 
REMARK    6  A    between atoms: C13_18  and  C14_19 
REMARK    7  A    between atoms: C14_19  and  C15_21 
ROOT
HETATM    1  C15 UNL     1      21.907   4.696  47.076  1.00  0.00     0.005 C 
HETATM    2  C16 UNL     1      22.668   5.736  47.313  1.00  0.00     0.215 C 
HETATM    3 CL2  UNL     1      23.664   7.172  47.422  1.00  0.00    -0.230 Cl
ENDROOT
BRANCH   1   4
HETATM    4  C14 UNL     1      21.523   3.733  48.151  1.00  0.00     0.107 C 
HETATM    5 CL1  UNL     1      20.702   4.579  49.478  1.00  0.00    -0.121 Cl
BRANCH   4   6
HETATM    6  C13 UNL     1      22.738   2.950  48.628  1.00  0.00     0.044 C 
BRANCH   6   7
HETATM    7  C12 UNL     1      22.766   3.111  50.125  1.00  0.00     0.132 C 
BRANCH   7   8
HETATM    8  N5  UNL     1      23.966   2.551  50.713  1.00  0.00    -0.340 N 
HETATM    9  C8  UNL     1      24.023   1.550  51.613  1.00  0.00     0.161 A 
HETATM   10  N4  UNL     1      23.088   0.805  52.213  1.00  0.00    -0.044 NA
HETATM   11  C9  UNL     1      25.349   1.323  51.914  1.00  0.00     0.042 A 
HETATM   12  C7  UNL     1      23.448  -0.159  53.103  1.00  0.00     0.722 A 
HETATM   13  N2  UNL     1      24.746  -0.369  53.384  1.00  0.00    -0.062 NA
HETATM   14  C6  UNL     1      25.751   0.353  52.810  1.00  0.00     0.100 A 
HETATM   15  C10 UNL     1      26.094   2.204  51.176  1.00  0.00     0.035 A 
HETATM   16  C11 UNL     1      25.227   2.963  50.435  1.00  0.00     0.093 A 
BRANCH  12  17
HETATM   17  N3  UNL     1      22.441  -0.934  53.725  1.00  0.00    -0.231 N 
HETATM   18  H6  UNL     1      21.445  -0.644  53.549  1.00  0.00     0.174 HD
HETATM   19  H7  UNL     1      22.486  -1.782  54.360  1.00  0.00     0.174 HD
ENDBRANCH  12  17
BRANCH  14  20
HETATM   20  C5  UNL     1      27.139   0.068  53.166  1.00  0.00    -0.004 A 
HETATM   21  C4  UNL     1      27.874  -1.088  52.993  1.00  0.00     0.014 A 
HETATM   22  C3  UNL     1      29.169  -1.160  53.396  1.00  0.00     0.003 A 
HETATM   23  C2  UNL     1      29.788  -0.075  53.988  1.00  0.00     0.029 A 
HETATM   24  C1  UNL     1      29.076   1.093  54.173  1.00  0.00     0.026 A 
HETATM   25  C17 UNL     1      27.758   1.159  53.761  1.00  0.00     0.042 A 
BRANCH  24  26
HETATM   26  N1  UNL     1      29.801   2.150  54.791  1.00  0.00    -0.399 N 
HETATM   27  H1  UNL     1      29.623   3.154  55.064  1.00  0.00     0.156 HD
HETATM   28  H2  UNL     1      30.785   2.031  55.109  1.00  0.00     0.156 HD
ENDBRANCH  24  26
ENDBRANCH  14  20
ENDBRANCH   7   8
ENDBRANCH   6   7
ENDBRANCH   4   6
ENDBRANCH   1   4
TORSDOF 7
ENDMDL
MODEL 8
REMARK VINA RESULT:      -6.7      3.742      8.713
REMARK  7 active torsions:
REMARK  status: ('A' for Active; 'I' for Inactive)
REMARK    1  A    between atoms: N1_1  and  C1_2 
REMARK    2  A    between atoms: C5_6  and  C6_7 
REMARK    3  A    between atoms: C7_9  and  N3_10 
REMARK    4  A    between atoms: N5_16  and  C12_17 
REMARK    5  A    between atoms: C12_17  and  C13_18 
REMARK    6  A    between atoms: C13_18  and  C14_19 
REMARK    7  A    between atoms: C14_19  and  C15_21 
ROOT
HETATM    1  C15 UNL     1      27.928   1.413  53.365  1.00  0.00     0.005 C 
HETATM    2  C16 UNL     1      28.825   0.464  53.482  1.00  0.00     0.215 C 
HETATM    3 CL2  UNL     1      30.165  -0.660  53.574  1.00  0.00    -0.230 Cl
ENDROOT
BRANCH   1   4
HETATM    4  C14 UNL     1      26.486   1.183  53.673  1.00  0.00     0.107 C 
HETATM    5 CL1  UNL     1      26.314   0.205  55.145  1.00  0.00    -0.121 Cl
BRANCH   4   6
HETATM    6  C13 UNL     1      25.774   0.562  52.480  1.00  0.00     0.044 C 
BRANCH   6   7
HETATM    7  C12 UNL     1      24.747   1.574  52.045  1.00  0.00     0.132 C 
BRANCH   7   8
HETATM    8  N5  UNL     1      23.394   1.083  52.203  1.00  0.00    -0.340 N 
HETATM    9  C8  UNL     1      22.406   1.153  51.290  1.00  0.00     0.161 A 
HETATM   10  N4  UNL     1      22.341   1.648  50.049  1.00  0.00    -0.044 NA
HETATM   11  C9  UNL     1      21.280   0.572  51.834  1.00  0.00     0.042 A 
HETATM   12  C7  UNL     1      21.180   1.577  49.343  1.00  0.00     0.722 A 
HETATM   13  N2  UNL     1      20.091   1.007  49.888  1.00  0.00    -0.062 NA
HETATM   14  C6  UNL     1      20.087   0.482  51.148  1.00  0.00     0.100 A 
HETATM   15  C10 UNL     1      21.606   0.149  53.095  1.00  0.00     0.035 A 
HETATM   16  C11 UNL     1      22.920   0.471  53.316  1.00  0.00     0.093 A 
BRANCH  12  17
HETATM   17  N3  UNL     1      21.136   2.109  48.033  1.00  0.00    -0.231 N 
HETATM   18  H6  UNL     1      21.527   1.506  47.265  1.00  0.00     0.174 HD
HETATM   19  H7  UNL     1      20.775   3.030  47.650  1.00  0.00     0.174 HD
ENDBRANCH  12  17
BRANCH  14  20
HETATM   20  C5  UNL     1      18.864  -0.121  51.674  1.00  0.00    -0.004 A 
HETATM   21  C4  UNL     1      18.635  -0.731  52.891  1.00  0.00     0.014 A 
HETATM   22  C3  UNL     1      17.413  -1.238  53.200  1.00  0.00     0.003 A 
HETATM   23  C2  UNL     1      16.364  -1.155  52.303  1.00  0.00     0.029 A 
HETATM   24  C1  UNL     1      16.566  -0.551  51.078  1.00  0.00     0.026 A 
HETATM   25  C17 UNL     1      17.813  -0.038  50.770  1.00  0.00     0.042 A 
BRANCH  24  26
HETATM   26  N1  UNL     1      15.427  -0.517  50.226  1.00  0.00    -0.399 N 
HETATM   27  H1  UNL     1      14.749  -1.211  49.813  1.00  0.00     0.156 HD
HETATM   28  H2  UNL     1      15.058   0.374  49.835  1.00  0.00     0.156 HD
ENDBRANCH  24  26
ENDBRANCH  14  20
ENDBRANCH   7   8
ENDBRANCH   6   7
ENDBRANCH   4   6
ENDBRANCH   1   4
TORSDOF 7
ENDMDL
MODEL 9
REMARK VINA RESULT:      -6.5      7.974      9.738
REMARK  7 active torsions:
REMARK  status: ('A' for Active; 'I' for Inactive)
REMARK    1  A    between atoms: N1_1  and  C1_2 
REMARK    2  A    between atoms: C5_6  and  C6_7 
REMARK    3  A    between atoms: C7_9  and  N3_10 
REMARK    4  A    between atoms: N5_16  and  C12_17 
REMARK    5  A    between atoms: C12_17  and  C13_18 
REMARK    6  A    between atoms: C13_18  and  C14_19 
REMARK    7  A    between atoms: C14_19  and  C15_21 
ROOT
HETATM    1  C15 UNL     1      24.259   6.972  50.601  1.00  0.00     0.005 C 
HETATM    2  C16 UNL     1      23.853   5.997  51.378  1.00  0.00     0.215 C 
HETATM    3 CL2  UNL     1      23.400   4.804  52.576  1.00  0.00    -0.230 Cl
ENDROOT
BRANCH   1   4
HETATM    4  C14 UNL     1      23.999   6.973  49.131  1.00  0.00     0.107 C 
HETATM    5 CL1  UNL     1      22.762   5.770  48.717  1.00  0.00    -0.121 Cl
BRANCH   4   6
HETATM    6  C13 UNL     1      25.293   6.763  48.357  1.00  0.00     0.044 C 
BRANCH   6   7
HETATM    7  C12 UNL     1      26.378   7.380  49.200  1.00  0.00     0.132 C 
BRANCH   7   8
HETATM    8  N5  UNL     1      27.700   6.958  48.786  1.00  0.00    -0.340 N 
HETATM    9  C8  UNL     1      28.823   7.701  48.816  1.00  0.00     0.161 A 
HETATM   10  N4  UNL     1      29.079   8.957  49.200  1.00  0.00    -0.044 NA
HETATM   11  C9  UNL     1      29.859   6.928  48.338  1.00  0.00     0.042 A 
HETATM   12  C7  UNL     1      30.342   9.455  49.117  1.00  0.00     0.722 A 
HETATM   13  N2  UNL     1      31.342   8.687  48.649  1.00  0.00    -0.062 NA
HETATM   14  C6  UNL     1      31.153   7.399  48.241  1.00  0.00     0.100 A 
HETATM   15  C10 UNL     1      29.342   5.701  48.018  1.00  0.00     0.035 A 
HETATM   16  C11 UNL     1      28.001   5.729  48.299  1.00  0.00     0.093 A 
BRANCH  12  17
HETATM   17  N3  UNL     1      30.587  10.786  49.528  1.00  0.00    -0.231 N 
HETATM   18  H6  UNL     1      31.370  11.294  49.043  1.00  0.00     0.174 HD
HETATM   19  H7  UNL     1      30.125  11.402  50.257  1.00  0.00     0.174 HD
ENDBRANCH  12  17
BRANCH  14  20
HETATM   20  C5  UNL     1      32.288   6.626  47.742  1.00  0.00    -0.004 A 
HETATM   21  C4  UNL     1      32.628   6.295  46.446  1.00  0.00     0.014 A 
HETATM   22  C3  UNL     1      33.738   5.559  46.180  1.00  0.00     0.003 A 
HETATM   23  C2  UNL     1      34.559   5.121  47.203  1.00  0.00     0.029 A 
HETATM   24  C1  UNL     1      34.242   5.438  48.509  1.00  0.00     0.026 A 
HETATM   25  C17 UNL     1      33.110   6.188  48.771  1.00  0.00     0.042 A 
BRANCH  24  26
HETATM   26  N1  UNL     1      35.148   4.941  49.487  1.00  0.00    -0.399 N 
HETATM   27  H1  UNL     1      35.123   4.252  50.286  1.00  0.00     0.156 HD
HETATM   28  H2  UNL     1      36.136   5.265  49.538  1.00  0.00     0.156 HD
ENDBRANCH  24  26
ENDBRANCH  14  20
ENDBRANCH   7   8
ENDBRANCH   6   7
ENDBRANCH   4   6
ENDBRANCH   1   4
TORSDOF 7
ENDMDL
