MODEL 1
REMARK VINA RESULT:      -8.3      0.000      0.000
REMARK  4 active torsions:
REMARK  status: ('A' for Active; 'I' for Inactive)
REMARK    1  A    between atoms: O1_2  and  C2_3 
REMARK    2  A    between atoms: C2_3  and  C3_4 
REMARK    3  A    between atoms: C7_10  and  N2_11 
REMARK    4  A    between atoms: N2_11  and  C8_12 
ROOT
HETATM    1  C3  UNL     1      20.992   1.054  51.688  1.00  0.00     0.206 C 
HETATM    2  O2  UNL     1      21.777   1.321  50.607  1.00  0.00    -0.362 OA
HETATM    3  C4  UNL     1      23.013   1.832  50.814  1.00  0.00     0.200 C 
HETATM    4  C5  UNL     1      23.120   3.299  50.907  1.00  0.00     0.120 C 
HETATM    5  N1  UNL     1      24.336   3.690  51.151  1.00  0.00    -0.297 NA
HETATM    6  C6  UNL     1      25.402   2.707  51.298  1.00  0.00     0.205 C 
HETATM    7  C7  UNL     1      24.915   1.704  52.304  1.00  0.00     0.041 C 
HETATM    8  C14 UNL     1      23.692   1.278  52.027  1.00  0.00     0.036 C 
HETATM    9  C15 UNL     1      22.941   0.307  52.804  1.00  0.00     0.112 C 
HETATM   10  C16 UNL     1      21.623   0.152  52.682  1.00  0.00     0.111 C 
HETATM   11  O3  UNL     1      21.053  -0.804  53.482  1.00  0.00    -0.348 OA
HETATM   12  C17 UNL     1      21.593  -1.231  54.720  1.00  0.00     0.202 C 
HETATM   13  C18 UNL     1      23.080  -1.131  54.797  1.00  0.00     0.202 C 
HETATM   14  O4  UNL     1      23.686  -0.475  53.707  1.00  0.00    -0.346 OA
ENDROOT
BRANCH   7  15
HETATM   15  N2  UNL     1      25.549   1.159  53.471  1.00  0.00    -0.358 N 
HETATM   16  H11 UNL     1      25.018   1.048  54.378  1.00  0.00     0.166 HD
BRANCH  15  17
HETATM   17  C8  UNL     1      26.914   0.716  53.558  1.00  0.00     0.034 A 
HETATM   18  C9  UNL     1      27.994   1.534  53.869  1.00  0.00     0.032 A 
HETATM   19  C10 UNL     1      29.248   0.977  53.918  1.00  0.00     0.046 A 
HETATM   20  C11 UNL     1      29.517  -0.345  53.677  1.00  0.00     0.138 A 
HETATM   21  F1  UNL     1      30.773  -0.832  53.739  1.00  0.00    -0.204 F 
HETATM   22  C12 UNL     1      28.445  -1.166  53.364  1.00  0.00     0.074 A 
HETATM   23 CL1  UNL     1      28.805  -2.845  53.062  1.00  0.00    -0.081 Cl
HETATM   24  C13 UNL     1      27.178  -0.617  53.313  1.00  0.00     0.056 A 
ENDBRANCH  15  17
ENDBRANCH   7  15
BRANCH   1  25
HETATM   25  C2  UNL     1      19.747   0.321  51.168  1.00  0.00     0.205 C 
BRANCH  25  26
HETATM   26  O1  UNL     1      18.627   0.696  51.933  1.00  0.00    -0.393 OA
HETATM   27  C1  UNL     1      17.823  -0.400  52.234  1.00  0.00     0.201 C 
ENDBRANCH  25  26
ENDBRANCH   1  25
TORSDOF 4
ENDMDL
MODEL 2
REMARK VINA RESULT:      -8.1      1.927      3.719
REMARK  4 active torsions:
REMARK  status: ('A' for Active; 'I' for Inactive)
REMARK    1  A    between atoms: O1_2  and  C2_3 
REMARK    2  A    between atoms: C2_3  and  C3_4 
REMARK    3  A    between atoms: C7_10  and  N2_11 
REMARK    4  A    between atoms: N2_11  and  C8_12 
ROOT
HETATM    1  C3  UNL     1      19.367  -0.192  52.162  1.00  0.00     0.206 C 
HETATM    2  O2  UNL     1      19.574  -0.022  53.498  1.00  0.00    -0.362 OA
HETATM    3  C4  UNL     1      20.804  -0.276  54.001  1.00  0.00     0.200 C 
HETATM    4  C5  UNL     1      21.081  -1.663  54.415  1.00  0.00     0.120 C 
HETATM    5  N1  UNL     1      22.300  -1.816  54.842  1.00  0.00    -0.297 NA
HETATM    6  C6  UNL     1      23.211  -0.678  54.868  1.00  0.00     0.205 C 
HETATM    7  C7  UNL     1      23.161  -0.066  53.498  1.00  0.00     0.041 C 
HETATM    8  C14 UNL     1      21.918   0.126  53.085  1.00  0.00     0.036 C 
HETATM    9  C15 UNL     1      21.531   0.699  51.807  1.00  0.00     0.112 C 
HETATM   10  C16 UNL     1      20.302   0.578  51.306  1.00  0.00     0.111 C 
HETATM   11  O3  UNL     1      20.088   1.173  50.090  1.00  0.00    -0.348 OA
HETATM   12  C17 UNL     1      21.102   1.417  49.133  1.00  0.00     0.202 C 
HETATM   13  C18 UNL     1      22.453   1.638  49.728  1.00  0.00     0.202 C 
HETATM   14  O4  UNL     1      22.535   1.402  51.115  1.00  0.00    -0.346 OA
ENDROOT
BRANCH   7  15
HETATM   15  N2  UNL     1      24.214   0.326  52.604  1.00  0.00    -0.358 N 
HETATM   16  H11 UNL     1      24.001   0.806  51.686  1.00  0.00     0.166 HD
BRANCH  15  17
HETATM   17  C8  UNL     1      25.621   0.130  52.824  1.00  0.00     0.034 A 
HETATM   18  C9  UNL     1      26.271  -1.096  52.748  1.00  0.00     0.032 A 
HETATM   19  C10 UNL     1      27.624  -1.139  52.982  1.00  0.00     0.046 A 
HETATM   20  C11 UNL     1      28.390  -0.046  53.292  1.00  0.00     0.138 A 
HETATM   21  F1  UNL     1      29.716  -0.153  53.512  1.00  0.00    -0.204 F 
HETATM   22  C12 UNL     1      27.748   1.180  53.371  1.00  0.00     0.074 A 
HETATM   23 CL1  UNL     1      28.737   2.560  53.765  1.00  0.00    -0.081 Cl
HETATM   24  C13 UNL     1      26.387   1.235  53.136  1.00  0.00     0.056 A 
ENDBRANCH  15  17
ENDBRANCH   7  15
BRANCH   1  25
HETATM   25  C2  UNL     1      17.961   0.340  51.853  1.00  0.00     0.205 C 
BRANCH  25  26
HETATM   26  O1  UNL     1      17.209  -0.660  51.212  1.00  0.00    -0.393 OA
HETATM   27  C1  UNL     1      16.816  -0.267  49.935  1.00  0.00     0.201 C 
ENDBRANCH  25  26
ENDBRANCH   1  25
TORSDOF 4
ENDMDL
MODEL 3
REMARK VINA RESULT:      -7.9      2.148      3.737
REMARK  4 active torsions:
REMARK  status: ('A' for Active; 'I' for Inactive)
REMARK    1  A    between atoms: O1_2  and  C2_3 
REMARK    2  A    between atoms: C2_3  and  C3_4 
REMARK    3  A    between atoms: C7_10  and  N2_11 
REMARK    4  A    between atoms: N2_11  and  C8_12 
ROOT
HETATM    1  C3  UNL     1      20.517   2.459  51.755  1.00  0.00     0.206 C 
HETATM    2  O2  UNL     1      20.584   2.011  53.040  1.00  0.00    -0.362 OA
HETATM    3  C4  UNL     1      21.511   1.077  53.353  1.00  0.00     0.200 C 
HETATM    4  C5  UNL     1      21.123  -0.333  53.174  1.00  0.00     0.120 C 
HETATM    5  N1  UNL     1      22.093  -1.152  53.458  1.00  0.00    -0.297 NA
HETATM    6  C6  UNL     1      23.381  -0.630  53.896  1.00  0.00     0.205 C 
HETATM    7  C7  UNL     1      23.786   0.402  52.882  1.00  0.00     0.041 C 
HETATM    8  C14 UNL     1      22.808   1.258  52.628  1.00  0.00     0.036 C 
HETATM    9  C15 UNL     1      22.881   2.371  51.697  1.00  0.00     0.112 C 
HETATM   10  C16 UNL     1      21.798   2.996  51.237  1.00  0.00     0.111 C 
HETATM   11  O3  UNL     1      22.026   4.029  50.365  1.00  0.00    -0.348 OA
HETATM   12  C17 UNL     1      23.174   4.139  49.543  1.00  0.00     0.202 C 
HETATM   13  C18 UNL     1      24.395   3.507  50.124  1.00  0.00     0.202 C 
HETATM   14  O4  UNL     1      24.174   2.762  51.301  1.00  0.00    -0.346 OA
ENDROOT
BRANCH   7  15
HETATM   15  N2  UNL     1      25.022   0.593  52.176  1.00  0.00    -0.358 N 
HETATM   16  H11 UNL     1      25.043   1.066  51.231  1.00  0.00     0.166 HD
BRANCH  15  17
HETATM   17  C8  UNL     1      26.323   0.189  52.635  1.00  0.00     0.034 A 
HETATM   18  C9  UNL     1      26.818  -1.109  52.573  1.00  0.00     0.032 A 
HETATM   19  C10 UNL     1      28.082  -1.354  53.048  1.00  0.00     0.046 A 
HETATM   20  C11 UNL     1      28.904  -0.399  53.588  1.00  0.00     0.138 A 
HETATM   21  F1  UNL     1      30.138  -0.704  54.040  1.00  0.00    -0.204 F 
HETATM   22  C12 UNL     1      28.417   0.897  53.655  1.00  0.00     0.074 A 
HETATM   23 CL1  UNL     1      29.475   2.099  54.343  1.00  0.00    -0.081 Cl
HETATM   24  C13 UNL     1      27.146   1.156  53.178  1.00  0.00     0.056 A 
ENDBRANCH  15  17
ENDBRANCH   7  15
BRANCH   1  25
HETATM   25  C2  UNL     1      19.519   3.626  51.736  1.00  0.00     0.205 C 
BRANCH  25  26
HETATM   26  O1  UNL     1      18.215   3.134  51.926  1.00  0.00    -0.393 OA
HETATM   27  C1  UNL     1      17.334   3.639  50.973  1.00  0.00     0.201 C 
ENDBRANCH  25  26
ENDBRANCH   1  25
TORSDOF 4
ENDMDL
MODEL 4
REMARK VINA RESULT:      -7.9      4.186      7.832
REMARK  4 active torsions:
REMARK  status: ('A' for Active; 'I' for Inactive)
REMARK    1  A    between atoms: O1_2  and  C2_3 
REMARK    2  A    between atoms: C2_3  and  C3_4 
REMARK    3  A    between atoms: C7_10  and  N2_11 
REMARK    4  A    between atoms: N2_11  and  C8_12 
ROOT
HETATM    1  C3  UNL     1      26.464   0.114  53.640  1.00  0.00     0.206 C 
HETATM    2  O2  UNL     1      25.940  -1.135  53.785  1.00  0.00    -0.362 OA
HETATM    3  C4  UNL     1      24.628  -1.255  54.092  1.00  0.00     0.200 C 
HETATM    4  C5  UNL     1      24.273  -1.241  55.523  1.00  0.00     0.120 C 
HETATM    5  N1  UNL     1      22.990  -1.317  55.714  1.00  0.00    -0.297 NA
HETATM    6  C6  UNL     1      22.087  -1.404  54.573  1.00  0.00     0.205 C 
HETATM    7  C7  UNL     1      22.458  -0.276  53.654  1.00  0.00     0.041 C 
HETATM    8  C14 UNL     1      23.763  -0.229  53.429  1.00  0.00     0.036 C 
HETATM    9  C15 UNL     1      24.440   0.742  52.586  1.00  0.00     0.112 C 
HETATM   10  C16 UNL     1      25.754   0.953  52.644  1.00  0.00     0.111 C 
HETATM   11  O3  UNL     1      26.249   1.900  51.785  1.00  0.00    -0.348 OA
HETATM   12  C17 UNL     1      25.493   2.981  51.270  1.00  0.00     0.202 C 
HETATM   13  C18 UNL     1      24.036   2.686  51.133  1.00  0.00     0.202 C 
HETATM   14  O4  UNL     1      23.625   1.459  51.690  1.00  0.00    -0.346 OA
ENDROOT
BRANCH   7  15
HETATM   15  N2  UNL     1      21.648   0.717  53.008  1.00  0.00    -0.358 N 
HETATM   16  H11 UNL     1      21.906   1.742  53.046  1.00  0.00     0.166 HD
BRANCH  15  17
HETATM   17  C8  UNL     1      20.444   0.466  52.263  1.00  0.00     0.034 A 
HETATM   18  C9  UNL     1      20.209   0.903  50.965  1.00  0.00     0.032 A 
HETATM   19  C10 UNL     1      19.011   0.590  50.372  1.00  0.00     0.046 A 
HETATM   20  C11 UNL     1      18.014  -0.130  50.976  1.00  0.00     0.138 A 
HETATM   21  F1  UNL     1      16.857  -0.404  50.341  1.00  0.00    -0.204 F 
HETATM   22  C12 UNL     1      18.240  -0.568  52.272  1.00  0.00     0.074 A 
HETATM   23 CL1  UNL     1      16.963  -1.483  53.026  1.00  0.00    -0.081 Cl
HETATM   24  C13 UNL     1      19.444  -0.260  52.878  1.00  0.00     0.056 A 
ENDBRANCH  15  17
ENDBRANCH   7  15
BRANCH   1  25
HETATM   25  C2  UNL     1      27.897  -0.058  53.119  1.00  0.00     0.205 C 
BRANCH  25  26
HETATM   26  O1  UNL     1      28.439  -1.256  53.616  1.00  0.00    -0.393 OA
HETATM   27  C1  UNL     1      29.818  -1.162  53.791  1.00  0.00     0.201 C 
ENDBRANCH  25  26
ENDBRANCH   1  25
TORSDOF 4
ENDMDL
MODEL 5
REMARK VINA RESULT:      -7.5      3.728      5.636
REMARK  4 active torsions:
REMARK  status: ('A' for Active; 'I' for Inactive)
REMARK    1  A    between atoms: O1_2  and  C2_3 
REMARK    2  A    between atoms: C2_3  and  C3_4 
REMARK    3  A    between atoms: C7_10  and  N2_11 
REMARK    4  A    between atoms: N2_11  and  C8_12 
ROOT
HETATM    1  C3  UNL     1      22.624   0.318  52.386  1.00  0.00     0.206 C 
HETATM    2  O2  UNL     1      23.405   0.958  53.299  1.00  0.00    -0.362 OA
HETATM    3  C4  UNL     1      24.598   1.453  52.897  1.00  0.00     0.200 C 
HETATM    4  C5  UNL     1      25.754   0.540  52.959  1.00  0.00     0.120 C 
HETATM    5  N1  UNL     1      26.843   1.091  52.512  1.00  0.00    -0.297 NA
HETATM    6  C6  UNL     1      26.817   2.465  52.026  1.00  0.00     0.205 C 
HETATM    7  C7  UNL     1      25.693   2.541  51.033  1.00  0.00     0.041 C 
HETATM    8  C14 UNL     1      24.575   2.015  51.510  1.00  0.00     0.036 C 
HETATM    9  C15 UNL     1      23.310   1.935  50.800  1.00  0.00     0.112 C 
HETATM   10  C16 UNL     1      22.321   1.126  51.180  1.00  0.00     0.111 C 
HETATM   11  O3  UNL     1      21.187   1.160  50.410  1.00  0.00    -0.348 OA
HETATM   12  C17 UNL     1      21.163   1.533  49.044  1.00  0.00     0.202 C 
HETATM   13  C18 UNL     1      22.227   2.509  48.666  1.00  0.00     0.202 C 
HETATM   14  O4  UNL     1      23.178   2.768  49.673  1.00  0.00    -0.346 OA
ENDROOT
BRANCH   7  15
HETATM   15  N2  UNL     1      25.648   3.075  49.701  1.00  0.00    -0.358 N 
HETATM   16  H11 UNL     1      25.219   2.524  48.907  1.00  0.00     0.166 HD
BRANCH  15  17
HETATM   17  C8  UNL     1      26.151   4.358  49.292  1.00  0.00     0.034 A 
HETATM   18  C9  UNL     1      25.417   5.538  49.306  1.00  0.00     0.032 A 
HETATM   19  C10 UNL     1      26.025   6.696  48.888  1.00  0.00     0.046 A 
HETATM   20  C11 UNL     1      27.321   6.774  48.449  1.00  0.00     0.138 A 
HETATM   21  F1  UNL     1      27.862   7.942  48.049  1.00  0.00    -0.204 F 
HETATM   22  C12 UNL     1      28.059   5.600  48.431  1.00  0.00     0.074 A 
HETATM   23 CL1  UNL     1      29.705   5.717  47.871  1.00  0.00    -0.081 Cl
HETATM   24  C13 UNL     1      27.457   4.429  48.851  1.00  0.00     0.056 A 
ENDBRANCH  15  17
ENDBRANCH   7  15
BRANCH   1  25
HETATM   25  C2  UNL     1      21.276   0.035  53.066  1.00  0.00     0.205 C 
BRANCH  25  26
HETATM   26  O1  UNL     1      21.489  -0.280  54.420  1.00  0.00    -0.393 OA
HETATM   27  C1  UNL     1      21.578  -1.656  54.618  1.00  0.00     0.201 C 
ENDBRANCH  25  26
ENDBRANCH   1  25
TORSDOF 4
ENDMDL
MODEL 6
REMARK VINA RESULT:      -7.5      3.252      5.257
REMARK  4 active torsions:
REMARK  status: ('A' for Active; 'I' for Inactive)
REMARK    1  A    between atoms: O1_2  and  C2_3 
REMARK    2  A    between atoms: C2_3  and  C3_4 
REMARK    3  A    between atoms: C7_10  and  N2_11 
REMARK    4  A    between atoms: N2_11  and  C8_12 
ROOT
HETATM    1  C3  UNL     1      22.712   5.908  50.632  1.00  0.00     0.206 C 
HETATM    2  O2  UNL     1      22.393   5.527  51.900  1.00  0.00    -0.362 OA
HETATM    3  C4  UNL     1      22.611   4.242  52.264  1.00  0.00     0.200 C 
HETATM    4  C5  UNL     1      21.526   3.281  51.998  1.00  0.00     0.120 C 
HETATM    5  N1  UNL     1      21.846   2.068  52.341  1.00  0.00    -0.297 NA
HETATM    6  C6  UNL     1      23.157   1.796  52.916  1.00  0.00     0.205 C 
HETATM    7  C7  UNL     1      24.163   2.406  51.983  1.00  0.00     0.041 C 
HETATM    8  C14 UNL     1      23.854   3.656  51.670  1.00  0.00     0.036 C 
HETATM    9  C15 UNL     1      24.623   4.521  50.792  1.00  0.00     0.112 C 
HETATM   10  C16 UNL     1      24.120   5.632  50.256  1.00  0.00     0.111 C 
HETATM   11  O3  UNL     1      24.966   6.346  49.447  1.00  0.00    -0.348 OA
HETATM   12  C17 UNL     1      26.056   5.782  48.741  1.00  0.00     0.202 C 
HETATM   13  C18 UNL     1      26.658   4.591  49.410  1.00  0.00     0.202 C 
HETATM   14  O4  UNL     1      25.947   4.120  50.532  1.00  0.00    -0.346 OA
ENDROOT
BRANCH   7  15
HETATM   15  N2  UNL     1      25.359   1.865  51.403  1.00  0.00    -0.358 N 
HETATM   16  H11 UNL     1      25.573   1.990  50.375  1.00  0.00     0.166 HD
BRANCH  15  17
HETATM   17  C8  UNL     1      26.370   1.120  52.103  1.00  0.00     0.034 A 
HETATM   18  C9  UNL     1      26.469  -0.266  52.114  1.00  0.00     0.032 A 
HETATM   19  C10 UNL     1      27.488  -0.847  52.827  1.00  0.00     0.046 A 
HETATM   20  C11 UNL     1      28.429  -0.151  53.540  1.00  0.00     0.138 A 
HETATM   21  F1  UNL     1      29.407  -0.780  54.222  1.00  0.00    -0.204 F 
HETATM   22  C12 UNL     1      28.335   1.233  53.535  1.00  0.00     0.074 A 
HETATM   23 CL1  UNL     1      29.539   2.103  54.447  1.00  0.00    -0.081 Cl
HETATM   24  C13 UNL     1      27.314   1.829  52.820  1.00  0.00     0.056 A 
ENDBRANCH  15  17
ENDBRANCH   7  15
BRANCH   1  25
HETATM   25  C2  UNL     1      22.536   7.432  50.563  1.00  0.00     0.205 C 
BRANCH  25  26
HETATM   26  O1  UNL     1      21.742   7.766  49.452  1.00  0.00    -0.393 OA
HETATM   27  C1  UNL     1      20.384   7.664  49.744  1.00  0.00     0.201 C 
ENDBRANCH  25  26
ENDBRANCH   1  25
TORSDOF 4
ENDMDL
MODEL 7
REMARK VINA RESULT:      -7.3      3.965      5.650
REMARK  4 active torsions:
REMARK  status: ('A' for Active; 'I' for Inactive)
REMARK    1  A    between atoms: O1_2  and  C2_3 
REMARK    2  A    between atoms: C2_3  and  C3_4 
REMARK    3  A    between atoms: C7_10  and  N2_11 
REMARK    4  A    between atoms: N2_11  and  C8_12 
ROOT
HETATM    1  C3  UNL     1      23.032   0.660  53.005  1.00  0.00     0.206 C 
HETATM    2  O2  UNL     1      22.391   0.521  51.810  1.00  0.00    -0.362 OA
HETATM    3  C4  UNL     1      22.572   1.471  50.865  1.00  0.00     0.200 C 
HETATM    4  C5  UNL     1      21.664   2.631  50.902  1.00  0.00     0.120 C 
HETATM    5  N1  UNL     1      21.945   3.508  49.984  1.00  0.00    -0.297 NA
HETATM    6  C6  UNL     1      23.054   3.274  49.069  1.00  0.00     0.205 C 
HETATM    7  C7  UNL     1      24.245   2.945  49.923  1.00  0.00     0.041 C 
HETATM    8  C14 UNL     1      23.964   2.021  50.830  1.00  0.00     0.036 C 
HETATM    9  C15 UNL     1      24.897   1.485  51.806  1.00  0.00     0.112 C 
HETATM   10  C16 UNL     1      24.502   0.813  52.886  1.00  0.00     0.111 C 
HETATM   11  O3  UNL     1      25.498   0.369  53.716  1.00  0.00    -0.348 OA
HETATM   12  C17 UNL     1      26.774   0.973  53.823  1.00  0.00     0.202 C 
HETATM   13  C18 UNL     1      27.232   1.644  52.570  1.00  0.00     0.202 C 
HETATM   14  O4  UNL     1      26.262   1.715  51.549  1.00  0.00    -0.346 OA
ENDROOT
BRANCH   7  15
HETATM   15  N2  UNL     1      25.585   3.458  49.907  1.00  0.00    -0.358 N 
HETATM   16  H11 UNL     1      26.414   2.827  50.085  1.00  0.00     0.166 HD
BRANCH  15  17
HETATM   17  C8  UNL     1      25.960   4.825  49.661  1.00  0.00     0.034 A 
HETATM   18  C9  UNL     1      25.298   5.933  50.177  1.00  0.00     0.032 A 
HETATM   19  C10 UNL     1      25.765   7.184  49.860  1.00  0.00     0.046 A 
HETATM   20  C11 UNL     1      26.851   7.425  49.059  1.00  0.00     0.138 A 
HETATM   21  F1  UNL     1      27.261   8.679  48.783  1.00  0.00    -0.204 F 
HETATM   22  C12 UNL     1      27.515   6.324  48.540  1.00  0.00     0.074 A 
HETATM   23 CL1  UNL     1      28.895   6.647  47.524  1.00  0.00    -0.081 Cl
HETATM   24  C13 UNL     1      27.054   5.059  48.853  1.00  0.00     0.056 A 
ENDBRANCH  15  17
ENDBRANCH   7  15
BRANCH   1  25
HETATM   25  C2  UNL     1      22.794  -0.635  53.795  1.00  0.00     0.205 C 
BRANCH  25  26
HETATM   26  O1  UNL     1      21.710  -0.458  54.674  1.00  0.00    -0.393 OA
HETATM   27  C1  UNL     1      20.651  -1.305  54.359  1.00  0.00     0.201 C 
ENDBRANCH  25  26
ENDBRANCH   1  25
TORSDOF 4
ENDMDL
MODEL 8
REMARK VINA RESULT:      -7.1      2.289      3.311
REMARK  4 active torsions:
REMARK  status: ('A' for Active; 'I' for Inactive)
REMARK    1  A    between atoms: O1_2  and  C2_3 
REMARK    2  A    between atoms: C2_3  and  C3_4 
REMARK    3  A    between atoms: C7_10  and  N2_11 
REMARK    4  A    between atoms: N2_11  and  C8_12 
ROOT
HETATM    1  C3  UNL     1      21.850   4.539  50.012  1.00  0.00     0.206 C 
HETATM    2  O2  UNL     1      22.747   4.349  49.004  1.00  0.00    -0.362 OA
HETATM    3  C4  UNL     1      23.993   3.928  49.319  1.00  0.00     0.200 C 
HETATM    4  C5  UNL     1      24.989   4.967  49.637  1.00  0.00     0.120 C 
HETATM    5  N1  UNL     1      26.140   4.463  49.968  1.00  0.00    -0.297 NA
HETATM    6  C6  UNL     1      26.323   3.017  49.991  1.00  0.00     0.205 C 
HETATM    7  C7  UNL     1      25.200   2.463  50.820  1.00  0.00     0.041 C 
HETATM    8  C14 UNL     1      24.025   2.948  50.451  1.00  0.00     0.036 C 
HETATM    9  C15 UNL     1      22.745   2.611  51.051  1.00  0.00     0.112 C 
HETATM   10  C16 UNL     1      21.650   3.349  50.873  1.00  0.00     0.111 C 
HETATM   11  O3  UNL     1      20.517   2.904  51.504  1.00  0.00    -0.348 OA
HETATM   12  C17 UNL     1      20.518   2.109  52.676  1.00  0.00     0.202 C 
HETATM   13  C18 UNL     1      21.715   1.226  52.805  1.00  0.00     0.202 C 
HETATM   14  O4  UNL     1      22.721   1.448  51.843  1.00  0.00    -0.346 OA
ENDROOT
BRANCH   7  15
HETATM   15  N2  UNL     1      25.207   1.525  51.907  1.00  0.00    -0.358 N 
HETATM   16  H11 UNL     1      24.310   1.239  52.387  1.00  0.00     0.166 HD
BRANCH  15  17
HETATM   17  C8  UNL     1      26.371   0.884  52.457  1.00  0.00     0.034 A 
HETATM   18  C9  UNL     1      26.654  -0.473  52.348  1.00  0.00     0.032 A 
HETATM   19  C10 UNL     1      27.805  -0.953  52.922  1.00  0.00     0.046 A 
HETATM   20  C11 UNL     1      28.707  -0.181  53.607  1.00  0.00     0.138 A 
HETATM   21  F1  UNL     1      29.821  -0.713  54.151  1.00  0.00    -0.204 F 
HETATM   22  C12 UNL     1      28.430   1.172  53.722  1.00  0.00     0.074 A 
HETATM   23 CL1  UNL     1      29.588   2.139  54.595  1.00  0.00    -0.081 Cl
HETATM   24  C13 UNL     1      27.275   1.667  53.146  1.00  0.00     0.056 A 
ENDBRANCH  15  17
ENDBRANCH   7  15
BRANCH   1  25
HETATM   25  C2  UNL     1      20.492   4.830  49.356  1.00  0.00     0.205 C 
BRANCH  25  26
HETATM   26  O1  UNL     1      20.447   4.236  48.082  1.00  0.00    -0.393 OA
HETATM   27  C1  UNL     1      19.371   3.360  47.963  1.00  0.00     0.201 C 
ENDBRANCH  25  26
ENDBRANCH   1  25
TORSDOF 4
ENDMDL
MODEL 9
REMARK VINA RESULT:      -7.1      4.434      7.234
REMARK  4 active torsions:
REMARK  status: ('A' for Active; 'I' for Inactive)
REMARK    1  A    between atoms: O1_2  and  C2_3 
REMARK    2  A    between atoms: C2_3  and  C3_4 
REMARK    3  A    between atoms: C7_10  and  N2_11 
REMARK    4  A    between atoms: N2_11  and  C8_12 
ROOT
HETATM    1  C3  UNL     1      26.526   0.473  51.966  1.00  0.00     0.206 C 
HETATM    2  O2  UNL     1      27.089   1.713  51.925  1.00  0.00    -0.362 OA
HETATM    3  C4  UNL     1      26.386   2.724  51.366  1.00  0.00     0.200 C 
HETATM    4  C5  UNL     1      26.532   2.914  49.912  1.00  0.00     0.120 C 
HETATM    5  N1  UNL     1      25.786   3.879  49.462  1.00  0.00    -0.297 NA
HETATM    6  C6  UNL     1      24.937   4.630  50.378  1.00  0.00     0.205 C 
HETATM    7  C7  UNL     1      24.146   3.614  51.151  1.00  0.00     0.041 C 
HETATM    8  C14 UNL     1      24.917   2.655  51.642  1.00  0.00     0.036 C 
HETATM    9  C15 UNL     1      24.459   1.526  52.434  1.00  0.00     0.112 C 
HETATM   10  C16 UNL     1      25.199   0.435  52.628  1.00  0.00     0.111 C 
HETATM   11  O3  UNL     1      24.633  -0.547  53.399  1.00  0.00    -0.348 OA
HETATM   12  C17 UNL     1      23.238  -0.737  53.547  1.00  0.00     0.202 C 
HETATM   13  C18 UNL     1      22.439   0.517  53.413  1.00  0.00     0.202 C 
HETATM   14  O4  UNL     1      23.175   1.645  52.997  1.00  0.00    -0.346 OA
ENDROOT
BRANCH   7  15
HETATM   15  N2  UNL     1      22.740   3.527  51.428  1.00  0.00    -0.358 N 
HETATM   16  H11 UNL     1      22.367   3.665  52.407  1.00  0.00     0.166 HD
BRANCH  15  17
HETATM   17  C8  UNL     1      21.708   3.256  50.464  1.00  0.00     0.034 A 
HETATM   18  C9  UNL     1      21.793   2.296  49.461  1.00  0.00     0.032 A 
HETATM   19  C10 UNL     1      20.730   2.142  48.607  1.00  0.00     0.046 A 
HETATM   20  C11 UNL     1      19.575   2.878  48.669  1.00  0.00     0.138 A 
HETATM   21  F1  UNL     1      18.564   2.680  47.798  1.00  0.00    -0.204 F 
HETATM   22  C12 UNL     1      19.484   3.838  49.665  1.00  0.00     0.074 A 
HETATM   23 CL1  UNL     1      18.009   4.763  49.730  1.00  0.00    -0.081 Cl
HETATM   24  C13 UNL     1      20.548   4.001  50.532  1.00  0.00     0.056 A 
ENDBRANCH  15  17
ENDBRANCH   7  15
BRANCH   1  25
HETATM   25  C2  UNL     1      27.454  -0.415  52.807  1.00  0.00     0.205 C 
BRANCH  25  26
HETATM   26  O1  UNL     1      28.407   0.386  53.462  1.00  0.00    -0.393 OA
HETATM   27  C1  UNL     1      28.470   0.099  54.823  1.00  0.00     0.201 C 
ENDBRANCH  25  26
ENDBRANCH   1  25
TORSDOF 4
ENDMDL
