MODEL 1
REMARK VINA RESULT:      -7.8      0.000      0.000
REMARK  5 active torsions:
REMARK  status: ('A' for Active; 'I' for Inactive)
REMARK    1  A    between atoms: C2_2  and  N1_4 
REMARK    2  A    between atoms: N1_4  and  N2_5 
REMARK    3  A    between atoms: C3_6  and  C4_7 
REMARK    4  A    between atoms: C3_6  and  C12_16 
REMARK    5  A    between atoms: C5_8  and  C6_9 
ROOT
HETATM    1  N2  UNL     1      23.557   1.891  52.100  1.00  0.00    -0.174 NA
HETATM    2  C3  UNL     1      23.585   0.894  52.875  1.00  0.00     0.083 C 
ENDROOT
BRANCH   2   3
HETATM    3  C4  UNL     1      24.974   0.613  53.127  1.00  0.00     0.035 C 
HETATM    4  C5  UNL     1      25.979  -0.151  52.844  1.00  0.00     0.017 C 
BRANCH   4   5
HETATM    5  C6  UNL     1      27.384  -0.442  53.092  1.00  0.00     0.003 A 
HETATM    6  C7  UNL     1      28.122   0.625  53.544  1.00  0.00     0.014 A 
HETATM    7  C8  UNL     1      29.448   0.428  53.799  1.00  0.00     0.001 A 
HETATM    8  C9  UNL     1      29.952  -0.834  53.582  1.00  0.00     0.003 A 
HETATM    9  C10 UNL     1      29.168  -1.872  53.128  1.00  0.00     0.043 A 
HETATM   10  C11 UNL     1      27.827  -1.718  52.858  1.00  0.00     0.126 A 
HETATM   11  F1  UNL     1      27.014  -2.697  52.412  1.00  0.00    -0.205 F 
ENDBRANCH   4   5
ENDBRANCH   2   3
BRANCH   2  12
HETATM   12  C12 UNL     1      22.380   0.235  53.348  1.00  0.00    -0.024 A 
HETATM   13  C13 UNL     1      21.140   0.648  53.504  1.00  0.00     0.009 A 
HETATM   14  C14 UNL     1      20.217  -0.352  54.016  1.00  0.00    -0.003 A 
HETATM   15  C15 UNL     1      20.970  -1.425  54.172  1.00  0.00    -0.022 A 
HETATM   16  C16 UNL     1      22.365  -1.184  53.786  1.00  0.00     0.068 A 
ENDBRANCH   2  12
BRANCH   1  17
HETATM   17  N1  UNL     1      22.478   2.551  51.564  1.00  0.00    -0.271 N 
HETATM   18  H4  UNL     1      21.656   3.184  51.624  1.00  0.00     0.190 HD
BRANCH  17  19
HETATM   19  C2  UNL     1      22.413   2.198  50.164  1.00  0.00     0.090 C 
HETATM   20  C1  UNL     1      21.607   0.997  49.748  1.00  0.00     0.083 C 
HETATM   21  S1  UNL     1      23.043   2.812  48.773  1.00  0.00    -0.064 SA
ENDBRANCH  17  19
ENDBRANCH   1  17
TORSDOF 5
ENDMDL
MODEL 2
REMARK VINA RESULT:      -7.7      1.816      3.459
REMARK  5 active torsions:
REMARK  status: ('A' for Active; 'I' for Inactive)
REMARK    1  A    between atoms: C2_2  and  N1_4 
REMARK    2  A    between atoms: N1_4  and  N2_5 
REMARK    3  A    between atoms: C3_6  and  C4_7 
REMARK    4  A    between atoms: C3_6  and  C12_16 
REMARK    5  A    between atoms: C5_8  and  C6_9 
ROOT
HETATM    1  N2  UNL     1      22.751   0.899  53.192  1.00  0.00    -0.174 NA
HETATM    2  C3  UNL     1      23.549   1.027  52.222  1.00  0.00     0.083 C 
ENDROOT
BRANCH   2   3
HETATM    3  C4  UNL     1      24.823   0.531  52.675  1.00  0.00     0.035 C 
HETATM    4  C5  UNL     1      26.064   0.333  52.368  1.00  0.00     0.017 C 
BRANCH   4   5
HETATM    5  C6  UNL     1      27.356  -0.164  52.817  1.00  0.00     0.003 A 
HETATM    6  C7  UNL     1      28.204   0.798  53.311  1.00  0.00     0.014 A 
HETATM    7  C8  UNL     1      29.434   0.407  53.752  1.00  0.00     0.001 A 
HETATM    8  C9  UNL     1      29.739  -0.932  53.668  1.00  0.00     0.003 A 
HETATM    9  C10 UNL     1      28.851  -1.859  53.164  1.00  0.00     0.043 A 
HETATM   10  C11 UNL     1      27.601  -1.508  52.708  1.00  0.00     0.126 A 
HETATM   11  F1  UNL     1      26.695  -2.371  52.205  1.00  0.00    -0.205 F 
ENDBRANCH   4   5
ENDBRANCH   2   3
BRANCH   2  12
HETATM   12  C12 UNL     1      23.146   1.587  50.944  1.00  0.00    -0.024 A 
HETATM   13  C13 UNL     1      22.174   1.291  50.107  1.00  0.00     0.009 A 
HETATM   14  C14 UNL     1      22.119   2.116  48.911  1.00  0.00    -0.003 A 
HETATM   15  C15 UNL     1      23.129   2.951  49.057  1.00  0.00    -0.022 A 
HETATM   16  C16 UNL     1      23.865   2.719  50.305  1.00  0.00     0.068 A 
ENDBRANCH   2  12
BRANCH   1  17
HETATM   17  N1  UNL     1      21.418   1.222  53.276  1.00  0.00    -0.271 N 
HETATM   18  H4  UNL     1      20.622   1.888  53.233  1.00  0.00     0.190 HD
BRANCH  17  19
HETATM   19  C2  UNL     1      20.704   0.009  53.601  1.00  0.00     0.090 C 
HETATM   20  C1  UNL     1      21.348  -1.000  54.513  1.00  0.00     0.083 C 
HETATM   21  S1  UNL     1      19.238  -0.627  53.204  1.00  0.00    -0.064 SA
ENDBRANCH  17  19
ENDBRANCH   1  17
TORSDOF 5
ENDMDL
MODEL 3
REMARK VINA RESULT:      -7.7      2.359      6.120
REMARK  5 active torsions:
REMARK  status: ('A' for Active; 'I' for Inactive)
REMARK    1  A    between atoms: C2_2  and  N1_4 
REMARK    2  A    between atoms: N1_4  and  N2_5 
REMARK    3  A    between atoms: C3_6  and  C4_7 
REMARK    4  A    between atoms: C3_6  and  C12_16 
REMARK    5  A    between atoms: C5_8  and  C6_9 
ROOT
HETATM    1  N2  UNL     1      25.857   2.498  51.619  1.00  0.00    -0.174 NA
HETATM    2  C3  UNL     1      25.905   1.499  52.391  1.00  0.00     0.083 C 
ENDROOT
BRANCH   2   3
HETATM    3  C4  UNL     1      24.540   1.121  52.651  1.00  0.00     0.035 C 
HETATM    4  C5  UNL     1      23.736   0.150  52.943  1.00  0.00     0.017 C 
BRANCH   4   5
HETATM    5  C6  UNL     1      22.360  -0.242  53.208  1.00  0.00     0.003 A 
HETATM    6  C7  UNL     1      21.435   0.274  52.333  1.00  0.00     0.014 A 
HETATM    7  C8  UNL     1      20.123  -0.050  52.517  1.00  0.00     0.001 A 
HETATM    8  C9  UNL     1      19.819  -0.876  53.575  1.00  0.00     0.003 A 
HETATM    9  C10 UNL     1      20.786  -1.369  54.425  1.00  0.00     0.043 A 
HETATM   10  C11 UNL     1      22.121  -1.067  54.276  1.00  0.00     0.126 A 
HETATM   11  F1  UNL     1      23.107  -1.520  55.077  1.00  0.00    -0.205 F 
ENDBRANCH   4   5
ENDBRANCH   2   3
BRANCH   2  12
HETATM   12  C12 UNL     1      27.155   0.933  52.865  1.00  0.00    -0.024 A 
HETATM   13  C13 UNL     1      28.216   1.466  53.434  1.00  0.00     0.009 A 
HETATM   14  C14 UNL     1      29.277   0.527  53.761  1.00  0.00    -0.003 A 
HETATM   15  C15 UNL     1      28.805  -0.636  53.353  1.00  0.00    -0.022 A 
HETATM   16  C16 UNL     1      27.467  -0.515  52.762  1.00  0.00     0.068 A 
ENDBRANCH   2  12
BRANCH   1  17
HETATM   17  N1  UNL     1      26.884   3.232  51.076  1.00  0.00    -0.271 N 
HETATM   18  H4  UNL     1      27.869   3.560  51.039  1.00  0.00     0.190 HD
BRANCH  17  19
HETATM   19  C2  UNL     1      26.342   3.955  49.949  1.00  0.00     0.090 C 
HETATM   20  C1  UNL     1      27.282   4.503  48.909  1.00  0.00     0.083 C 
HETATM   21  S1  UNL     1      24.833   4.382  49.449  1.00  0.00    -0.064 SA
ENDBRANCH  17  19
ENDBRANCH   1  17
TORSDOF 5
ENDMDL
MODEL 4
REMARK VINA RESULT:      -7.6      3.675      6.235
REMARK  5 active torsions:
REMARK  status: ('A' for Active; 'I' for Inactive)
REMARK    1  A    between atoms: C2_2  and  N1_4 
REMARK    2  A    between atoms: N1_4  and  N2_5 
REMARK    3  A    between atoms: C3_6  and  C4_7 
REMARK    4  A    between atoms: C3_6  and  C12_16 
REMARK    5  A    between atoms: C5_8  and  C6_9 
ROOT
HETATM    1  N2  UNL     1      25.075   0.249  52.998  1.00  0.00    -0.174 NA
HETATM    2  C3  UNL     1      26.206   0.245  52.437  1.00  0.00     0.083 C 
ENDROOT
BRANCH   2   3
HETATM    3  C4  UNL     1      26.221   1.375  51.545  1.00  0.00     0.035 C 
HETATM    4  C5  UNL     1      25.778   2.571  51.325  1.00  0.00     0.017 C 
BRANCH   4   5
HETATM    5  C6  UNL     1      25.788   3.719  50.430  1.00  0.00     0.003 A 
HETATM    6  C7  UNL     1      26.915   3.834  49.653  1.00  0.00     0.014 A 
HETATM    7  C8  UNL     1      26.996   4.885  48.788  1.00  0.00     0.001 A 
HETATM    8  C9  UNL     1      25.935   5.761  48.757  1.00  0.00     0.003 A 
HETATM    9  C10 UNL     1      24.825   5.600  49.558  1.00  0.00     0.043 A 
HETATM   10  C11 UNL     1      24.702   4.554  50.445  1.00  0.00     0.126 A 
HETATM   11  F1  UNL     1      23.640   4.350  51.251  1.00  0.00    -0.205 F 
ENDBRANCH   4   5
ENDBRANCH   2   3
BRANCH   2  12
HETATM   12  C12 UNL     1      27.215  -0.762  52.713  1.00  0.00    -0.024 A 
HETATM   13  C13 UNL     1      27.248  -2.065  52.530  1.00  0.00     0.009 A 
HETATM   14  C14 UNL     1      28.478  -2.716  52.954  1.00  0.00    -0.003 A 
HETATM   15  C15 UNL     1      29.215  -1.725  53.418  1.00  0.00    -0.022 A 
HETATM   16  C16 UNL     1      28.527  -0.431  53.326  1.00  0.00     0.068 A 
ENDBRANCH   2  12
BRANCH   1  17
HETATM   17  N1  UNL     1      24.561  -0.616  53.934  1.00  0.00    -0.271 N 
HETATM   18  H4  UNL     1      24.651  -1.318  54.695  1.00  0.00     0.190 HD
BRANCH  17  19
HETATM   19  C2  UNL     1      23.121  -0.546  53.836  1.00  0.00     0.090 C 
HETATM   20  C1  UNL     1      22.495   0.525  52.985  1.00  0.00     0.083 C 
HETATM   21  S1  UNL     1      21.864  -1.404  54.463  1.00  0.00    -0.064 SA
ENDBRANCH  17  19
ENDBRANCH   1  17
TORSDOF 5
ENDMDL
MODEL 5
REMARK VINA RESULT:      -7.5      2.612      6.400
REMARK  5 active torsions:
REMARK  status: ('A' for Active; 'I' for Inactive)
REMARK    1  A    between atoms: C2_2  and  N1_4 
REMARK    2  A    between atoms: N1_4  and  N2_5 
REMARK    3  A    between atoms: C3_6  and  C4_7 
REMARK    4  A    between atoms: C3_6  and  C12_16 
REMARK    5  A    between atoms: C5_8  and  C6_9 
ROOT
HETATM    1  N2  UNL     1      25.138   2.617  51.444  1.00  0.00    -0.174 NA
HETATM    2  C3  UNL     1      24.984   1.526  52.062  1.00  0.00     0.083 C 
ENDROOT
BRANCH   2   3
HETATM    3  C4  UNL     1      23.569   1.259  52.069  1.00  0.00     0.035 C 
HETATM    4  C5  UNL     1      22.643   0.409  52.372  1.00  0.00     0.017 C 
BRANCH   4   5
HETATM    5  C6  UNL     1      21.214   0.130  52.384  1.00  0.00     0.003 A 
HETATM    6  C7  UNL     1      20.544   0.506  51.245  1.00  0.00     0.014 A 
HETATM    7  C8  UNL     1      19.201   0.276  51.183  1.00  0.00     0.001 A 
HETATM    8  C9  UNL     1      18.611  -0.320  52.274  1.00  0.00     0.003 A 
HETATM    9  C10 UNL     1      19.329  -0.679  53.394  1.00  0.00     0.043 A 
HETATM   10  C11 UNL     1      20.685  -0.466  53.499  1.00  0.00     0.126 A 
HETATM   11  F1  UNL     1      21.435  -0.796  54.570  1.00  0.00    -0.205 F 
ENDBRANCH   4   5
ENDBRANCH   2   3
BRANCH   2  12
HETATM   12  C12 UNL     1      26.096   0.777  52.621  1.00  0.00    -0.024 A 
HETATM   13  C13 UNL     1      26.821  -0.220  52.161  1.00  0.00     0.009 A 
HETATM   14  C14 UNL     1      27.863  -0.691  53.058  1.00  0.00    -0.003 A 
HETATM   15  C15 UNL     1      27.738   0.084  54.119  1.00  0.00    -0.022 A 
HETATM   16  C16 UNL     1      26.650   1.058  53.970  1.00  0.00     0.068 A 
ENDBRANCH   2  12
BRANCH   1  17
HETATM   17  N1  UNL     1      26.293   3.306  51.163  1.00  0.00    -0.271 N 
HETATM   18  H4  UNL     1      27.279   3.577  51.350  1.00  0.00     0.190 HD
BRANCH  17  19
HETATM   19  C2  UNL     1      26.043   4.095  49.979  1.00  0.00     0.090 C 
HETATM   20  C1  UNL     1      27.177   4.374  49.031  1.00  0.00     0.083 C 
HETATM   21  S1  UNL     1      24.728   4.842  49.329  1.00  0.00    -0.064 SA
ENDBRANCH  17  19
ENDBRANCH   1  17
TORSDOF 5
ENDMDL
MODEL 6
REMARK VINA RESULT:      -7.5      3.198      6.843
REMARK  5 active torsions:
REMARK  status: ('A' for Active; 'I' for Inactive)
REMARK    1  A    between atoms: C2_2  and  N1_4 
REMARK    2  A    between atoms: N1_4  and  N2_5 
REMARK    3  A    between atoms: C3_6  and  C4_7 
REMARK    4  A    between atoms: C3_6  and  C12_16 
REMARK    5  A    between atoms: C5_8  and  C6_9 
ROOT
HETATM    1  N2  UNL     1      25.527   2.132  53.401  1.00  0.00    -0.174 NA
HETATM    2  C3  UNL     1      24.900   2.318  52.320  1.00  0.00     0.083 C 
ENDROOT
BRANCH   2   3
HETATM    3  C4  UNL     1      23.611   1.698  52.486  1.00  0.00     0.035 C 
HETATM    4  C5  UNL     1      22.966   0.683  52.963  1.00  0.00     0.017 C 
BRANCH   4   5
HETATM    5  C6  UNL     1      21.667   0.048  53.136  1.00  0.00     0.003 A 
HETATM    6  C7  UNL     1      20.676   0.533  52.318  1.00  0.00     0.014 A 
HETATM    7  C8  UNL     1      19.430  -0.014  52.422  1.00  0.00     0.001 A 
HETATM    8  C9  UNL     1      19.257  -1.017  53.348  1.00  0.00     0.003 A 
HETATM    9  C10 UNL     1      20.286  -1.468  54.146  1.00  0.00     0.043 A 
HETATM   10  C11 UNL     1      21.557  -0.945  54.074  1.00  0.00     0.126 A 
HETATM   11  F1  UNL     1      22.600  -1.347  54.829  1.00  0.00    -0.205 F 
ENDBRANCH   4   5
ENDBRANCH   2   3
BRANCH   2  12
HETATM   12  C12 UNL     1      25.475   3.030  51.192  1.00  0.00    -0.024 A 
HETATM   13  C13 UNL     1      26.528   2.801  50.437  1.00  0.00     0.009 A 
HETATM   14  C14 UNL     1      26.760   3.782  49.389  1.00  0.00    -0.003 A 
HETATM   15  C15 UNL     1      25.774   4.645  49.542  1.00  0.00    -0.022 A 
HETATM   16  C16 UNL     1      24.889   4.284  50.656  1.00  0.00     0.068 A 
ENDBRANCH   2  12
BRANCH   1  17
HETATM   17  N1  UNL     1      26.795   2.527  53.754  1.00  0.00    -0.271 N 
HETATM   18  H4  UNL     1      27.526   3.243  53.931  1.00  0.00     0.190 HD
BRANCH  17  19
HETATM   19  C2  UNL     1      27.554   1.329  54.033  1.00  0.00     0.090 C 
HETATM   20  C1  UNL     1      26.864   0.157  54.677  1.00  0.00     0.083 C 
HETATM   21  S1  UNL     1      29.116   0.858  53.817  1.00  0.00    -0.064 SA
ENDBRANCH  17  19
ENDBRANCH   1  17
TORSDOF 5
ENDMDL
MODEL 7
REMARK VINA RESULT:      -7.4      1.608      2.088
REMARK  5 active torsions:
REMARK  status: ('A' for Active; 'I' for Inactive)
REMARK    1  A    between atoms: C2_2  and  N1_4 
REMARK    2  A    between atoms: N1_4  and  N2_5 
REMARK    3  A    between atoms: C3_6  and  C4_7 
REMARK    4  A    between atoms: C3_6  and  C12_16 
REMARK    5  A    between atoms: C5_8  and  C6_9 
ROOT
HETATM    1  N2  UNL     1      23.784   2.554  52.638  1.00  0.00    -0.174 NA
HETATM    2  C3  UNL     1      23.606   1.336  52.919  1.00  0.00     0.083 C 
ENDROOT
BRANCH   2   3
HETATM    3  C4  UNL     1      24.907   0.788  53.200  1.00  0.00     0.035 C 
HETATM    4  C5  UNL     1      26.134   0.688  52.802  1.00  0.00     0.017 C 
BRANCH   4   5
HETATM    5  C6  UNL     1      27.454   0.139  53.077  1.00  0.00     0.003 A 
HETATM    6  C7  UNL     1      27.557  -1.222  52.918  1.00  0.00     0.014 A 
HETATM    7  C8  UNL     1      28.764  -1.809  53.158  1.00  0.00     0.001 A 
HETATM    8  C9  UNL     1      29.799  -0.988  53.545  1.00  0.00     0.003 A 
HETATM    9  C10 UNL     1      29.645   0.373  53.689  1.00  0.00     0.043 A 
HETATM   10  C11 UNL     1      28.445   1.007  53.457  1.00  0.00     0.126 A 
HETATM   11  F1  UNL     1      28.237   2.333  53.583  1.00  0.00    -0.205 F 
ENDBRANCH   4   5
ENDBRANCH   2   3
BRANCH   2  12
HETATM   12  C12 UNL     1      22.292   0.715  52.919  1.00  0.00    -0.024 A 
HETATM   13  C13 UNL     1      21.423   0.468  51.963  1.00  0.00     0.009 A 
HETATM   14  C14 UNL     1      20.198  -0.185  52.397  1.00  0.00    -0.003 A 
HETATM   15  C15 UNL     1      20.362  -0.329  53.698  1.00  0.00    -0.022 A 
HETATM   16  C16 UNL     1      21.650   0.205  54.157  1.00  0.00     0.068 A 
ENDBRANCH   2  12
BRANCH   1  17
HETATM   17  N1  UNL     1      22.864   3.516  52.298  1.00  0.00    -0.271 N 
HETATM   18  H4  UNL     1      22.114   4.199  52.521  1.00  0.00     0.190 HD
BRANCH  17  19
HETATM   19  C2  UNL     1      22.952   3.706  50.869  1.00  0.00     0.090 C 
HETATM   20  C1  UNL     1      24.307   3.764  50.218  1.00  0.00     0.083 C 
HETATM   21  S1  UNL     1      21.865   3.896  49.646  1.00  0.00    -0.064 SA
ENDBRANCH  17  19
ENDBRANCH   1  17
TORSDOF 5
ENDMDL
MODEL 8
REMARK VINA RESULT:      -7.4      4.881      6.415
REMARK  5 active torsions:
REMARK  status: ('A' for Active; 'I' for Inactive)
REMARK    1  A    between atoms: C2_2  and  N1_4 
REMARK    2  A    between atoms: N1_4  and  N2_5 
REMARK    3  A    between atoms: C3_6  and  C4_7 
REMARK    4  A    between atoms: C3_6  and  C12_16 
REMARK    5  A    between atoms: C5_8  and  C6_9 
ROOT
HETATM    1  N2  UNL     1      26.760   1.133  51.647  1.00  0.00    -0.174 NA
HETATM    2  C3  UNL     1      25.697   1.798  51.492  1.00  0.00     0.083 C 
ENDROOT
BRANCH   2   3
HETATM    3  C4  UNL     1      26.077   3.028  50.847  1.00  0.00     0.035 C 
HETATM    4  C5  UNL     1      26.409   3.592  49.731  1.00  0.00     0.017 C 
BRANCH   4   5
HETATM    5  C6  UNL     1      26.792   4.830  49.069  1.00  0.00     0.003 A 
HETATM    6  C7  UNL     1      28.107   4.889  48.674  1.00  0.00     0.014 A 
HETATM    7  C8  UNL     1      28.541   6.019  48.046  1.00  0.00     0.001 A 
HETATM    8  C9  UNL     1      27.623   7.026  47.852  1.00  0.00     0.003 A 
HETATM    9  C10 UNL     1      26.313   6.917  48.267  1.00  0.00     0.043 A 
HETATM   10  C11 UNL     1      25.833   5.796  48.905  1.00  0.00     0.126 A 
HETATM   11  F1  UNL     1      24.564   5.636  49.332  1.00  0.00    -0.205 F 
ENDBRANCH   4   5
ENDBRANCH   2   3
BRANCH   2  12
HETATM   12  C12 UNL     1      24.399   1.314  51.929  1.00  0.00    -0.024 A 
HETATM   13  C13 UNL     1      24.001   0.685  53.014  1.00  0.00     0.009 A 
HETATM   14  C14 UNL     1      22.582   0.374  53.060  1.00  0.00    -0.003 A 
HETATM   15  C15 UNL     1      22.117   0.854  51.923  1.00  0.00    -0.022 A 
HETATM   16  C16 UNL     1      23.170   1.474  51.110  1.00  0.00     0.068 A 
ENDBRANCH   2  12
BRANCH   1  17
HETATM   17  N1  UNL     1      26.941  -0.107  52.210  1.00  0.00    -0.271 N 
HETATM   18  H4  UNL     1      26.795  -1.135  52.253  1.00  0.00     0.190 HD
BRANCH  17  19
HETATM   19  C2  UNL     1      27.771   0.071  53.379  1.00  0.00     0.090 C 
HETATM   20  C1  UNL     1      27.117   0.284  54.717  1.00  0.00     0.083 C 
HETATM   21  S1  UNL     1      29.391   0.108  53.668  1.00  0.00    -0.064 SA
ENDBRANCH  17  19
ENDBRANCH   1  17
TORSDOF 5
ENDMDL
MODEL 9
REMARK VINA RESULT:      -7.3      3.877      5.900
REMARK  5 active torsions:
REMARK  status: ('A' for Active; 'I' for Inactive)
REMARK    1  A    between atoms: C2_2  and  N1_4 
REMARK    2  A    between atoms: N1_4  and  N2_5 
REMARK    3  A    between atoms: C3_6  and  C4_7 
REMARK    4  A    between atoms: C3_6  and  C12_16 
REMARK    5  A    between atoms: C5_8  and  C6_9 
ROOT
HETATM    1  N2  UNL     1      26.404  -0.119  52.474  1.00  0.00    -0.174 NA
HETATM    2  C3  UNL     1      25.263   0.373  52.699  1.00  0.00     0.083 C 
ENDROOT
BRANCH   2   3
HETATM    3  C4  UNL     1      25.192   1.597  51.945  1.00  0.00     0.035 C 
HETATM    4  C5  UNL     1      25.729   2.308  51.006  1.00  0.00     0.017 C 
BRANCH   4   5
HETATM    5  C6  UNL     1      25.665   3.543  50.238  1.00  0.00     0.003 A 
HETATM    6  C7  UNL     1      26.831   3.880  49.594  1.00  0.00     0.014 A 
HETATM    7  C8  UNL     1      26.849   5.025  48.852  1.00  0.00     0.001 A 
HETATM    8  C9  UNL     1      25.689   5.764  48.804  1.00  0.00     0.003 A 
HETATM    9  C10 UNL     1      24.544   5.381  49.469  1.00  0.00     0.043 A 
HETATM   10  C11 UNL     1      24.482   4.234  50.228  1.00  0.00     0.126 A 
HETATM   11  F1  UNL     1      23.391   3.812  50.899  1.00  0.00    -0.205 F 
ENDBRANCH   4   5
ENDBRANCH   2   3
BRANCH   2  12
HETATM   12  C12 UNL     1      24.293  -0.262  53.575  1.00  0.00    -0.024 A 
HETATM   13  C13 UNL     1      24.385  -0.771  54.785  1.00  0.00     0.009 A 
HETATM   14  C14 UNL     1      23.149  -1.323  55.316  1.00  0.00    -0.003 A 
HETATM   15  C15 UNL     1      22.274  -1.124  54.349  1.00  0.00    -0.022 A 
HETATM   16  C16 UNL     1      22.874  -0.461  53.185  1.00  0.00     0.068 A 
ENDBRANCH   2  12
BRANCH   1  17
HETATM   17  N1  UNL     1      26.965  -1.279  52.952  1.00  0.00    -0.271 N 
HETATM   18  H4  UNL     1      26.978  -2.306  53.106  1.00  0.00     0.190 HD
BRANCH  17  19
HETATM   19  C2  UNL     1      28.203  -0.918  53.604  1.00  0.00     0.090 C 
HETATM   20  C1  UNL     1      29.421  -1.775  53.390  1.00  0.00     0.083 C 
HETATM   21  S1  UNL     1      28.684   0.291  54.612  1.00  0.00    -0.064 SA
ENDBRANCH  17  19
ENDBRANCH   1  17
TORSDOF 5
ENDMDL
