MODEL 1
REMARK VINA RESULT:      -7.0      0.000      0.000
REMARK  9 active torsions:
REMARK  status: ('A' for Active; 'I' for Inactive)
REMARK    1  A    between atoms: C2_2  and  C3_3 
REMARK    2  A    between atoms: C5_7  and  N3_8 
REMARK    3  A    between atoms: N3_8  and  C6_9 
REMARK    4  A    between atoms: C9_13  and  C10_14 
REMARK    5  A    between atoms: C10_14  and  C11_15 
REMARK    6  A    between atoms: C11_15  and  N5_16 
REMARK       I    between atoms: N5_16  and  C12_17 
REMARK    7  A    between atoms: C12_17  and  C13_19 
REMARK    8  A    between atoms: C13_19  and  O2_20 
REMARK    9  A    between atoms: O2_20  and  C14_21 
ROOT
HETATM    1  C6  UNL     1      27.968  -0.746  53.918  1.00  0.00     0.100 C 
HETATM    2  C7  UNL     1      29.083  -0.058  53.622  1.00  0.00     0.110 C 
HETATM    3  C8  UNL     1      29.074   1.306  54.126  1.00  0.00     0.089 C 
HETATM    4  N4  UNL     1      29.087   2.396  54.526  1.00  0.00    -0.192 NA
ENDROOT
BRANCH   1   5
HETATM    5  N3  UNL     1      27.039   0.031  54.660  1.00  0.00    -0.349 N 
HETATM    6  H6  UNL     1      27.655   0.730  55.112  1.00  0.00     0.166 HD
BRANCH   5   7
HETATM    7  C5  UNL     1      25.665  -0.289  54.613  1.00  0.00     0.141 A 
HETATM    8  N2  UNL     1      25.193  -1.087  55.583  1.00  0.00    -0.224 NA
HETATM    9  C4  UNL     1      23.902  -1.451  55.628  1.00  0.00     0.235 A 
HETATM   10  N1  UNL     1      23.033  -1.024  54.695  1.00  0.00    -0.241 NA
HETATM   11  C3  UNL     1      23.457  -0.224  53.702  1.00  0.00     0.068 A 
HETATM   12  C9  UNL     1      24.777   0.148  53.657  1.00  0.00     0.036 A 
BRANCH  11  13
HETATM   13  C2  UNL     1      22.505   0.117  52.866  1.00  0.00     0.002 C 
HETATM   14  C1  UNL     1      21.132  -0.387  53.125  1.00  0.00     0.038 C 
ENDBRANCH  11  13
BRANCH  12  15
HETATM   15  C10 UNL     1      25.207   0.921  52.696  1.00  0.00     0.010 C 
BRANCH  15  16
HETATM   16  C11 UNL     1      25.913   2.072  52.144  1.00  0.00     0.151 C 
BRANCH  16  17
HETATM   17  N5  UNL     1      25.079   2.686  51.092  1.00  0.00    -0.356 N 
HETATM   18  C12 UNL     1      24.143   3.658  51.541  1.00  0.00     0.242 C 
HETATM   19  O1  UNL     1      23.951   4.046  52.723  1.00  0.00    -0.271 OA
HETATM   20  H12 UNL     1      25.061   2.524  50.056  1.00  0.00     0.162 HD
BRANCH  18  21
HETATM   21  C13 UNL     1      23.222   4.374  50.597  1.00  0.00     0.278 C 
BRANCH  21  22
HETATM   22  O2  UNL     1      21.922   4.194  51.072  1.00  0.00    -0.342 OA
BRANCH  22  23
HETATM   23  C14 UNL     1      21.106   3.123  50.726  1.00  0.00     0.069 A 
HETATM   24  C15 UNL     1      21.298   2.180  49.733  1.00  0.00     0.040 A 
HETATM   25  C16 UNL     1      20.357   1.186  49.550  1.00  0.00     0.045 A 
HETATM   26  C17 UNL     1      19.240   1.151  50.364  1.00  0.00     0.116 A 
HETATM   27  F1  UNL     1      18.319   0.149  50.160  1.00  0.00    -0.206 F 
HETATM   28  C18 UNL     1      19.015   2.074  51.365  1.00  0.00     0.045 A 
HETATM   29  C19 UNL     1      19.965   3.060  51.533  1.00  0.00     0.040 A 
ENDBRANCH  22  23
ENDBRANCH  21  22
ENDBRANCH  18  21
ENDBRANCH  16  17
ENDBRANCH  15  16
ENDBRANCH  12  15
ENDBRANCH   5   7
ENDBRANCH   1   5
TORSDOF 9
ENDMDL
MODEL 2
REMARK VINA RESULT:      -7.0      4.095      5.478
REMARK  9 active torsions:
REMARK  status: ('A' for Active; 'I' for Inactive)
REMARK    1  A    between atoms: C2_2  and  C3_3 
REMARK    2  A    between atoms: C5_7  and  N3_8 
REMARK    3  A    between atoms: N3_8  and  C6_9 
REMARK    4  A    between atoms: C9_13  and  C10_14 
REMARK    5  A    between atoms: C10_14  and  C11_15 
REMARK    6  A    between atoms: C11_15  and  N5_16 
REMARK       I    between atoms: N5_16  and  C12_17 
REMARK    7  A    between atoms: C12_17  and  C13_19 
REMARK    8  A    between atoms: C13_19  and  O2_20 
REMARK    9  A    between atoms: O2_20  and  C14_21 
ROOT
HETATM    1  C6  UNL     1      27.018  -1.021  52.860  1.00  0.00     0.100 C 
HETATM    2  C7  UNL     1      28.291  -0.848  53.251  1.00  0.00     0.110 C 
HETATM    3  C8  UNL     1      28.490   0.332  54.078  1.00  0.00     0.089 C 
HETATM    4  N4  UNL     1      28.667   1.266  54.745  1.00  0.00    -0.192 NA
ENDROOT
BRANCH   1   5
HETATM    5  N3  UNL     1      26.163   0.001  53.353  1.00  0.00    -0.349 N 
HETATM    6  H6  UNL     1      26.676   0.860  53.086  1.00  0.00     0.166 HD
BRANCH   5   7
HETATM    7  C5  UNL     1      24.964  -0.348  54.011  1.00  0.00     0.141 A 
HETATM    8  N2  UNL     1      25.063  -1.181  55.057  1.00  0.00    -0.224 NA
HETATM    9  C4  UNL     1      23.983  -1.574  55.749  1.00  0.00     0.235 A 
HETATM   10  N1  UNL     1      22.755  -1.143  55.412  1.00  0.00    -0.241 NA
HETATM   11  C3  UNL     1      22.602  -0.308  54.370  1.00  0.00     0.068 A 
HETATM   12  C9  UNL     1      23.708   0.094  53.664  1.00  0.00     0.036 A 
BRANCH  11  13
HETATM   13  C2  UNL     1      21.353   0.034  54.157  1.00  0.00     0.002 C 
HETATM   14  C1  UNL     1      20.382  -1.037  53.814  1.00  0.00     0.038 C 
ENDBRANCH  11  13
BRANCH  12  15
HETATM   15  C10 UNL     1      23.576   0.901  52.646  1.00  0.00     0.010 C 
BRANCH  15  16
HETATM   16  C11 UNL     1      23.384   2.198  52.006  1.00  0.00     0.151 C 
BRANCH  16  17
HETATM   17  N5  UNL     1      24.696   2.715  51.568  1.00  0.00    -0.356 N 
HETATM   18  C12 UNL     1      24.827   2.950  50.172  1.00  0.00     0.242 C 
HETATM   19  O1  UNL     1      23.957   2.767  49.281  1.00  0.00    -0.271 OA
HETATM   20  H12 UNL     1      25.558   2.941  52.122  1.00  0.00     0.162 HD
BRANCH  18  21
HETATM   21  C13 UNL     1      26.097   3.475  49.567  1.00  0.00     0.278 C 
BRANCH  21  22
HETATM   22  O2  UNL     1      25.924   4.846  49.371  1.00  0.00    -0.342 OA
BRANCH  22  23
HETATM   23  C14 UNL     1      26.834   5.658  48.703  1.00  0.00     0.069 A 
HETATM   24  C15 UNL     1      26.632   6.917  48.166  1.00  0.00     0.040 A 
HETATM   25  C16 UNL     1      27.678   7.561  47.535  1.00  0.00     0.045 A 
HETATM   26  C17 UNL     1      28.909   6.936  47.452  1.00  0.00     0.116 A 
HETATM   27  F1  UNL     1      29.934   7.601  46.818  1.00  0.00    -0.206 F 
HETATM   28  C18 UNL     1      29.147   5.681  47.976  1.00  0.00     0.045 A 
HETATM   29  C19 UNL     1      28.090   5.053  48.602  1.00  0.00     0.040 A 
ENDBRANCH  22  23
ENDBRANCH  21  22
ENDBRANCH  18  21
ENDBRANCH  16  17
ENDBRANCH  15  16
ENDBRANCH  12  15
ENDBRANCH   5   7
ENDBRANCH   1   5
TORSDOF 9
ENDMDL
MODEL 3
REMARK VINA RESULT:      -7.0      2.584      4.527
REMARK  9 active torsions:
REMARK  status: ('A' for Active; 'I' for Inactive)
REMARK    1  A    between atoms: C2_2  and  C3_3 
REMARK    2  A    between atoms: C5_7  and  N3_8 
REMARK    3  A    between atoms: N3_8  and  C6_9 
REMARK    4  A    between atoms: C9_13  and  C10_14 
REMARK    5  A    between atoms: C10_14  and  C11_15 
REMARK    6  A    between atoms: C11_15  and  N5_16 
REMARK       I    between atoms: N5_16  and  C12_17 
REMARK    7  A    between atoms: C12_17  and  C13_19 
REMARK    8  A    between atoms: C13_19  and  O2_20 
REMARK    9  A    between atoms: O2_20  and  C14_21 
ROOT
HETATM    1  C6  UNL     1      28.393   2.066  53.460  1.00  0.00     0.100 C 
HETATM    2  C7  UNL     1      29.390   1.308  53.944  1.00  0.00     0.110 C 
HETATM    3  C8  UNL     1      29.108  -0.118  53.901  1.00  0.00     0.089 C 
HETATM    4  N4  UNL     1      28.903  -1.261  53.870  1.00  0.00    -0.192 NA
ENDROOT
BRANCH   1   5
HETATM    5  N3  UNL     1      27.291   1.285  53.018  1.00  0.00    -0.349 N 
HETATM    6  H6  UNL     1      27.423   0.406  53.550  1.00  0.00     0.166 HD
BRANCH   5   7
HETATM    7  C5  UNL     1      26.389   1.821  52.075  1.00  0.00     0.141 A 
HETATM    8  N2  UNL     1      26.895   2.647  51.147  1.00  0.00    -0.224 NA
HETATM    9  C4  UNL     1      26.120   3.208  50.207  1.00  0.00     0.235 A 
HETATM   10  N1  UNL     1      24.800   2.961  50.164  1.00  0.00    -0.241 NA
HETATM   11  C3  UNL     1      24.243   2.141  51.072  1.00  0.00     0.068 A 
HETATM   12  C9  UNL     1      25.037   1.567  52.033  1.00  0.00     0.036 A 
BRANCH  11  13
HETATM   13  C2  UNL     1      22.950   1.987  50.911  1.00  0.00     0.002 C 
HETATM   14  C1  UNL     1      22.339   2.470  49.646  1.00  0.00     0.038 C 
ENDBRANCH  11  13
BRANCH  12  15
HETATM   15  C10 UNL     1      24.511   0.772  52.926  1.00  0.00     0.010 C 
BRANCH  15  16
HETATM   16  C11 UNL     1      24.085  -0.519  53.457  1.00  0.00     0.151 C 
BRANCH  16  17
HETATM   17  N5  UNL     1      22.633  -0.672  53.236  1.00  0.00    -0.356 N 
HETATM   18  C12 UNL     1      21.914  -1.285  54.298  1.00  0.00     0.242 C 
HETATM   19  O1  UNL     1      22.374  -1.705  55.391  1.00  0.00    -0.271 OA
HETATM   20  H12 UNL     1      22.037  -0.401  52.417  1.00  0.00     0.162 HD
BRANCH  18  21
HETATM   21  C13 UNL     1      20.431  -1.513  54.230  1.00  0.00     0.278 C 
BRANCH  21  22
HETATM   22  O2  UNL     1      19.903  -0.543  53.376  1.00  0.00    -0.342 OA
BRANCH  22  23
HETATM   23  C14 UNL     1      18.682  -0.661  52.722  1.00  0.00     0.069 A 
HETATM   24  C15 UNL     1      17.536  -1.308  53.147  1.00  0.00     0.040 A 
HETATM   25  C16 UNL     1      16.417  -1.309  52.338  1.00  0.00     0.045 A 
HETATM   26  C17 UNL     1      16.462  -0.661  51.117  1.00  0.00     0.116 A 
HETATM   27  F1  UNL     1      15.333  -0.677  50.331  1.00  0.00    -0.206 F 
HETATM   28  C18 UNL     1      17.587  -0.005  50.660  1.00  0.00     0.045 A 
HETATM   29  C19 UNL     1      18.695  -0.016  51.481  1.00  0.00     0.040 A 
ENDBRANCH  22  23
ENDBRANCH  21  22
ENDBRANCH  18  21
ENDBRANCH  16  17
ENDBRANCH  15  16
ENDBRANCH  12  15
ENDBRANCH   5   7
ENDBRANCH   1   5
TORSDOF 9
ENDMDL
MODEL 4
REMARK VINA RESULT:      -6.7      2.025      4.166
REMARK  9 active torsions:
REMARK  status: ('A' for Active; 'I' for Inactive)
REMARK    1  A    between atoms: C2_2  and  C3_3 
REMARK    2  A    between atoms: C5_7  and  N3_8 
REMARK    3  A    between atoms: N3_8  and  C6_9 
REMARK    4  A    between atoms: C9_13  and  C10_14 
REMARK    5  A    between atoms: C10_14  and  C11_15 
REMARK    6  A    between atoms: C11_15  and  N5_16 
REMARK       I    between atoms: N5_16  and  C12_17 
REMARK    7  A    between atoms: C12_17  and  C13_19 
REMARK    8  A    between atoms: C13_19  and  O2_20 
REMARK    9  A    between atoms: O2_20  and  C14_21 
ROOT
HETATM    1  C6  UNL     1      22.479   0.719  52.172  1.00  0.00     0.100 C 
HETATM    2  C7  UNL     1      21.636   1.764  52.198  1.00  0.00     0.110 C 
HETATM    3  C8  UNL     1      22.309   3.052  52.251  1.00  0.00     0.089 C 
HETATM    4  N4  UNL     1      22.829   4.089  52.287  1.00  0.00    -0.192 NA
ENDROOT
BRANCH   1   5
HETATM    5  N3  UNL     1      23.840   1.126  52.202  1.00  0.00    -0.349 N 
HETATM    6  H6  UNL     1      23.876   1.816  51.430  1.00  0.00     0.166 HD
BRANCH   5   7
HETATM    7  C5  UNL     1      24.716   0.567  53.157  1.00  0.00     0.141 A 
HETATM    8  N2  UNL     1      24.216  -0.385  53.958  1.00  0.00    -0.224 NA
HETATM    9  C4  UNL     1      24.967  -0.979  54.898  1.00  0.00     0.235 A 
HETATM   10  N1  UNL     1      26.255  -0.635  55.069  1.00  0.00    -0.241 NA
HETATM   11  C3  UNL     1      26.804   0.314  54.291  1.00  0.00     0.068 A 
HETATM   12  C9  UNL     1      26.035   0.920  53.330  1.00  0.00     0.036 A 
BRANCH  11  13
HETATM   13  C2  UNL     1      28.066   0.546  54.565  1.00  0.00     0.002 C 
HETATM   14  C1  UNL     1      29.078  -0.427  54.082  1.00  0.00     0.038 C 
ENDBRANCH  11  13
BRANCH  12  15
HETATM   15  C10 UNL     1      26.550   1.849  52.570  1.00  0.00     0.010 C 
BRANCH  15  16
HETATM   16  C11 UNL     1      26.781   2.543  51.307  1.00  0.00     0.151 C 
BRANCH  16  17
HETATM   17  N5  UNL     1      25.731   3.565  51.124  1.00  0.00    -0.356 N 
HETATM   18  C12 UNL     1      25.848   4.360  49.951  1.00  0.00     0.242 C 
HETATM   19  O1  UNL     1      26.737   4.288  49.064  1.00  0.00    -0.271 OA
HETATM   20  H12 UNL     1      24.903   3.806  51.722  1.00  0.00     0.162 HD
BRANCH  18  21
HETATM   21  C13 UNL     1      24.862   5.442  49.619  1.00  0.00     0.278 C 
BRANCH  21  22
HETATM   22  O2  UNL     1      24.109   4.995  48.532  1.00  0.00    -0.342 OA
BRANCH  22  23
HETATM   23  C14 UNL     1      22.921   4.282  48.647  1.00  0.00     0.069 A 
HETATM   24  C15 UNL     1      21.649   4.762  48.900  1.00  0.00     0.040 A 
HETATM   25  C16 UNL     1      20.592   3.877  48.977  1.00  0.00     0.045 A 
HETATM   26  C17 UNL     1      20.824   2.525  48.798  1.00  0.00     0.116 A 
HETATM   27  F1  UNL     1      19.753   1.666  48.879  1.00  0.00    -0.206 F 
HETATM   28  C18 UNL     1      22.079   2.010  48.543  1.00  0.00     0.045 A 
HETATM   29  C19 UNL     1      23.123   2.909  48.471  1.00  0.00     0.040 A 
ENDBRANCH  22  23
ENDBRANCH  21  22
ENDBRANCH  18  21
ENDBRANCH  16  17
ENDBRANCH  15  16
ENDBRANCH  12  15
ENDBRANCH   5   7
ENDBRANCH   1   5
TORSDOF 9
ENDMDL
MODEL 5
REMARK VINA RESULT:      -6.6      2.955      6.829
REMARK  9 active torsions:
REMARK  status: ('A' for Active; 'I' for Inactive)
REMARK    1  A    between atoms: C2_2  and  C3_3 
REMARK    2  A    between atoms: C5_7  and  N3_8 
REMARK    3  A    between atoms: N3_8  and  C6_9 
REMARK    4  A    between atoms: C9_13  and  C10_14 
REMARK    5  A    between atoms: C10_14  and  C11_15 
REMARK    6  A    between atoms: C11_15  and  N5_16 
REMARK       I    between atoms: N5_16  and  C12_17 
REMARK    7  A    between atoms: C12_17  and  C13_19 
REMARK    8  A    between atoms: C13_19  and  O2_20 
REMARK    9  A    between atoms: O2_20  and  C14_21 
ROOT
HETATM    1  C6  UNL     1      22.544   4.775  51.526  1.00  0.00     0.100 C 
HETATM    2  C7  UNL     1      21.250   4.486  51.313  1.00  0.00     0.110 C 
HETATM    3  C8  UNL     1      21.036   3.550  50.221  1.00  0.00     0.089 C 
HETATM    4  N4  UNL     1      20.847   2.799  49.355  1.00  0.00    -0.192 NA
ENDROOT
BRANCH   1   5
HETATM    5  N3  UNL     1      23.402   4.091  50.624  1.00  0.00    -0.349 N 
HETATM    6  H6  UNL     1      23.080   3.111  50.722  1.00  0.00     0.166 HD
BRANCH   5   7
HETATM    7  C5  UNL     1      24.373   4.813  49.898  1.00  0.00     0.141 A 
HETATM    8  N2  UNL     1      24.002   6.004  49.404  1.00  0.00    -0.224 NA
HETATM    9  C4  UNL     1      24.850   6.768  48.699  1.00  0.00     0.235 A 
HETATM   10  N1  UNL     1      26.109   6.362  48.463  1.00  0.00    -0.241 NA
HETATM   11  C3  UNL     1      26.530   5.176  48.935  1.00  0.00     0.068 A 
HETATM   12  C9  UNL     1      25.661   4.396  49.657  1.00  0.00     0.036 A 
BRANCH  11  13
HETATM   13  C2  UNL     1      27.778   4.908  48.633  1.00  0.00     0.002 C 
HETATM   14  C1  UNL     1      28.643   6.025  48.175  1.00  0.00     0.038 C 
ENDBRANCH  11  13
BRANCH  12  15
HETATM   15  C10 UNL     1      26.052   3.238  50.119  1.00  0.00     0.010 C 
BRANCH  15  16
HETATM   16  C11 UNL     1      26.760   2.355  51.040  1.00  0.00     0.151 C 
BRANCH  16  17
HETATM   17  N5  UNL     1      25.799   1.824  52.027  1.00  0.00    -0.356 N 
HETATM   18  C12 UNL     1      25.909   0.433  52.301  1.00  0.00     0.242 C 
HETATM   19  O1  UNL     1      26.725  -0.383  51.800  1.00  0.00    -0.271 OA
HETATM   20  H12 UNL     1      25.040   2.306  52.567  1.00  0.00     0.162 HD
BRANCH  18  21
HETATM   21  C13 UNL     1      25.007  -0.261  53.280  1.00  0.00     0.278 C 
BRANCH  21  22
HETATM   22  O2  UNL     1      23.967   0.621  53.580  1.00  0.00    -0.342 OA
BRANCH  22  23
HETATM   23  C14 UNL     1      22.618   0.297  53.487  1.00  0.00     0.069 A 
HETATM   24  C15 UNL     1      21.617   0.964  52.806  1.00  0.00     0.040 A 
HETATM   25  C16 UNL     1      20.327   0.471  52.842  1.00  0.00     0.045 A 
HETATM   26  C17 UNL     1      20.061  -0.682  53.558  1.00  0.00     0.116 A 
HETATM   27  F1  UNL     1      18.767  -1.151  53.576  1.00  0.00    -0.206 F 
HETATM   28  C18 UNL     1      21.035  -1.374  54.249  1.00  0.00     0.045 A 
HETATM   29  C19 UNL     1      22.316  -0.867  54.203  1.00  0.00     0.040 A 
ENDBRANCH  22  23
ENDBRANCH  21  22
ENDBRANCH  18  21
ENDBRANCH  16  17
ENDBRANCH  15  16
ENDBRANCH  12  15
ENDBRANCH   5   7
ENDBRANCH   1   5
TORSDOF 9
ENDMDL
MODEL 6
REMARK VINA RESULT:      -6.6      3.439      7.357
REMARK  9 active torsions:
REMARK  status: ('A' for Active; 'I' for Inactive)
REMARK    1  A    between atoms: C2_2  and  C3_3 
REMARK    2  A    between atoms: C5_7  and  N3_8 
REMARK    3  A    between atoms: N3_8  and  C6_9 
REMARK    4  A    between atoms: C9_13  and  C10_14 
REMARK    5  A    between atoms: C10_14  and  C11_15 
REMARK    6  A    between atoms: C11_15  and  N5_16 
REMARK       I    between atoms: N5_16  and  C12_17 
REMARK    7  A    between atoms: C12_17  and  C13_19 
REMARK    8  A    between atoms: C13_19  and  O2_20 
REMARK    9  A    between atoms: O2_20  and  C14_21 
ROOT
HETATM    1  C6  UNL     1      18.190   2.036  49.480  1.00  0.00     0.100 C 
HETATM    2  C7  UNL     1      18.559   2.984  48.604  1.00  0.00     0.110 C 
HETATM    3  C8  UNL     1      19.885   2.775  48.045  1.00  0.00     0.089 C 
HETATM    4  N4  UNL     1      20.940   2.621  47.584  1.00  0.00    -0.192 NA
ENDROOT
BRANCH   1   5
HETATM    5  N3  UNL     1      19.195   1.046  49.653  1.00  0.00    -0.349 N 
HETATM    6  H6  UNL     1      19.558   0.938  48.689  1.00  0.00     0.166 HD
BRANCH   5   7
HETATM    7  C5  UNL     1      19.432   0.507  50.935  1.00  0.00     0.141 A 
HETATM    8  N2  UNL     1      18.376  -0.002  51.587  1.00  0.00    -0.224 NA
HETATM    9  C4  UNL     1      18.496  -0.537  52.812  1.00  0.00     0.235 A 
HETATM   10  N1  UNL     1      19.689  -0.581  53.430  1.00  0.00    -0.241 NA
HETATM   11  C3  UNL     1      20.779  -0.084  52.819  1.00  0.00     0.068 A 
HETATM   12  C9  UNL     1      20.654   0.462  51.567  1.00  0.00     0.036 A 
BRANCH  11  13
HETATM   13  C2  UNL     1      21.872  -0.195  53.535  1.00  0.00     0.002 C 
HETATM   14  C1  UNL     1      22.697  -1.419  53.368  1.00  0.00     0.038 C 
ENDBRANCH  11  13
BRANCH  12  15
HETATM   15  C10 UNL     1      21.701   0.955  50.961  1.00  0.00     0.010 C 
BRANCH  15  16
HETATM   16  C11 UNL     1      22.631   2.015  50.585  1.00  0.00     0.151 C 
BRANCH  16  17
HETATM   17  N5  UNL     1      23.926   1.774  51.253  1.00  0.00    -0.356 N 
HETATM   18  C12 UNL     1      24.175   2.566  52.408  1.00  0.00     0.242 C 
HETATM   19  O1  UNL     1      23.422   3.437  52.915  1.00  0.00    -0.271 OA
HETATM   20  H12 UNL     1      24.702   1.110  51.016  1.00  0.00     0.162 HD
BRANCH  18  21
HETATM   21  C13 UNL     1      25.444   2.443  53.200  1.00  0.00     0.278 C 
BRANCH  21  22
HETATM   22  O2  UNL     1      25.479   1.150  53.726  1.00  0.00    -0.342 OA
BRANCH  22  23
HETATM   23  C14 UNL     1      26.577   0.302  53.639  1.00  0.00     0.069 A 
HETATM   24  C15 UNL     1      27.838   0.466  54.183  1.00  0.00     0.040 A 
HETATM   25  C16 UNL     1      28.798  -0.505  53.976  1.00  0.00     0.045 A 
HETATM   26  C17 UNL     1      28.481  -1.625  53.229  1.00  0.00     0.116 A 
HETATM   27  F1  UNL     1      29.456  -2.577  53.040  1.00  0.00    -0.206 F 
HETATM   28  C18 UNL     1      27.234  -1.823  52.672  1.00  0.00     0.045 A 
HETATM   29  C19 UNL     1      26.288  -0.842  52.888  1.00  0.00     0.040 A 
ENDBRANCH  22  23
ENDBRANCH  21  22
ENDBRANCH  18  21
ENDBRANCH  16  17
ENDBRANCH  15  16
ENDBRANCH  12  15
ENDBRANCH   5   7
ENDBRANCH   1   5
TORSDOF 9
ENDMDL
MODEL 7
REMARK VINA RESULT:      -6.5      4.965      7.762
REMARK  9 active torsions:
REMARK  status: ('A' for Active; 'I' for Inactive)
REMARK    1  A    between atoms: C2_2  and  C3_3 
REMARK    2  A    between atoms: C5_7  and  N3_8 
REMARK    3  A    between atoms: N3_8  and  C6_9 
REMARK    4  A    between atoms: C9_13  and  C10_14 
REMARK    5  A    between atoms: C10_14  and  C11_15 
REMARK    6  A    between atoms: C11_15  and  N5_16 
REMARK       I    between atoms: N5_16  and  C12_17 
REMARK    7  A    between atoms: C12_17  and  C13_19 
REMARK    8  A    between atoms: C13_19  and  O2_20 
REMARK    9  A    between atoms: O2_20  and  C14_21 
ROOT
HETATM    1  C6  UNL     1      28.377   9.631  49.373  1.00  0.00     0.100 C 
HETATM    2  C7  UNL     1      29.255  10.462  48.788  1.00  0.00     0.110 C 
HETATM    3  C8  UNL     1      29.283  10.349  47.338  1.00  0.00     0.089 C 
HETATM    4  N4  UNL     1      29.315  10.277  46.179  1.00  0.00    -0.192 NA
ENDROOT
BRANCH   1   5
HETATM    5  N3  UNL     1      27.681   8.833  48.426  1.00  0.00    -0.349 N 
HETATM    6  H6  UNL     1      27.275   9.549  47.798  1.00  0.00     0.166 HD
BRANCH   5   7
HETATM    7  C5  UNL     1      27.700   7.427  48.548  1.00  0.00     0.141 A 
HETATM    8  N2  UNL     1      28.796   6.792  48.107  1.00  0.00    -0.224 NA
HETATM    9  C4  UNL     1      28.912   5.457  48.178  1.00  0.00     0.235 A 
HETATM   10  N1  UNL     1      27.925   4.707  48.696  1.00  0.00    -0.241 NA
HETATM   11  C3  UNL     1      26.805   5.295  49.151  1.00  0.00     0.068 A 
HETATM   12  C9  UNL     1      26.688   6.660  49.079  1.00  0.00     0.036 A 
BRANCH  11  13
HETATM   13  C2  UNL     1      25.929   4.444  49.632  1.00  0.00     0.002 C 
HETATM   14  C1  UNL     1      26.387   3.066  49.941  1.00  0.00     0.038 C 
ENDBRANCH  11  13
BRANCH  12  15
HETATM   15  C10 UNL     1      25.605   7.247  49.512  1.00  0.00     0.010 C 
BRANCH  15  16
HETATM   16  C11 UNL     1      24.783   7.940  50.499  1.00  0.00     0.151 C 
BRANCH  16  17
HETATM   17  N5  UNL     1      24.252   6.950  51.458  1.00  0.00    -0.356 N 
HETATM   18  C12 UNL     1      23.032   6.325  51.080  1.00  0.00     0.242 C 
HETATM   19  O1  UNL     1      22.366   6.520  50.031  1.00  0.00    -0.271 OA
HETATM   20  H12 UNL     1      24.628   6.629  52.383  1.00  0.00     0.162 HD
BRANCH  18  21
HETATM   21  C13 UNL     1      22.362   5.297  51.945  1.00  0.00     0.278 C 
BRANCH  21  22
HETATM   22  O2  UNL     1      23.369   4.614  52.630  1.00  0.00    -0.342 OA
BRANCH  22  23
HETATM   23  C14 UNL     1      23.504   3.231  52.641  1.00  0.00     0.069 A 
HETATM   24  C15 UNL     1      22.596   2.273  52.227  1.00  0.00     0.040 A 
HETATM   25  C16 UNL     1      22.929   0.936  52.323  1.00  0.00     0.045 A 
HETATM   26  C17 UNL     1      24.164   0.579  52.831  1.00  0.00     0.116 A 
HETATM   27  F1  UNL     1      24.469  -0.760  52.914  1.00  0.00    -0.206 F 
HETATM   28  C18 UNL     1      25.095   1.506  53.253  1.00  0.00     0.045 A 
HETATM   29  C19 UNL     1      24.745   2.836  53.150  1.00  0.00     0.040 A 
ENDBRANCH  22  23
ENDBRANCH  21  22
ENDBRANCH  18  21
ENDBRANCH  16  17
ENDBRANCH  15  16
ENDBRANCH  12  15
ENDBRANCH   5   7
ENDBRANCH   1   5
TORSDOF 9
ENDMDL
MODEL 8
REMARK VINA RESULT:      -6.4      4.678      7.072
REMARK  9 active torsions:
REMARK  status: ('A' for Active; 'I' for Inactive)
REMARK    1  A    between atoms: C2_2  and  C3_3 
REMARK    2  A    between atoms: C5_7  and  N3_8 
REMARK    3  A    between atoms: N3_8  and  C6_9 
REMARK    4  A    between atoms: C9_13  and  C10_14 
REMARK    5  A    between atoms: C10_14  and  C11_15 
REMARK    6  A    between atoms: C11_15  and  N5_16 
REMARK       I    between atoms: N5_16  and  C12_17 
REMARK    7  A    between atoms: C12_17  and  C13_19 
REMARK    8  A    between atoms: C13_19  and  O2_20 
REMARK    9  A    between atoms: O2_20  and  C14_21 
ROOT
HETATM    1  C6  UNL     1      21.583   2.857  50.687  1.00  0.00     0.100 C 
HETATM    2  C7  UNL     1      21.137   4.081  50.361  1.00  0.00     0.110 C 
HETATM    3  C8  UNL     1      21.876   5.158  51.000  1.00  0.00     0.089 C 
HETATM    4  N4  UNL     1      22.459   6.031  51.498  1.00  0.00    -0.192 NA
ENDROOT
BRANCH   1   5
HETATM    5  N3  UNL     1      22.682   2.908  51.587  1.00  0.00    -0.349 N 
HETATM    6  H6  UNL     1      23.031   3.873  51.445  1.00  0.00     0.166 HD
BRANCH   5   7
HETATM    7  C5  UNL     1      23.001   1.776  52.365  1.00  0.00     0.141 A 
HETATM    8  N2  UNL     1      21.979   1.114  52.926  1.00  0.00    -0.224 NA
HETATM    9  C4  UNL     1      22.177   0.025  53.685  1.00  0.00     0.235 A 
HETATM   10  N1  UNL     1      23.417  -0.441  53.910  1.00  0.00    -0.241 NA
HETATM   11  C3  UNL     1      24.477   0.187  53.371  1.00  0.00     0.068 A 
HETATM   12  C9  UNL     1      24.272   1.300  52.594  1.00  0.00     0.036 A 
BRANCH  11  13
HETATM   13  C2  UNL     1      25.623  -0.377  53.669  1.00  0.00     0.002 C 
HETATM   14  C1  UNL     1      26.269  -0.013  54.957  1.00  0.00     0.038 C 
ENDBRANCH  11  13
BRANCH  12  15
HETATM   15  C10 UNL     1      25.290   1.926  52.068  1.00  0.00     0.010 C 
BRANCH  15  16
HETATM   16  C11 UNL     1      26.293   2.183  51.039  1.00  0.00     0.151 C 
BRANCH  16  17
HETATM   17  N5  UNL     1      26.509   3.640  50.935  1.00  0.00    -0.356 N 
HETATM   18  C12 UNL     1      25.614   4.331  50.073  1.00  0.00     0.242 C 
HETATM   19  O1  UNL     1      24.671   3.842  49.398  1.00  0.00    -0.271 OA
HETATM   20  H12 UNL     1      27.220   4.258  51.395  1.00  0.00     0.162 HD
BRANCH  18  21
HETATM   21  C13 UNL     1      25.700   5.814  49.857  1.00  0.00     0.278 C 
BRANCH  21  22
HETATM   22  O2  UNL     1      26.148   6.016  48.551  1.00  0.00    -0.342 OA
BRANCH  22  23
HETATM   23  C14 UNL     1      27.480   6.210  48.204  1.00  0.00     0.069 A 
HETATM   24  C15 UNL     1      28.555   5.365  48.412  1.00  0.00     0.040 A 
HETATM   25  C16 UNL     1      29.812   5.749  47.987  1.00  0.00     0.045 A 
HETATM   26  C17 UNL     1      29.973   6.972  47.362  1.00  0.00     0.116 A 
HETATM   27  F1  UNL     1      31.236   7.330  46.949  1.00  0.00    -0.206 F 
HETATM   28  C18 UNL     1      28.923   7.841  47.138  1.00  0.00     0.045 A 
HETATM   29  C19 UNL     1      27.676   7.440  47.569  1.00  0.00     0.040 A 
ENDBRANCH  22  23
ENDBRANCH  21  22
ENDBRANCH  18  21
ENDBRANCH  16  17
ENDBRANCH  15  16
ENDBRANCH  12  15
ENDBRANCH   5   7
ENDBRANCH   1   5
TORSDOF 9
ENDMDL
MODEL 9
REMARK VINA RESULT:      -6.3      3.965      6.443
REMARK  9 active torsions:
REMARK  status: ('A' for Active; 'I' for Inactive)
REMARK    1  A    between atoms: C2_2  and  C3_3 
REMARK    2  A    between atoms: C5_7  and  N3_8 
REMARK    3  A    between atoms: N3_8  and  C6_9 
REMARK    4  A    between atoms: C9_13  and  C10_14 
REMARK    5  A    between atoms: C10_14  and  C11_15 
REMARK    6  A    between atoms: C11_15  and  N5_16 
REMARK       I    between atoms: N5_16  and  C12_17 
REMARK    7  A    between atoms: C12_17  and  C13_19 
REMARK    8  A    between atoms: C13_19  and  O2_20 
REMARK    9  A    between atoms: O2_20  and  C14_21 
ROOT
HETATM    1  C6  UNL     1      20.957   2.924  50.516  1.00  0.00     0.100 C 
HETATM    2  C7  UNL     1      21.457   3.998  49.884  1.00  0.00     0.110 C 
HETATM    3  C8  UNL     1      22.265   4.853  50.740  1.00  0.00     0.089 C 
HETATM    4  N4  UNL     1      22.917   5.544  51.407  1.00  0.00    -0.192 NA
ENDROOT
BRANCH   1   5
HETATM    5  N3  UNL     1      21.341   2.880  51.884  1.00  0.00    -0.349 N 
HETATM    6  H6  UNL     1      21.529   3.878  52.087  1.00  0.00     0.166 HD
BRANCH   5   7
HETATM    7  C5  UNL     1      21.373   1.643  52.561  1.00  0.00     0.141 A 
HETATM    8  N2  UNL     1      20.202   1.013  52.737  1.00  0.00    -0.224 NA
HETATM    9  C4  UNL     1      20.126  -0.168  53.369  1.00  0.00     0.235 A 
HETATM   10  N1  UNL     1      21.230  -0.763  53.851  1.00  0.00    -0.241 NA
HETATM   11  C3  UNL     1      22.429  -0.173  53.701  1.00  0.00     0.068 A 
HETATM   12  C9  UNL     1      22.505   1.034  53.054  1.00  0.00     0.036 A 
BRANCH  11  13
HETATM   13  C2  UNL     1      23.417  -0.866  54.215  1.00  0.00     0.002 C 
HETATM   14  C1  UNL     1      23.293  -1.327  55.622  1.00  0.00     0.038 C 
ENDBRANCH  11  13
BRANCH  12  15
HETATM   15  C10 UNL     1      23.661   1.624  52.904  1.00  0.00     0.010 C 
BRANCH  15  16
HETATM   16  C11 UNL     1      24.662   2.651  53.170  1.00  0.00     0.151 C 
BRANCH  16  17
HETATM   17  N5  UNL     1      25.057   3.277  51.892  1.00  0.00    -0.356 N 
HETATM   18  C12 UNL     1      26.153   2.665  51.224  1.00  0.00     0.242 C 
HETATM   19  O1  UNL     1      26.814   1.662  51.598  1.00  0.00    -0.271 OA
HETATM   20  H12 UNL     1      24.660   4.107  51.389  1.00  0.00     0.162 HD
BRANCH  18  21
HETATM   21  C13 UNL     1      26.677   3.180  49.915  1.00  0.00     0.278 C 
BRANCH  21  22
HETATM   22  O2  UNL     1      25.973   4.350  49.620  1.00  0.00    -0.342 OA
BRANCH  22  23
HETATM   23  C14 UNL     1      26.504   5.421  48.910  1.00  0.00     0.069 A 
HETATM   24  C15 UNL     1      27.813   5.632  48.520  1.00  0.00     0.040 A 
HETATM   25  C16 UNL     1      28.136   6.774  47.814  1.00  0.00     0.045 A 
HETATM   26  C17 UNL     1      27.142   7.686  47.507  1.00  0.00     0.116 A 
HETATM   27  F1  UNL     1      27.491   8.814  46.802  1.00  0.00    -0.206 F 
HETATM   28  C18 UNL     1      25.825   7.508  47.879  1.00  0.00     0.045 A 
HETATM   29  C19 UNL     1      25.522   6.362  48.585  1.00  0.00     0.040 A 
ENDBRANCH  22  23
ENDBRANCH  21  22
ENDBRANCH  18  21
ENDBRANCH  16  17
ENDBRANCH  15  16
ENDBRANCH  12  15
ENDBRANCH   5   7
ENDBRANCH   1   5
TORSDOF 9
ENDMDL
