MODEL 1
REMARK VINA RESULT:      -8.4      0.000      0.000
REMARK  2 active torsions:
REMARK  status: ('A' for Active; 'I' for Inactive)
REMARK    1  A    between atoms: C4_5  and  N1_6 
REMARK    2  A    between atoms: N1_6  and  C5_7 
ROOT
HETATM    1  C5  UNL     1      24.521   0.976  52.383  1.00  0.00     0.139 A 
HETATM    2  N2  UNL     1      25.266   2.009  51.986  1.00  0.00    -0.224 NA
HETATM    3  C6  UNL     1      24.824   3.204  51.584  1.00  0.00     0.236 A 
HETATM    4  N3  UNL     1      23.507   3.391  51.576  1.00  0.00    -0.234 NA
HETATM    5  C7  UNL     1      22.745   2.321  51.986  1.00  0.00     0.114 A 
HETATM    6  S1  UNL     1      20.891   2.264  52.083  1.00  0.00    -0.072 SA
HETATM    7  C8  UNL     1      20.857   0.590  52.674  1.00  0.00     0.020 A 
HETATM    8  C9  UNL     1      22.187   0.193  52.759  1.00  0.00    -0.025 A 
HETATM    9  C10 UNL     1      23.154   1.057  52.413  1.00  0.00     0.053 A 
HETATM   10  C11 UNL     1      22.074  -1.187  53.253  1.00  0.00     0.070 C 
HETATM   11  C12 UNL     1      21.304  -1.075  54.590  1.00  0.00     0.274 C 
HETATM   12  N4  UNL     1      19.890  -0.958  54.277  1.00  0.00     0.088 N 
HETATM   13  C13 UNL     1      19.693  -0.258  53.020  1.00  0.00     0.316 C 
HETATM   14  H12 UNL     1      19.451  -1.909  54.283  1.00  0.00     0.316 HD
ENDROOT
BRANCH   1  15
HETATM   15  N1  UNL     1      25.218  -0.202  52.759  1.00  0.00    -0.364 N 
HETATM   16  H6  UNL     1      25.069  -1.197  52.835  1.00  0.00     0.162 HD
BRANCH  15  17
HETATM   17  C4  UNL     1      26.588  -0.043  53.190  1.00  0.00     0.130 C 
HETATM   18  C3  UNL     1      26.721   0.366  54.644  1.00  0.00     0.203 C 
HETATM   19  O1  UNL     1      27.830   1.232  54.800  1.00  0.00    -0.361 OA
HETATM   20  C2  UNL     1      29.183   0.932  54.547  1.00  0.00     0.134 C 
HETATM   21  C1  UNL     1      29.615  -0.126  53.842  1.00  0.00     0.024 C 
HETATM   22  C15 UNL     1      28.762  -1.152  53.212  1.00  0.00    -0.000 C 
HETATM   23  C14 UNL     1      27.476  -1.178  52.910  1.00  0.00     0.000 C 
ENDBRANCH  15  17
ENDBRANCH   1  15
TORSDOF 2
ENDMDL
MODEL 2
REMARK VINA RESULT:      -8.1      1.082      1.202
REMARK  2 active torsions:
REMARK  status: ('A' for Active; 'I' for Inactive)
REMARK    1  A    between atoms: C4_5  and  N1_6 
REMARK    2  A    between atoms: N1_6  and  C5_7 
ROOT
HETATM    1  C5  UNL     1      24.922   1.480  52.674  1.00  0.00     0.139 A 
HETATM    2  N2  UNL     1      25.684   2.302  51.951  1.00  0.00    -0.224 NA
HETATM    3  C6  UNL     1      25.337   2.926  50.822  1.00  0.00     0.236 A 
HETATM    4  N3  UNL     1      24.107   2.709  50.365  1.00  0.00    -0.234 NA
HETATM    5  C7  UNL     1      23.327   1.859  51.115  1.00  0.00     0.114 A 
HETATM    6  S1  UNL     1      21.578   1.355  50.744  1.00  0.00    -0.072 SA
HETATM    7  C8  UNL     1      21.449   0.317  52.179  1.00  0.00     0.020 A 
HETATM    8  C9  UNL     1      22.678   0.409  52.822  1.00  0.00    -0.025 A 
HETATM    9  C10 UNL     1      23.639   1.185  52.296  1.00  0.00     0.053 A 
HETATM   10  C11 UNL     1      22.491  -0.466  53.989  1.00  0.00     0.070 C 
HETATM   11  C12 UNL     1      21.274   0.121  54.743  1.00  0.00     0.274 C 
HETATM   12  N4  UNL     1      20.072  -0.340  54.070  1.00  0.00     0.088 N 
HETATM   13  C13 UNL     1      20.304  -0.499  52.644  1.00  0.00     0.316 C 
HETATM   14  H12 UNL     1      19.733  -1.220  54.524  1.00  0.00     0.316 HD
ENDROOT
BRANCH   1  15
HETATM   15  N1  UNL     1      25.514   0.926  53.840  1.00  0.00    -0.364 N 
HETATM   16  H6  UNL     1      25.360   0.878  54.836  1.00  0.00     0.162 HD
BRANCH  15  17
HETATM   17  C4  UNL     1      26.732   0.170  53.660  1.00  0.00     0.130 C 
HETATM   18  C3  UNL     1      27.598   0.113  54.903  1.00  0.00     0.203 C 
HETATM   19  O1  UNL     1      28.965   0.123  54.538  1.00  0.00    -0.361 OA
HETATM   20  C2  UNL     1      29.645  -0.843  53.770  1.00  0.00     0.134 C 
HETATM   21  C1  UNL     1      29.052  -1.780  53.014  1.00  0.00     0.024 C 
HETATM   22  C15 UNL     1      27.596  -1.965  52.854  1.00  0.00    -0.000 C 
HETATM   23  C14 UNL     1      26.564  -1.180  53.108  1.00  0.00     0.000 C 
ENDBRANCH  15  17
ENDBRANCH   1  15
TORSDOF 2
ENDMDL
MODEL 3
REMARK VINA RESULT:      -7.6      1.644      3.471
REMARK  2 active torsions:
REMARK  status: ('A' for Active; 'I' for Inactive)
REMARK    1  A    between atoms: C4_5  and  N1_6 
REMARK    2  A    between atoms: N1_6  and  C5_7 
ROOT
HETATM    1  C5  UNL     1      24.098   0.326  52.807  1.00  0.00     0.139 A 
HETATM    2  N2  UNL     1      24.081  -0.569  53.797  1.00  0.00    -0.224 NA
HETATM    3  C6  UNL     1      23.042  -0.874  54.579  1.00  0.00     0.236 A 
HETATM    4  N3  UNL     1      21.904  -0.223  54.355  1.00  0.00    -0.234 NA
HETATM    5  C7  UNL     1      21.929   0.699  53.333  1.00  0.00     0.114 A 
HETATM    6  S1  UNL     1      20.513   1.765  52.779  1.00  0.00    -0.072 SA
HETATM    7  C8  UNL     1      21.457   2.558  51.502  1.00  0.00     0.020 A 
HETATM    8  C9  UNL     1      22.727   1.996  51.568  1.00  0.00    -0.025 A 
HETATM    9  C10 UNL     1      22.981   1.055  52.490  1.00  0.00     0.053 A 
HETATM   10  C11 UNL     1      23.439   2.696  50.489  1.00  0.00     0.070 C 
HETATM   11  C12 UNL     1      22.622   2.401  49.208  1.00  0.00     0.274 C 
HETATM   12  N4  UNL     1      21.486   3.306  49.190  1.00  0.00     0.088 N 
HETATM   13  C13 UNL     1      21.039   3.604  50.540  1.00  0.00     0.316 C 
HETATM   14  H12 UNL     1      21.734   4.166  48.648  1.00  0.00     0.316 HD
ENDROOT
BRANCH   1  15
HETATM   15  N1  UNL     1      25.327   0.485  52.116  1.00  0.00    -0.364 N 
HETATM   16  H6  UNL     1      25.683   0.532  51.172  1.00  0.00     0.162 HD
BRANCH  15  17
HETATM   17  C4  UNL     1      26.517   0.637  52.922  1.00  0.00     0.130 C 
HETATM   18  C3  UNL     1      27.462  -0.545  52.833  1.00  0.00     0.203 C 
HETATM   19  O1  UNL     1      28.090  -0.754  54.085  1.00  0.00    -0.361 OA
HETATM   20  C2  UNL     1      28.941   0.139  54.766  1.00  0.00     0.134 C 
HETATM   21  C1  UNL     1      29.067   1.445  54.484  1.00  0.00     0.024 C 
HETATM   22  C15 UNL     1      28.346   2.173  53.422  1.00  0.00    -0.000 C 
HETATM   23  C14 UNL     1      27.262   1.886  52.722  1.00  0.00     0.000 C 
ENDBRANCH  15  17
ENDBRANCH   1  15
TORSDOF 2
ENDMDL
MODEL 4
REMARK VINA RESULT:      -7.2      3.008      6.346
REMARK  2 active torsions:
REMARK  status: ('A' for Active; 'I' for Inactive)
REMARK    1  A    between atoms: C4_5  and  N1_6 
REMARK    2  A    between atoms: N1_6  and  C5_7 
ROOT
HETATM    1  C5  UNL     1      23.947   1.266  51.842  1.00  0.00     0.139 A 
HETATM    2  N2  UNL     1      22.638   1.012  51.828  1.00  0.00    -0.224 NA
HETATM    3  C6  UNL     1      21.969   0.221  52.672  1.00  0.00     0.236 A 
HETATM    4  N3  UNL     1      22.674  -0.377  53.627  1.00  0.00    -0.234 NA
HETATM    5  C7  UNL     1      24.024  -0.111  53.636  1.00  0.00     0.114 A 
HETATM    6  S1  UNL     1      25.272  -0.791  54.832  1.00  0.00    -0.072 SA
HETATM    7  C8  UNL     1      26.633   0.067  54.081  1.00  0.00     0.020 A 
HETATM    8  C9  UNL     1      26.088   0.782  53.021  1.00  0.00    -0.025 A 
HETATM    9  C10 UNL     1      24.770   0.702  52.782  1.00  0.00     0.053 A 
HETATM   10  C11 UNL     1      27.265   1.460  52.458  1.00  0.00     0.070 C 
HETATM   11  C12 UNL     1      27.846   2.294  53.625  1.00  0.00     0.274 C 
HETATM   12  N4  UNL     1      28.627   1.400  54.462  1.00  0.00     0.088 N 
HETATM   13  C13 UNL     1      28.066   0.061  54.456  1.00  0.00     0.316 C 
HETATM   14  H12 UNL     1      29.628   1.420  54.154  1.00  0.00     0.316 HD
ENDROOT
BRANCH   1  15
HETATM   15  N1  UNL     1      24.437   2.137  50.834  1.00  0.00    -0.364 N 
HETATM   16  H6  UNL     1      25.187   2.196  50.160  1.00  0.00     0.162 HD
BRANCH  15  17
HETATM   17  C4  UNL     1      23.705   3.364  50.616  1.00  0.00     0.130 C 
HETATM   18  C3  UNL     1      23.876   4.376  51.732  1.00  0.00     0.203 C 
HETATM   19  O1  UNL     1      22.671   5.095  51.917  1.00  0.00    -0.361 OA
HETATM   20  C2  UNL     1      22.028   5.928  50.981  1.00  0.00     0.134 C 
HETATM   21  C1  UNL     1      22.292   5.951  49.665  1.00  0.00     0.024 C 
HETATM   22  C15 UNL     1      23.292   5.118  48.970  1.00  0.00    -0.000 C 
HETATM   23  C14 UNL     1      23.928   4.012  49.318  1.00  0.00     0.000 C 
ENDBRANCH  15  17
ENDBRANCH   1  15
TORSDOF 2
ENDMDL
MODEL 5
REMARK VINA RESULT:      -7.2      3.106      5.902
REMARK  2 active torsions:
REMARK  status: ('A' for Active; 'I' for Inactive)
REMARK    1  A    between atoms: C4_5  and  N1_6 
REMARK    2  A    between atoms: N1_6  and  C5_7 
ROOT
HETATM    1  C5  UNL     1      23.174   3.360  52.404  1.00  0.00     0.139 A 
HETATM    2  N2  UNL     1      21.932   3.822  52.246  1.00  0.00    -0.224 NA
HETATM    3  C6  UNL     1      20.801   3.118  52.341  1.00  0.00     0.236 A 
HETATM    4  N3  UNL     1      20.916   1.824  52.621  1.00  0.00    -0.234 NA
HETATM    5  C7  UNL     1      22.199   1.353  52.782  1.00  0.00     0.114 A 
HETATM    6  S1  UNL     1      22.690  -0.395  53.172  1.00  0.00    -0.072 SA
HETATM    7  C8  UNL     1      24.427  -0.030  53.178  1.00  0.00     0.020 A 
HETATM    8  C9  UNL     1      24.527   1.328  52.898  1.00  0.00    -0.025 A 
HETATM    9  C10 UNL     1      23.409   2.042  52.694  1.00  0.00     0.053 A 
HETATM   10  C11 UNL     1      25.981   1.551  52.924  1.00  0.00     0.070 C 
HETATM   11  C12 UNL     1      26.432   1.104  54.335  1.00  0.00     0.274 C 
HETATM   12  N4  UNL     1      26.545  -0.344  54.326  1.00  0.00     0.088 N 
HETATM   13  C13 UNL     1      25.574  -0.935  53.422  1.00  0.00     0.316 C 
HETATM   14  H12 UNL     1      27.530  -0.616  54.094  1.00  0.00     0.316 HD
ENDROOT
BRANCH   1  15
HETATM   15  N1  UNL     1      24.226   4.300  52.247  1.00  0.00    -0.364 N 
HETATM   16  H6  UNL     1      25.044   4.634  52.736  1.00  0.00     0.162 HD
BRANCH  15  17
HETATM   17  C4  UNL     1      24.225   5.089  51.036  1.00  0.00     0.130 C 
HETATM   18  C3  UNL     1      24.104   6.579  51.285  1.00  0.00     0.203 C 
HETATM   19  O1  UNL     1      23.343   7.179  50.253  1.00  0.00    -0.361 OA
HETATM   20  C2  UNL     1      23.662   7.225  48.881  1.00  0.00     0.134 C 
HETATM   21  C1  UNL     1      24.590   6.461  48.283  1.00  0.00     0.024 C 
HETATM   22  C15 UNL     1      25.432   5.447  48.946  1.00  0.00    -0.000 C 
HETATM   23  C14 UNL     1      25.333   4.827  50.109  1.00  0.00     0.000 C 
ENDBRANCH  15  17
ENDBRANCH   1  15
TORSDOF 2
ENDMDL
MODEL 6
REMARK VINA RESULT:      -7.0      2.604      5.115
REMARK  2 active torsions:
REMARK  status: ('A' for Active; 'I' for Inactive)
REMARK    1  A    between atoms: C4_5  and  N1_6 
REMARK    2  A    between atoms: N1_6  and  C5_7 
ROOT
HETATM    1  C5  UNL     1      22.392   1.426  51.437  1.00  0.00     0.139 A 
HETATM    2  N2  UNL     1      21.170   1.856  51.119  1.00  0.00    -0.224 NA
HETATM    3  C6  UNL     1      20.044   1.638  51.805  1.00  0.00     0.236 A 
HETATM    4  N3  UNL     1      20.144   0.919  52.919  1.00  0.00    -0.234 NA
HETATM    5  C7  UNL     1      21.407   0.477  53.240  1.00  0.00     0.114 A 
HETATM    6  S1  UNL     1      21.873  -0.545  54.719  1.00  0.00    -0.072 SA
HETATM    7  C8  UNL     1      23.594  -0.598  54.286  1.00  0.00     0.020 A 
HETATM    8  C9  UNL     1      23.708   0.126  53.105  1.00  0.00    -0.025 A 
HETATM    9  C10 UNL     1      22.610   0.676  52.562  1.00  0.00     0.053 A 
HETATM   10  C11 UNL     1      25.147   0.038  52.817  1.00  0.00     0.070 C 
HETATM   11  C12 UNL     1      25.844   0.637  54.062  1.00  0.00     0.274 C 
HETATM   12  N4  UNL     1      25.878  -0.390  55.088  1.00  0.00     0.088 N 
HETATM   13  C13 UNL     1      24.717  -1.258  54.991  1.00  0.00     0.316 C 
HETATM   14  H12 UNL     1      26.781  -0.916  55.027  1.00  0.00     0.316 HD
ENDROOT
BRANCH   1  15
HETATM   15  N1  UNL     1      23.440   1.778  50.547  1.00  0.00    -0.364 N 
HETATM   16  H6  UNL     1      24.063   1.349  49.877  1.00  0.00     0.162 HD
BRANCH  15  17
HETATM   17  C4  UNL     1      23.824   3.170  50.504  1.00  0.00     0.130 C 
HETATM   18  C3  UNL     1      24.053   3.776  51.875  1.00  0.00     0.203 C 
HETATM   19  O1  UNL     1      23.637   5.129  51.878  1.00  0.00    -0.361 OA
HETATM   20  C2  UNL     1      24.160   6.180  51.098  1.00  0.00     0.134 C 
HETATM   21  C1  UNL     1      24.939   6.019  50.017  1.00  0.00     0.024 C 
HETATM   22  C15 UNL     1      25.383   4.728  49.457  1.00  0.00    -0.000 C 
HETATM   23  C14 UNL     1      24.954   3.489  49.623  1.00  0.00     0.000 C 
ENDBRANCH  15  17
ENDBRANCH   1  15
TORSDOF 2
ENDMDL
MODEL 7
REMARK VINA RESULT:      -6.9      3.320      6.245
REMARK  2 active torsions:
REMARK  status: ('A' for Active; 'I' for Inactive)
REMARK    1  A    between atoms: C4_5  and  N1_6 
REMARK    2  A    between atoms: N1_6  and  C5_7 
ROOT
HETATM    1  C5  UNL     1      22.286   2.477  51.970  1.00  0.00     0.139 A 
HETATM    2  N2  UNL     1      20.971   2.695  52.001  1.00  0.00    -0.224 NA
HETATM    3  C6  UNL     1      20.055   1.962  52.640  1.00  0.00     0.236 A 
HETATM    4  N3  UNL     1      20.491   0.904  53.317  1.00  0.00    -0.234 NA
HETATM    5  C7  UNL     1      21.849   0.684  53.280  1.00  0.00     0.114 A 
HETATM    6  S1  UNL     1      22.762  -0.702  54.114  1.00  0.00    -0.072 SA
HETATM    7  C8  UNL     1      24.349  -0.170  53.522  1.00  0.00     0.020 A 
HETATM    8  C9  UNL     1      24.105   0.970  52.764  1.00  0.00    -0.025 A 
HETATM    9  C10 UNL     1      22.845   1.414  52.632  1.00  0.00     0.053 A 
HETATM   10  C11 UNL     1      25.454   1.348  52.316  1.00  0.00     0.070 C 
HETATM   11  C12 UNL     1      26.269   1.547  53.616  1.00  0.00     0.274 C 
HETATM   12  N4  UNL     1      26.676   0.235  54.089  1.00  0.00     0.088 N 
HETATM   13  C13 UNL     1      25.684  -0.770  53.749  1.00  0.00     0.316 C 
HETATM   14  H12 UNL     1      27.626   0.008  53.711  1.00  0.00     0.316 HD
ENDROOT
BRANCH   1  15
HETATM   15  N1  UNL     1      23.065   3.391  51.214  1.00  0.00    -0.364 N 
HETATM   16  H6  UNL     1      23.835   4.033  51.332  1.00  0.00     0.162 HD
BRANCH  15  17
HETATM   17  C4  UNL     1      22.736   3.530  49.813  1.00  0.00     0.130 C 
HETATM   18  C3  UNL     1      23.580   4.563  49.094  1.00  0.00     0.203 C 
HETATM   19  O1  UNL     1      22.801   5.219  48.110  1.00  0.00    -0.361 OA
HETATM   20  C2  UNL     1      22.188   4.634  46.984  1.00  0.00     0.134 C 
HETATM   21  C1  UNL     1      21.996   3.316  46.813  1.00  0.00     0.024 C 
HETATM   22  C15 UNL     1      22.388   2.256  47.761  1.00  0.00    -0.000 C 
HETATM   23  C14 UNL     1      22.714   2.281  49.042  1.00  0.00     0.000 C 
ENDBRANCH  15  17
ENDBRANCH   1  15
TORSDOF 2
ENDMDL
MODEL 8
REMARK VINA RESULT:      -6.8      2.731      5.070
REMARK  2 active torsions:
REMARK  status: ('A' for Active; 'I' for Inactive)
REMARK    1  A    between atoms: C4_5  and  N1_6 
REMARK    2  A    between atoms: N1_6  and  C5_7 
ROOT
HETATM    1  C5  UNL     1      24.533   2.048  51.671  1.00  0.00     0.139 A 
HETATM    2  N2  UNL     1      25.841   2.068  51.409  1.00  0.00    -0.224 NA
HETATM    3  C6  UNL     1      26.773   1.268  51.934  1.00  0.00     0.236 A 
HETATM    4  N3  UNL     1      26.362   0.355  52.810  1.00  0.00    -0.234 NA
HETATM    5  C7  UNL     1      25.012   0.340  53.077  1.00  0.00     0.114 A 
HETATM    6  S1  UNL     1      24.135  -0.804  54.247  1.00  0.00    -0.072 SA
HETATM    7  C8  UNL     1      22.538  -0.095  53.927  1.00  0.00     0.020 A 
HETATM    8  C9  UNL     1      22.755   0.916  52.998  1.00  0.00    -0.025 A 
HETATM    9  C10 UNL     1      24.001   1.149  52.559  1.00  0.00     0.053 A 
HETATM   10  C11 UNL     1      21.399   1.445  52.785  1.00  0.00     0.070 C 
HETATM   11  C12 UNL     1      20.565   0.235  52.303  1.00  0.00     0.274 C 
HETATM   12  N4  UNL     1      20.194  -0.541  53.474  1.00  0.00     0.088 N 
HETATM   13  C13 UNL     1      21.221  -0.459  54.498  1.00  0.00     0.316 C 
HETATM   14  H12 UNL     1      19.255  -0.228  53.817  1.00  0.00     0.316 HD
ENDROOT
BRANCH   1  15
HETATM   15  N1  UNL     1      23.734   3.006  50.994  1.00  0.00    -0.364 N 
HETATM   16  H6  UNL     1      22.803   3.108  50.616  1.00  0.00     0.162 HD
BRANCH  15  17
HETATM   17  C4  UNL     1      24.349   4.279  50.696  1.00  0.00     0.130 C 
HETATM   18  C3  UNL     1      24.480   4.555  49.211  1.00  0.00     0.203 C 
HETATM   19  O1  UNL     1      25.673   5.274  48.959  1.00  0.00    -0.361 OA
HETATM   20  C2  UNL     1      26.008   6.556  49.437  1.00  0.00     0.134 C 
HETATM   21  C1  UNL     1      25.383   7.188  50.442  1.00  0.00     0.024 C 
HETATM   22  C15 UNL     1      24.245   6.660  51.219  1.00  0.00    -0.000 C 
HETATM   23  C14 UNL     1      23.756   5.442  51.369  1.00  0.00     0.000 C 
ENDBRANCH  15  17
ENDBRANCH   1  15
TORSDOF 2
ENDMDL
MODEL 9
REMARK VINA RESULT:      -6.8      8.198     11.291
REMARK  2 active torsions:
REMARK  status: ('A' for Active; 'I' for Inactive)
REMARK    1  A    between atoms: C4_5  and  N1_6 
REMARK    2  A    between atoms: N1_6  and  C5_7 
ROOT
HETATM    1  C5  UNL     1      30.678   6.538  48.295  1.00  0.00     0.139 A 
HETATM    2  N2  UNL     1      30.381   7.736  48.802  1.00  0.00    -0.224 NA
HETATM    3  C6  UNL     1      31.239   8.616  49.325  1.00  0.00     0.236 A 
HETATM    4  N3  UNL     1      32.523   8.270  49.346  1.00  0.00    -0.234 NA
HETATM    5  C7  UNL     1      32.822   7.033  48.823  1.00  0.00     0.114 A 
HETATM    6  S1  UNL     1      34.509   6.265  48.711  1.00  0.00    -0.072 SA
HETATM    7  C8  UNL     1      33.910   4.778  47.947  1.00  0.00     0.020 A 
HETATM    8  C9  UNL     1      32.535   4.944  47.828  1.00  0.00    -0.025 A 
HETATM    9  C10 UNL     1      31.969   6.080  48.267  1.00  0.00     0.053 A 
HETATM   10  C11 UNL     1      32.118   3.686  47.191  1.00  0.00     0.070 C 
HETATM   11  C12 UNL     1      32.920   3.618  45.870  1.00  0.00     0.274 C 
HETATM   12  N4  UNL     1      34.255   3.141  46.186  1.00  0.00     0.088 N 
HETATM   13  C13 UNL     1      34.663   3.581  47.509  1.00  0.00     0.316 C 
HETATM   14  H12 UNL     1      34.288   2.099  46.079  1.00  0.00     0.316 HD
ENDROOT
BRANCH   1  15
HETATM   15  N1  UNL     1      29.592   5.770  47.800  1.00  0.00    -0.364 N 
HETATM   16  H6  UNL     1      29.387   5.097  47.076  1.00  0.00     0.162 HD
BRANCH  15  17
HETATM   17  C4  UNL     1      28.322   5.924  48.473  1.00  0.00     0.130 C 
HETATM   18  C3  UNL     1      27.435   6.987  47.854  1.00  0.00     0.203 C 
HETATM   19  O1  UNL     1      26.692   7.641  48.866  1.00  0.00    -0.361 OA
HETATM   20  C2  UNL     1      25.744   7.061  49.732  1.00  0.00     0.134 C 
HETATM   21  C1  UNL     1      25.599   5.743  49.939  1.00  0.00     0.024 C 
HETATM   22  C15 UNL     1      26.396   4.676  49.303  1.00  0.00    -0.000 C 
HETATM   23  C14 UNL     1      27.555   4.687  48.667  1.00  0.00     0.000 C 
ENDBRANCH  15  17
ENDBRANCH   1  15
TORSDOF 2
ENDMDL
