MODEL 1
REMARK VINA RESULT:      -8.1      0.000      0.000
REMARK  7 active torsions:
REMARK  status: ('A' for Active; 'I' for Inactive)
REMARK    1  A    between atoms: C1_2  and  C2_3 
REMARK       I    between atoms: C1_2  and  N2_12 
REMARK    2  A    between atoms: C2_3  and  N1_4 
REMARK    3  A    between atoms: N1_4  and  C3_5 
REMARK    4  A    between atoms: C8_10  and  C9_11 
REMARK    5  A    between atoms: N2_12  and  C10_13 
REMARK    6  A    between atoms: C10_13  and  C11_14 
REMARK    7  A    between atoms: C12_15  and  C13_16 
ROOT
HETATM    1  O1  UNL     1      27.036   2.763  51.042  1.00  0.00    -0.272 OA
HETATM    2  C1  UNL     1      25.855   3.259  51.065  1.00  0.00     0.235 C 
HETATM    3  N2  UNL     1      25.073   2.944  52.195  1.00  0.00    -0.356 N 
HETATM    4  H9  UNL     1      24.139   3.386  52.107  1.00  0.00     0.162 HD
ENDROOT
BRANCH   2   5
HETATM    5  C2  UNL     1      25.760   4.003  49.849  1.00  0.00     0.218 C 
BRANCH   5   6
HETATM    6  N1  UNL     1      27.097   4.398  49.292  1.00  0.00    -0.402 N 
HETATM    7  H3  UNL     1      27.776   3.591  49.478  1.00  0.00     0.154 HD
BRANCH   6   8
HETATM    8  C3  UNL     1      27.372   5.823  48.540  1.00  0.00     0.052 A 
HETATM    9  C4  UNL     1      28.454   5.427  48.427  1.00  0.00     0.020 A 
HETATM   10  C5  UNL     1      29.889   5.451  48.026  1.00  0.00    -0.014 A 
HETATM   11  C9  UNL     1      27.206   6.604  48.164  1.00  0.00     0.062 A 
HETATM   12  C8  UNL     1      28.493   6.767  47.809  1.00  0.00     0.020 A 
HETATM   13  C6  UNL     1      30.638   6.415  47.387  1.00  0.00    -0.006 A 
HETATM   14  C7  UNL     1      29.560   7.272  47.291  1.00  0.00    -0.014 A 
ENDBRANCH   6   8
ENDBRANCH   5   6
ENDBRANCH   2   5
BRANCH   3  15
HETATM   15  C10 UNL     1      25.439   2.149  53.327  1.00  0.00     0.149 C 
BRANCH  15  16
HETATM   16  C11 UNL     1      24.832   0.790  53.169  1.00  0.00    -0.011 C 
HETATM   17  C12 UNL     1      25.453  -0.426  53.120  1.00  0.00    -0.019 C 
BRANCH  17  18
HETATM   18  C13 UNL     1      26.854  -0.171  53.254  1.00  0.00     0.057 C 
HETATM   19  C14 UNL     1      28.018  -0.751  53.341  1.00  0.00     0.001 A 
HETATM   20  C15 UNL     1      28.944   0.405  53.457  1.00  0.00     0.016 A 
HETATM   21  C17 UNL     1      29.249  -1.542  53.434  1.00  0.00     0.178 A 
HETATM   22  C16 UNL     1      30.044  -0.308  53.542  1.00  0.00     0.056 A 
HETATM   23  O2  UNL     1      29.053  -2.813  53.380  1.00  0.00    -0.288 OA
ENDBRANCH  17  18
ENDBRANCH  15  16
ENDBRANCH   3  15
TORSDOF 7
ENDMDL
MODEL 2
REMARK VINA RESULT:      -7.9      1.408      1.961
REMARK  7 active torsions:
REMARK  status: ('A' for Active; 'I' for Inactive)
REMARK    1  A    between atoms: C1_2  and  C2_3 
REMARK       I    between atoms: C1_2  and  N2_12 
REMARK    2  A    between atoms: C2_3  and  N1_4 
REMARK    3  A    between atoms: N1_4  and  C3_5 
REMARK    4  A    between atoms: C8_10  and  C9_11 
REMARK    5  A    between atoms: N2_12  and  C10_13 
REMARK    6  A    between atoms: C10_13  and  C11_14 
REMARK    7  A    between atoms: C12_15  and  C13_16 
ROOT
HETATM    1  O1  UNL     1      23.559   4.252  52.930  1.00  0.00    -0.272 OA
HETATM    2  C1  UNL     1      24.375   3.939  51.994  1.00  0.00     0.235 C 
HETATM    3  N2  UNL     1      25.243   2.862  52.263  1.00  0.00    -0.356 N 
HETATM    4  H9  UNL     1      25.863   2.700  51.447  1.00  0.00     0.162 HD
ENDROOT
BRANCH   2   5
HETATM    5  C2  UNL     1      24.083   4.865  50.945  1.00  0.00     0.218 C 
BRANCH   5   6
HETATM    6  N1  UNL     1      24.618   4.434  49.611  1.00  0.00    -0.402 N 
HETATM    7  H3  UNL     1      23.781   4.292  48.956  1.00  0.00     0.154 HD
BRANCH   6   8
HETATM    8  C3  UNL     1      26.212   4.253  49.297  1.00  0.00     0.052 A 
HETATM    9  C4  UNL     1      26.153   5.352  48.939  1.00  0.00     0.020 A 
HETATM   10  C5  UNL     1      26.648   6.640  48.376  1.00  0.00    -0.014 A 
HETATM   11  C9  UNL     1      27.014   3.885  49.284  1.00  0.00     0.062 A 
HETATM   12  C8  UNL     1      27.561   4.972  48.711  1.00  0.00     0.020 A 
HETATM   13  C6  UNL     1      27.896   7.017  47.930  1.00  0.00    -0.006 A 
HETATM   14  C7  UNL     1      28.436   5.778  48.214  1.00  0.00    -0.014 A 
ENDBRANCH   6   8
ENDBRANCH   5   6
ENDBRANCH   2   5
BRANCH   3  15
HETATM   15  C10 UNL     1      25.318   2.064  53.449  1.00  0.00     0.149 C 
BRANCH  15  16
HETATM   16  C11 UNL     1      24.718   0.724  53.157  1.00  0.00    -0.011 C 
HETATM   17  C12 UNL     1      25.345  -0.481  53.000  1.00  0.00    -0.019 C 
BRANCH  17  18
HETATM   18  C13 UNL     1      26.744  -0.235  53.172  1.00  0.00     0.057 C 
HETATM   19  C14 UNL     1      27.901  -0.821  53.293  1.00  0.00     0.001 A 
HETATM   20  C15 UNL     1      28.831   0.329  53.430  1.00  0.00     0.016 A 
HETATM   21  C17 UNL     1      29.123  -1.620  53.422  1.00  0.00     0.178 A 
HETATM   22  C16 UNL     1      29.924  -0.391  53.548  1.00  0.00     0.056 A 
HETATM   23  O2  UNL     1      28.921  -2.890  53.367  1.00  0.00    -0.288 OA
ENDBRANCH  17  18
ENDBRANCH  15  16
ENDBRANCH   3  15
TORSDOF 7
ENDMDL
MODEL 3
REMARK VINA RESULT:      -7.6      2.871      4.171
REMARK  7 active torsions:
REMARK  status: ('A' for Active; 'I' for Inactive)
REMARK    1  A    between atoms: C1_2  and  C2_3 
REMARK       I    between atoms: C1_2  and  N2_12 
REMARK    2  A    between atoms: C2_3  and  N1_4 
REMARK    3  A    between atoms: N1_4  and  C3_5 
REMARK    4  A    between atoms: C8_10  and  C9_11 
REMARK    5  A    between atoms: N2_12  and  C10_13 
REMARK    6  A    between atoms: C10_13  and  C11_14 
REMARK    7  A    between atoms: C12_15  and  C13_16 
ROOT
HETATM    1  O1  UNL     1      22.812   4.748  50.651  1.00  0.00    -0.272 OA
HETATM    2  C1  UNL     1      24.003   4.993  51.058  1.00  0.00     0.235 C 
HETATM    3  N2  UNL     1      24.566   4.041  51.931  1.00  0.00    -0.356 N 
HETATM    4  H9  UNL     1      25.521   4.340  52.204  1.00  0.00     0.162 HD
ENDROOT
BRANCH   2   5
HETATM    5  C2  UNL     1      24.343   6.231  50.430  1.00  0.00     0.218 C 
BRANCH   5   6
HETATM    6  N1  UNL     1      25.100   6.053  49.146  1.00  0.00    -0.402 N 
HETATM    7  H3  UNL     1      24.595   6.621  48.391  1.00  0.00     0.154 HD
BRANCH   6   8
HETATM    8  C3  UNL     1      26.453   5.144  49.018  1.00  0.00     0.052 A 
HETATM    9  C4  UNL     1      26.925   6.108  48.584  1.00  0.00     0.020 A 
HETATM   10  C5  UNL     1      27.988   6.970  47.995  1.00  0.00    -0.014 A 
HETATM   11  C9  UNL     1      26.998   4.457  49.114  1.00  0.00     0.062 A 
HETATM   12  C8  UNL     1      28.016   5.116  48.533  1.00  0.00     0.020 A 
HETATM   13  C6  UNL     1      29.297   6.698  47.662  1.00  0.00    -0.006 A 
HETATM   14  C7  UNL     1      29.193   5.387  48.081  1.00  0.00    -0.014 A 
ENDBRANCH   6   8
ENDBRANCH   5   6
ENDBRANCH   2   5
BRANCH   3  15
HETATM   15  C10 UNL     1      23.980   2.826  52.410  1.00  0.00     0.149 C 
BRANCH  15  16
HETATM   16  C11 UNL     1      25.072   1.825  52.625  1.00  0.00    -0.011 C 
HETATM   17  C12 UNL     1      24.971   0.509  52.980  1.00  0.00    -0.019 C 
BRANCH  17  18
HETATM   18  C13 UNL     1      23.574   0.232  53.117  1.00  0.00     0.057 C 
HETATM   19  C14 UNL     1      22.706  -0.441  53.818  1.00  0.00     0.001 A 
HETATM   20  C15 UNL     1      21.418  -0.068  53.178  1.00  0.00     0.016 A 
HETATM   21  C17 UNL     1      21.854  -1.258  54.687  1.00  0.00     0.178 A 
HETATM   22  C16 UNL     1      20.659  -0.803  53.957  1.00  0.00     0.056 A 
HETATM   23  O2  UNL     1      22.506  -1.914  55.583  1.00  0.00    -0.288 OA
ENDBRANCH  17  18
ENDBRANCH  15  16
ENDBRANCH   3  15
TORSDOF 7
ENDMDL
MODEL 4
REMARK VINA RESULT:      -7.5      1.913      7.775
REMARK  7 active torsions:
REMARK  status: ('A' for Active; 'I' for Inactive)
REMARK    1  A    between atoms: C1_2  and  C2_3 
REMARK       I    between atoms: C1_2  and  N2_12 
REMARK    2  A    between atoms: C2_3  and  N1_4 
REMARK    3  A    between atoms: N1_4  and  C3_5 
REMARK    4  A    between atoms: C8_10  and  C9_11 
REMARK    5  A    between atoms: N2_12  and  C10_13 
REMARK    6  A    between atoms: C10_13  and  C11_14 
REMARK    7  A    between atoms: C12_15  and  C13_16 
ROOT
HETATM    1  O1  UNL     1      25.014   1.715  51.783  1.00  0.00    -0.272 OA
HETATM    2  C1  UNL     1      26.025   2.377  52.211  1.00  0.00     0.235 C 
HETATM    3  N2  UNL     1      26.744   3.105  51.242  1.00  0.00    -0.356 N 
HETATM    4  H9  UNL     1      27.541   3.593  51.692  1.00  0.00     0.162 HD
ENDROOT
BRANCH   2   5
HETATM    5  C2  UNL     1      26.050   2.114  53.615  1.00  0.00     0.218 C 
BRANCH   5   6
HETATM    6  N1  UNL     1      25.807   0.671  53.950  1.00  0.00    -0.402 N 
HETATM    7  H3  UNL     1      25.039   0.637  54.697  1.00  0.00     0.154 HD
BRANCH   6   8
HETATM    8  C3  UNL     1      26.608  -0.564  53.241  1.00  0.00     0.052 A 
HETATM    9  C4  UNL     1      27.523  -0.157  53.822  1.00  0.00     0.020 A 
HETATM   10  C5  UNL     1      28.940  -0.092  54.279  1.00  0.00    -0.014 A 
HETATM   11  C9  UNL     1      26.744  -1.302  52.776  1.00  0.00     0.062 A 
HETATM   12  C8  UNL     1      28.056  -1.308  53.067  1.00  0.00     0.020 A 
HETATM   13  C6  UNL     1      30.031  -0.875  53.972  1.00  0.00    -0.006 A 
HETATM   14  C7  UNL     1      29.290  -1.678  53.127  1.00  0.00    -0.014 A 
ENDBRANCH   6   8
ENDBRANCH   5   6
ENDBRANCH   2   5
BRANCH   3  15
HETATM   15  C10 UNL     1      26.478   3.208  49.839  1.00  0.00     0.149 C 
BRANCH  15  16
HETATM   16  C11 UNL     1      25.542   4.355  49.617  1.00  0.00    -0.011 C 
HETATM   17  C12 UNL     1      25.793   5.568  49.039  1.00  0.00    -0.019 C 
BRANCH  17  18
HETATM   18  C13 UNL     1      27.172   5.558  48.660  1.00  0.00     0.057 C 
HETATM   19  C14 UNL     1      28.164   6.325  48.306  1.00  0.00     0.001 A 
HETATM   20  C15 UNL     1      29.268   5.352  48.107  1.00  0.00     0.016 A 
HETATM   21  C17 UNL     1      29.177   7.311  47.918  1.00  0.00     0.178 A 
HETATM   22  C16 UNL     1      30.172   6.238  47.757  1.00  0.00     0.056 A 
HETATM   23  O2  UNL     1      28.744   8.524  47.909  1.00  0.00    -0.288 OA
ENDBRANCH  17  18
ENDBRANCH  15  16
ENDBRANCH   3  15
TORSDOF 7
ENDMDL
MODEL 5
REMARK VINA RESULT:      -7.4      3.983      6.640
REMARK  7 active torsions:
REMARK  status: ('A' for Active; 'I' for Inactive)
REMARK    1  A    between atoms: C1_2  and  C2_3 
REMARK       I    between atoms: C1_2  and  N2_12 
REMARK    2  A    between atoms: C2_3  and  N1_4 
REMARK    3  A    between atoms: N1_4  and  C3_5 
REMARK    4  A    between atoms: C8_10  and  C9_11 
REMARK    5  A    between atoms: N2_12  and  C10_13 
REMARK    6  A    between atoms: C10_13  and  C11_14 
REMARK    7  A    between atoms: C12_15  and  C13_16 
ROOT
HETATM    1  O1  UNL     1      24.447   1.717  52.067  1.00  0.00    -0.272 OA
HETATM    2  C1  UNL     1      24.917   2.541  51.206  1.00  0.00     0.235 C 
HETATM    3  N2  UNL     1      23.974   3.163  50.365  1.00  0.00    -0.356 N 
HETATM    4  H9  UNL     1      24.460   3.798  49.704  1.00  0.00     0.162 HD
ENDROOT
BRANCH   2   5
HETATM    5  C2  UNL     1      26.328   2.523  51.433  1.00  0.00     0.218 C 
BRANCH   5   6
HETATM    6  N1  UNL     1      26.692   2.517  52.890  1.00  0.00    -0.402 N 
HETATM    7  H3  UNL     1      25.822   2.815  53.441  1.00  0.00     0.154 HD
BRANCH   6   8
HETATM    8  C3  UNL     1      28.172   2.103  53.446  1.00  0.00     0.052 A 
HETATM    9  C4  UNL     1      27.853   1.026  53.165  1.00  0.00     0.020 A 
HETATM   10  C5  UNL     1      27.986  -0.452  53.025  1.00  0.00    -0.014 A 
HETATM   11  C9  UNL     1      28.995   2.195  53.749  1.00  0.00     0.062 A 
HETATM   12  C8  UNL     1      29.208   0.867  53.730  1.00  0.00     0.020 A 
HETATM   13  C6  UNL     1      29.015  -1.307  53.357  1.00  0.00    -0.006 A 
HETATM   14  C7  UNL     1      29.797  -0.275  53.834  1.00  0.00    -0.014 A 
ENDBRANCH   6   8
ENDBRANCH   5   6
ENDBRANCH   2   5
BRANCH   3  15
HETATM   15  C10 UNL     1      22.552   3.000  50.361  1.00  0.00     0.149 C 
BRANCH  15  16
HETATM   16  C11 UNL     1      22.201   1.915  49.393  1.00  0.00    -0.011 C 
HETATM   17  C12 UNL     1      21.473   0.777  49.606  1.00  0.00    -0.019 C 
BRANCH  17  18
HETATM   18  C13 UNL     1      21.081   0.799  50.982  1.00  0.00     0.057 C 
HETATM   19  C14 UNL     1      21.296   0.241  52.139  1.00  0.00     0.001 A 
HETATM   20  C15 UNL     1      20.363   0.977  53.030  1.00  0.00     0.016 A 
HETATM   21  C17 UNL     1      21.641  -0.484  53.366  1.00  0.00     0.178 A 
HETATM   22  C16 UNL     1      20.674   0.324  54.126  1.00  0.00     0.056 A 
HETATM   23  O2  UNL     1      22.541  -1.390  53.197  1.00  0.00    -0.288 OA
ENDBRANCH  17  18
ENDBRANCH  15  16
ENDBRANCH   3  15
TORSDOF 7
ENDMDL
MODEL 6
REMARK VINA RESULT:      -7.3      3.278      7.073
REMARK  7 active torsions:
REMARK  status: ('A' for Active; 'I' for Inactive)
REMARK    1  A    between atoms: C1_2  and  C2_3 
REMARK       I    between atoms: C1_2  and  N2_12 
REMARK    2  A    between atoms: C2_3  and  N1_4 
REMARK    3  A    between atoms: N1_4  and  C3_5 
REMARK    4  A    between atoms: C8_10  and  C9_11 
REMARK    5  A    between atoms: N2_12  and  C10_13 
REMARK    6  A    between atoms: C10_13  and  C11_14 
REMARK    7  A    between atoms: C12_15  and  C13_16 
ROOT
HETATM    1  O1  UNL     1      22.750   4.732  52.737  1.00  0.00    -0.272 OA
HETATM    2  C1  UNL     1      22.429   4.207  51.613  1.00  0.00     0.235 C 
HETATM    3  N2  UNL     1      23.439   4.184  50.630  1.00  0.00    -0.356 N 
HETATM    4  H9  UNL     1      23.072   3.750  49.763  1.00  0.00     0.162 HD
ENDROOT
BRANCH   2   5
HETATM    5  C2  UNL     1      21.067   3.810  51.784  1.00  0.00     0.218 C 
BRANCH   5   6
HETATM    6  N1  UNL     1      20.901   2.327  51.946  1.00  0.00    -0.402 N 
HETATM    7  H3  UNL     1      19.855   2.108  51.866  1.00  0.00     0.154 HD
BRANCH   6   8
HETATM    8  C3  UNL     1      22.152   1.302  52.185  1.00  0.00     0.052 A 
HETATM    9  C4  UNL     1      21.525   0.925  53.083  1.00  0.00     0.020 A 
HETATM   10  C5  UNL     1      21.204   0.099  54.280  1.00  0.00    -0.014 A 
HETATM   11  C9  UNL     1      22.908   0.873  52.035  1.00  0.00     0.062 A 
HETATM   12  C8  UNL     1      22.757   0.113  53.134  1.00  0.00     0.020 A 
HETATM   13  C6  UNL     1      21.917  -0.892  54.919  1.00  0.00    -0.006 A 
HETATM   14  C7  UNL     1      22.970  -0.787  54.032  1.00  0.00    -0.014 A 
ENDBRANCH   6   8
ENDBRANCH   5   6
ENDBRANCH   2   5
BRANCH   3  15
HETATM   15  C10 UNL     1      24.784   4.662  50.736  1.00  0.00     0.149 C 
BRANCH  15  16
HETATM   16  C11 UNL     1      25.627   3.929  49.740  1.00  0.00    -0.011 C 
HETATM   17  C12 UNL     1      26.418   2.830  49.929  1.00  0.00    -0.019 C 
BRANCH  17  18
HETATM   18  C13 UNL     1      26.297   2.477  51.310  1.00  0.00     0.057 C 
HETATM   19  C14 UNL     1      26.474   1.505  52.160  1.00  0.00     0.001 A 
HETATM   20  C15 UNL     1      26.051   2.120  53.444  1.00  0.00     0.016 A 
HETATM   21  C17 UNL     1      26.719   0.322  52.990  1.00  0.00     0.178 A 
HETATM   22  C16 UNL     1      26.269   1.057  54.184  1.00  0.00     0.056 A 
HETATM   23  O2  UNL     1      27.167  -0.690  52.332  1.00  0.00    -0.288 OA
ENDBRANCH  17  18
ENDBRANCH  15  16
ENDBRANCH   3  15
TORSDOF 7
ENDMDL
MODEL 7
REMARK VINA RESULT:      -7.3      2.163      3.046
REMARK  7 active torsions:
REMARK  status: ('A' for Active; 'I' for Inactive)
REMARK    1  A    between atoms: C1_2  and  C2_3 
REMARK       I    between atoms: C1_2  and  N2_12 
REMARK    2  A    between atoms: C2_3  and  N1_4 
REMARK    3  A    between atoms: N1_4  and  C3_5 
REMARK    4  A    between atoms: C8_10  and  C9_11 
REMARK    5  A    between atoms: N2_12  and  C10_13 
REMARK    6  A    between atoms: C10_13  and  C11_14 
REMARK    7  A    between atoms: C12_15  and  C13_16 
ROOT
HETATM    1  O1  UNL     1      21.966   3.505  51.347  1.00  0.00    -0.272 OA
HETATM    2  C1  UNL     1      23.184   3.388  51.730  1.00  0.00     0.235 C 
HETATM    3  N2  UNL     1      23.636   2.073  51.961  1.00  0.00    -0.356 N 
HETATM    4  H9  UNL     1      24.625   2.094  52.274  1.00  0.00     0.162 HD
ENDROOT
BRANCH   2   5
HETATM    5  C2  UNL     1      23.669   4.731  51.784  1.00  0.00     0.218 C 
BRANCH   5   6
HETATM    6  N1  UNL     1      24.381   5.152  50.532  1.00  0.00    -0.402 N 
HETATM    7  H3  UNL     1      23.859   5.998  50.131  1.00  0.00     0.154 HD
BRANCH   6   8
HETATM    8  C3  UNL     1      25.717   4.402  49.962  1.00  0.00     0.052 A 
HETATM    9  C4  UNL     1      25.996   5.450  49.556  1.00  0.00     0.020 A 
HETATM   10  C5  UNL     1      26.814   6.472  48.844  1.00  0.00    -0.014 A 
HETATM   11  C9  UNL     1      26.315   3.766  49.832  1.00  0.00     0.062 A 
HETATM   12  C8  UNL     1      27.105   4.582  49.113  1.00  0.00     0.020 A 
HETATM   13  C6  UNL     1      28.012   6.370  48.170  1.00  0.00    -0.006 A 
HETATM   14  C7  UNL     1      28.108   5.017  48.428  1.00  0.00    -0.014 A 
ENDBRANCH   6   8
ENDBRANCH   5   6
ENDBRANCH   2   5
BRANCH   3  15
HETATM   15  C10 UNL     1      22.908   0.850  51.809  1.00  0.00     0.149 C 
BRANCH  15  16
HETATM   16  C11 UNL     1      22.430   0.412  53.158  1.00  0.00    -0.011 C 
HETATM   17  C12 UNL     1      23.093  -0.314  54.109  1.00  0.00    -0.019 C 
BRANCH  17  18
HETATM   18  C13 UNL     1      24.388  -0.599  53.571  1.00  0.00     0.057 C 
HETATM   19  C14 UNL     1      25.661  -0.386  53.745  1.00  0.00     0.001 A 
HETATM   20  C15 UNL     1      26.269  -1.138  52.618  1.00  0.00     0.016 A 
HETATM   21  C17 UNL     1      27.053  -0.055  54.066  1.00  0.00     0.178 A 
HETATM   22  C16 UNL     1      27.515  -0.837  52.907  1.00  0.00     0.056 A 
HETATM   23  O2  UNL     1      27.181   0.689  55.109  1.00  0.00    -0.288 OA
ENDBRANCH  17  18
ENDBRANCH  15  16
ENDBRANCH   3  15
TORSDOF 7
ENDMDL
MODEL 8
REMARK VINA RESULT:      -7.2      2.526      8.578
REMARK  7 active torsions:
REMARK  status: ('A' for Active; 'I' for Inactive)
REMARK    1  A    between atoms: C1_2  and  C2_3 
REMARK       I    between atoms: C1_2  and  N2_12 
REMARK    2  A    between atoms: C2_3  and  N1_4 
REMARK    3  A    between atoms: N1_4  and  C3_5 
REMARK    4  A    between atoms: C8_10  and  C9_11 
REMARK    5  A    between atoms: N2_12  and  C10_13 
REMARK    6  A    between atoms: C10_13  and  C11_14 
REMARK    7  A    between atoms: C12_15  and  C13_16 
ROOT
HETATM    1  O1  UNL     1      26.757   1.012  51.360  1.00  0.00    -0.272 OA
HETATM    2  C1  UNL     1      26.449   2.032  52.072  1.00  0.00     0.235 C 
HETATM    3  N2  UNL     1      26.406   3.268  51.396  1.00  0.00    -0.356 N 
HETATM    4  H9  UNL     1      26.158   4.022  52.063  1.00  0.00     0.162 HD
ENDROOT
BRANCH   2   5
HETATM    5  C2  UNL     1      26.250   1.501  53.384  1.00  0.00     0.218 C 
BRANCH   5   6
HETATM    6  N1  UNL     1      25.244   0.387  53.423  1.00  0.00    -0.402 N 
HETATM    7  H3  UNL     1      25.728  -0.472  53.843  1.00  0.00     0.154 HD
BRANCH   6   8
HETATM    8  C3  UNL     1      23.701   0.550  52.907  1.00  0.00     0.052 A 
HETATM    9  C4  UNL     1      23.463  -0.235  53.723  1.00  0.00     0.020 A 
HETATM   10  C5  UNL     1      22.619  -1.152  54.541  1.00  0.00    -0.014 A 
HETATM   11  C9  UNL     1      23.007   0.873  52.468  1.00  0.00     0.062 A 
HETATM   12  C8  UNL     1      22.156   0.042  53.096  1.00  0.00     0.020 A 
HETATM   13  C6  UNL     1      21.267  -1.416  54.505  1.00  0.00    -0.006 A 
HETATM   14  C7  UNL     1      21.062  -0.530  53.466  1.00  0.00    -0.014 A 
ENDBRANCH   6   8
ENDBRANCH   5   6
ENDBRANCH   2   5
BRANCH   3  15
HETATM   15  C10 UNL     1      26.649   3.524  50.009  1.00  0.00     0.149 C 
BRANCH  15  16
HETATM   16  C11 UNL     1      25.714   4.601  49.555  1.00  0.00    -0.011 C 
HETATM   17  C12 UNL     1      25.985   5.712  48.806  1.00  0.00    -0.019 C 
BRANCH  17  18
HETATM   18  C13 UNL     1      27.384   5.670  48.511  1.00  0.00     0.057 C 
HETATM   19  C14 UNL     1      28.386   6.391  48.093  1.00  0.00     0.001 A 
HETATM   20  C15 UNL     1      29.511   5.422  48.116  1.00  0.00     0.016 A 
HETATM   21  C17 UNL     1      29.408   7.323  47.607  1.00  0.00     0.178 A 
HETATM   22  C16 UNL     1      30.424   6.258  47.678  1.00  0.00     0.056 A 
HETATM   23  O2  UNL     1      28.962   8.508  47.377  1.00  0.00    -0.288 OA
ENDBRANCH  17  18
ENDBRANCH  15  16
ENDBRANCH   3  15
TORSDOF 7
ENDMDL
MODEL 9
REMARK VINA RESULT:      -7.1      2.354      8.032
REMARK  7 active torsions:
REMARK  status: ('A' for Active; 'I' for Inactive)
REMARK    1  A    between atoms: C1_2  and  C2_3 
REMARK       I    between atoms: C1_2  and  N2_12 
REMARK    2  A    between atoms: C2_3  and  N1_4 
REMARK    3  A    between atoms: N1_4  and  C3_5 
REMARK    4  A    between atoms: C8_10  and  C9_11 
REMARK    5  A    between atoms: N2_12  and  C10_13 
REMARK    6  A    between atoms: C10_13  and  C11_14 
REMARK    7  A    between atoms: C12_15  and  C13_16 
ROOT
HETATM    1  O1  UNL     1      24.027   2.078  50.899  1.00  0.00    -0.272 OA
HETATM    2  C1  UNL     1      24.714   2.809  51.697  1.00  0.00     0.235 C 
HETATM    3  N2  UNL     1      25.448   3.854  51.102  1.00  0.00    -0.356 N 
HETATM    4  H9  UNL     1      25.971   4.373  51.832  1.00  0.00     0.162 HD
ENDROOT
BRANCH   2   5
HETATM    5  C2  UNL     1      24.463   2.253  52.990  1.00  0.00     0.218 C 
BRANCH   5   6
HETATM    6  N1  UNL     1      24.695   0.772  53.051  1.00  0.00    -0.402 N 
HETATM    7  H3  UNL     1      23.817   0.324  53.472  1.00  0.00     0.154 HD
BRANCH   6   8
HETATM    8  C3  UNL     1      26.069   0.054  52.533  1.00  0.00     0.052 A 
HETATM    9  C4  UNL     1      26.470   0.313  53.588  1.00  0.00     0.020 A 
HETATM   10  C5  UNL     1      27.458   0.383  54.701  1.00  0.00    -0.014 A 
HETATM   11  C9  UNL     1      26.616  -0.405  52.014  1.00  0.00     0.062 A 
HETATM   12  C8  UNL     1      27.609  -0.347  52.919  1.00  0.00     0.020 A 
HETATM   13  C6  UNL     1      28.764  -0.049  54.785  1.00  0.00    -0.006 A 
HETATM   14  C7  UNL     1      28.749  -0.534  53.493  1.00  0.00    -0.014 A 
ENDBRANCH   6   8
ENDBRANCH   5   6
ENDBRANCH   2   5
BRANCH   3  15
HETATM   15  C10 UNL     1      25.512   4.211  49.717  1.00  0.00     0.149 C 
BRANCH  15  16
HETATM   16  C11 UNL     1      26.931   4.082  49.259  1.00  0.00    -0.011 C 
HETATM   17  C12 UNL     1      27.712   5.002  48.616  1.00  0.00    -0.019 C 
BRANCH  17  18
HETATM   18  C13 UNL     1      26.904   6.171  48.447  1.00  0.00     0.057 C 
HETATM   19  C14 UNL     1      26.782   7.417  48.805  1.00  0.00     0.001 A 
HETATM   20  C15 UNL     1      25.566   7.846  48.068  1.00  0.00     0.016 A 
HETATM   21  C17 UNL     1      26.773   8.797  49.301  1.00  0.00     0.178 A 
HETATM   22  C16 UNL     1      25.560   9.080  48.516  1.00  0.00     0.056 A 
HETATM   23  O2  UNL     1      27.741   9.064  50.106  1.00  0.00    -0.288 OA
ENDBRANCH  17  18
ENDBRANCH  15  16
ENDBRANCH   3  15
TORSDOF 7
ENDMDL
