MODEL 1
REMARK VINA RESULT:      -8.1      0.000      0.000
REMARK  6 active torsions:
REMARK  status: ('A' for Active; 'I' for Inactive)
REMARK    1  A    between atoms: C3_3  and  C4_4 
REMARK    2  A    between atoms: C11_13  and  N3_14 
REMARK    3  A    between atoms: N3_14  and  C12_15 
REMARK    4  A    between atoms: C18_23  and  O1_24 
REMARK    5  A    between atoms: O1_24  and  C19_25 
REMARK    6  A    between atoms: C19_25  and  C20_26 
ROOT
HETATM    1  C4  UNL     1      22.348   2.433  51.701  1.00  0.00     0.185 C 
HETATM    2  C5  UNL     1      23.048   3.663  52.097  1.00  0.00     0.100 C 
HETATM    3  N1  UNL     1      23.627   4.641  52.408  1.00  0.00    -0.194 NA
HETATM    4  N2  UNL     1      23.329   1.356  51.850  1.00  0.00    -0.263 NA
HETATM    5  C6  UNL     1      22.990   0.302  52.536  1.00  0.00     0.036 C 
HETATM    6  C7  UNL     1      21.710  -0.116  51.833  1.00  0.00     0.068 C 
HETATM    7  C8  UNL     1      20.718   0.763  52.640  1.00  0.00     0.046 C 
HETATM    8  C9  UNL     1      20.997   0.277  54.050  1.00  0.00    -0.021 C 
HETATM    9  C10 UNL     1      21.952  -0.566  54.471  1.00  0.00     0.000 C 
HETATM   10  C11 UNL     1      23.239  -0.660  53.687  1.00  0.00     0.152 C 
HETATM   11  C18 UNL     1      21.126   2.207  52.549  1.00  0.00     0.178 C 
ENDROOT
BRANCH   1  12
HETATM   12  C3  UNL     1      21.923   2.558  50.283  1.00  0.00     0.020 C 
HETATM   13  C2  UNL     1      22.683   2.338  49.232  1.00  0.00    -0.031 C 
HETATM   14  C1  UNL     1      22.349   2.436  47.776  1.00  0.00     0.036 C 
ENDBRANCH   1  12
BRANCH  11  15
HETATM   15  O1  UNL     1      20.152   3.023  52.027  1.00  0.00    -0.376 OA
BRANCH  15  16
HETATM   16  C19 UNL     1      18.917   2.545  51.792  1.00  0.00     0.214 C 
BRANCH  16  17
HETATM   17  C20 UNL     1      17.888   3.468  51.307  1.00  0.00     0.106 C 
HETATM   18  N4  UNL     1      16.982   3.947  52.110  1.00  0.00    -0.314 NA
HETATM   19  H20 UNL     1      16.258   4.594  51.778  1.00  0.00     0.185 HD
ENDBRANCH  16  17
ENDBRANCH  15  16
ENDBRANCH  11  15
BRANCH  10  20
HETATM   20  N3  UNL     1      24.385  -0.261  54.453  1.00  0.00    -0.377 N 
HETATM   21  H12 UNL     1      24.216   0.204  55.373  1.00  0.00     0.160 HD
BRANCH  20  22
HETATM   22  C12 UNL     1      25.710  -0.463  54.031  1.00  0.00     0.030 A 
HETATM   23  C13 UNL     1      26.092  -1.471  53.181  1.00  0.00     0.032 A 
HETATM   24  C14 UNL     1      27.406  -1.640  52.790  1.00  0.00     0.046 A 
HETATM   25  C15 UNL     1      28.381  -0.801  53.238  1.00  0.00     0.138 A 
HETATM   26  F1  UNL     1      29.697  -0.922  52.881  1.00  0.00    -0.204 F 
HETATM   27  C16 UNL     1      28.062   0.240  54.100  1.00  0.00     0.074 A 
HETATM   28 CL1  UNL     1      29.276   1.357  54.715  1.00  0.00    -0.081 Cl
HETATM   29  C17 UNL     1      26.735   0.349  54.449  1.00  0.00     0.056 A 
ENDBRANCH  20  22
ENDBRANCH  10  20
TORSDOF 6
ENDMDL
MODEL 2
REMARK VINA RESULT:      -7.6      2.379      3.444
REMARK  6 active torsions:
REMARK  status: ('A' for Active; 'I' for Inactive)
REMARK    1  A    between atoms: C3_3  and  C4_4 
REMARK    2  A    between atoms: C11_13  and  N3_14 
REMARK    3  A    between atoms: N3_14  and  C12_15 
REMARK    4  A    between atoms: C18_23  and  O1_24 
REMARK    5  A    between atoms: O1_24  and  C19_25 
REMARK    6  A    between atoms: C19_25  and  C20_26 
ROOT
HETATM    1  C4  UNL     1      21.726   2.265  50.094  1.00  0.00     0.185 C 
HETATM    2  C5  UNL     1      22.160   2.178  48.693  1.00  0.00     0.100 C 
HETATM    3  N1  UNL     1      22.510   2.089  47.571  1.00  0.00    -0.194 NA
HETATM    4  N2  UNL     1      22.425   1.182  50.791  1.00  0.00    -0.263 NA
HETATM    5  C6  UNL     1      23.083   1.470  51.878  1.00  0.00     0.036 C 
HETATM    6  C7  UNL     1      22.009   2.152  52.708  1.00  0.00     0.068 C 
HETATM    7  C8  UNL     1      22.201   3.597  52.175  1.00  0.00     0.046 C 
HETATM    8  C9  UNL     1      23.664   3.824  52.503  1.00  0.00    -0.021 C 
HETATM    9  C10 UNL     1      24.561   2.947  52.978  1.00  0.00     0.000 C 
HETATM   10  C11 UNL     1      24.378   1.479  52.673  1.00  0.00     0.152 C 
HETATM   11  C18 UNL     1      22.044   3.613  50.680  1.00  0.00     0.178 C 
ENDROOT
BRANCH   1  12
HETATM   12  C3  UNL     1      20.256   2.057  50.155  1.00  0.00     0.020 C 
HETATM   13  C2  UNL     1      19.642   0.894  50.121  1.00  0.00    -0.031 C 
HETATM   14  C1  UNL     1      18.178   0.585  50.176  1.00  0.00     0.036 C 
ENDBRANCH   1  12
BRANCH  11  15
HETATM   15  O1  UNL     1      21.053   4.455  50.239  1.00  0.00    -0.376 OA
BRANCH  15  16
HETATM   16  C19 UNL     1      21.363   5.627  49.656  1.00  0.00     0.214 C 
BRANCH  16  17
HETATM   17  C20 UNL     1      21.137   6.865  50.406  1.00  0.00     0.106 C 
HETATM   18  N4  UNL     1      22.002   7.287  51.283  1.00  0.00    -0.314 NA
HETATM   19  H20 UNL     1      21.850   8.153  51.812  1.00  0.00     0.185 HD
ENDBRANCH  16  17
ENDBRANCH  15  16
ENDBRANCH  11  15
BRANCH  10  20
HETATM   20  N3  UNL     1      25.460   0.935  51.902  1.00  0.00    -0.377 N 
HETATM   21  H12 UNL     1      25.312   0.816  50.875  1.00  0.00     0.160 HD
BRANCH  20  22
HETATM   22  C12 UNL     1      26.695   0.558  52.456  1.00  0.00     0.030 A 
HETATM   23  C13 UNL     1      27.614   1.452  52.946  1.00  0.00     0.032 A 
HETATM   24  C14 UNL     1      28.819   1.045  53.481  1.00  0.00     0.046 A 
HETATM   25  C15 UNL     1      29.144  -0.277  53.544  1.00  0.00     0.138 A 
HETATM   26  F1  UNL     1      30.324  -0.735  54.065  1.00  0.00    -0.204 F 
HETATM   27  C16 UNL     1      28.259  -1.235  53.066  1.00  0.00     0.074 A 
HETATM   28 CL1  UNL     1      28.620  -2.957  53.118  1.00  0.00    -0.081 Cl
HETATM   29  C17 UNL     1      27.077  -0.758  52.546  1.00  0.00     0.056 A 
ENDBRANCH  20  22
ENDBRANCH  10  20
TORSDOF 6
ENDMDL
MODEL 3
REMARK VINA RESULT:      -7.6      2.221      2.839
REMARK  6 active torsions:
REMARK  status: ('A' for Active; 'I' for Inactive)
REMARK    1  A    between atoms: C3_3  and  C4_4 
REMARK    2  A    between atoms: C11_13  and  N3_14 
REMARK    3  A    between atoms: N3_14  and  C12_15 
REMARK    4  A    between atoms: C18_23  and  O1_24 
REMARK    5  A    between atoms: O1_24  and  C19_25 
REMARK    6  A    between atoms: C19_25  and  C20_26 
ROOT
HETATM    1  C4  UNL     1      23.262   4.632  50.482  1.00  0.00     0.185 C 
HETATM    2  C5  UNL     1      23.792   5.915  50.965  1.00  0.00     0.100 C 
HETATM    3  N1  UNL     1      24.234   6.940  51.342  1.00  0.00    -0.194 NA
HETATM    4  N2  UNL     1      24.425   3.753  50.342  1.00  0.00    -0.263 NA
HETATM    5  C6  UNL     1      24.382   2.577  50.900  1.00  0.00     0.036 C 
HETATM    6  C7  UNL     1      23.100   2.011  50.311  1.00  0.00     0.068 C 
HETATM    7  C8  UNL     1      22.107   2.577  51.360  1.00  0.00     0.046 C 
HETATM    8  C9  UNL     1      22.676   1.983  52.634  1.00  0.00    -0.021 C 
HETATM    9  C10 UNL     1      23.816   1.294  52.800  1.00  0.00     0.000 C 
HETATM   10  C11 UNL     1      24.965   1.546  51.854  1.00  0.00     0.152 C 
HETATM   11  C18 UNL     1      22.241   4.072  51.435  1.00  0.00     0.178 C 
ENDROOT
BRANCH   1  12
HETATM   12  C3  UNL     1      22.611   4.847  49.164  1.00  0.00     0.020 C 
HETATM   13  C2  UNL     1      23.099   5.563  48.174  1.00  0.00    -0.031 C 
HETATM   14  C1  UNL     1      22.524   5.837  46.820  1.00  0.00     0.036 C 
ENDBRANCH   1  12
BRANCH  11  15
HETATM   15  O1  UNL     1      21.073   4.745  51.168  1.00  0.00    -0.376 OA
BRANCH  15  16
HETATM   16  C19 UNL     1      19.889   4.112  51.249  1.00  0.00     0.214 C 
BRANCH  16  17
HETATM   17  C20 UNL     1      18.957   4.222  50.124  1.00  0.00     0.106 C 
HETATM   18  N4  UNL     1      18.290   5.319  49.908  1.00  0.00    -0.314 NA
HETATM   19  H20 UNL     1      17.635   5.404  49.123  1.00  0.00     0.185 HD
ENDBRANCH  16  17
ENDBRANCH  15  16
ENDBRANCH  11  15
BRANCH  10  20
HETATM   20  N3  UNL     1      26.128   2.059  52.519  1.00  0.00    -0.377 N 
HETATM   21  H12 UNL     1      26.166   3.087  52.708  1.00  0.00     0.160 HD
BRANCH  20  22
HETATM   22  C12 UNL     1      27.208   1.257  52.925  1.00  0.00     0.030 A 
HETATM   23  C13 UNL     1      28.338   1.752  53.528  1.00  0.00     0.032 A 
HETATM   24  C14 UNL     1      29.380   0.932  53.913  1.00  0.00     0.046 A 
HETATM   25  C15 UNL     1      29.324  -0.413  53.706  1.00  0.00     0.138 A 
HETATM   26  F1  UNL     1      30.327  -1.270  54.069  1.00  0.00    -0.204 F 
HETATM   27  C16 UNL     1      28.209  -0.978  53.101  1.00  0.00     0.074 A 
HETATM   28 CL1  UNL     1      28.075  -2.709  52.806  1.00  0.00    -0.081 Cl
HETATM   29  C17 UNL     1      27.208  -0.104  52.743  1.00  0.00     0.056 A 
ENDBRANCH  20  22
ENDBRANCH  10  20
TORSDOF 6
ENDMDL
MODEL 4
REMARK VINA RESULT:      -7.6      3.732      5.976
REMARK  6 active torsions:
REMARK  status: ('A' for Active; 'I' for Inactive)
REMARK    1  A    between atoms: C3_3  and  C4_4 
REMARK    2  A    between atoms: C11_13  and  N3_14 
REMARK    3  A    between atoms: N3_14  and  C12_15 
REMARK    4  A    between atoms: C18_23  and  O1_24 
REMARK    5  A    between atoms: O1_24  and  C19_25 
REMARK    6  A    between atoms: C19_25  and  C20_26 
ROOT
HETATM    1  C4  UNL     1      24.526   3.597  50.049  1.00  0.00     0.185 C 
HETATM    2  C5  UNL     1      25.221   2.745  51.025  1.00  0.00     0.100 C 
HETATM    3  N1  UNL     1      25.782   2.048  51.792  1.00  0.00    -0.194 NA
HETATM    4  N2  UNL     1      23.883   2.676  49.110  1.00  0.00    -0.263 NA
HETATM    5  C6  UNL     1      22.615   2.836  48.858  1.00  0.00     0.036 C 
HETATM    6  C7  UNL     1      22.574   4.292  48.428  1.00  0.00     0.068 C 
HETATM    7  C8  UNL     1      22.406   4.933  49.831  1.00  0.00     0.046 C 
HETATM    8  C9  UNL     1      21.135   4.250  50.300  1.00  0.00    -0.021 C 
HETATM    9  C10 UNL     1      20.453   3.255  49.712  1.00  0.00     0.000 C 
HETATM   10  C11 UNL     1      21.197   2.287  48.823  1.00  0.00     0.152 C 
HETATM   11  C18 UNL     1      23.532   4.500  50.728  1.00  0.00     0.178 C 
ENDROOT
BRANCH   1  12
HETATM   12  C3  UNL     1      25.529   4.439  49.348  1.00  0.00     0.020 C 
HETATM   13  C2  UNL     1      26.816   4.185  49.255  1.00  0.00    -0.031 C 
HETATM   14  C1  UNL     1      27.897   4.966  48.575  1.00  0.00     0.036 C 
ENDBRANCH   1  12
BRANCH  11  15
HETATM   15  O1  UNL     1      24.264   5.545  51.237  1.00  0.00    -0.376 OA
BRANCH  15  16
HETATM   16  C19 UNL     1      23.881   6.815  51.018  1.00  0.00     0.214 C 
BRANCH  16  17
HETATM   17  C20 UNL     1      24.877   7.776  50.539  1.00  0.00     0.106 C 
HETATM   18  N4  UNL     1      26.140   7.634  50.825  1.00  0.00    -0.314 NA
HETATM   19  H20 UNL     1      26.844   8.303  50.494  1.00  0.00     0.185 HD
ENDBRANCH  16  17
ENDBRANCH  15  16
ENDBRANCH  11  15
BRANCH  10  20
HETATM   20  N3  UNL     1      21.154   0.940  49.314  1.00  0.00    -0.377 N 
HETATM   21  H12 UNL     1      21.203   0.166  48.613  1.00  0.00     0.160 HD
BRANCH  20  22
HETATM   22  C12 UNL     1      21.049   0.612  50.676  1.00  0.00     0.030 A 
HETATM   23  C13 UNL     1      19.854   0.417  51.322  1.00  0.00     0.032 A 
HETATM   24  C14 UNL     1      19.790   0.097  52.663  1.00  0.00     0.046 A 
HETATM   25  C15 UNL     1      20.926  -0.040  53.403  1.00  0.00     0.138 A 
HETATM   26  F1  UNL     1      20.920  -0.357  54.735  1.00  0.00    -0.204 F 
HETATM   27  C16 UNL     1      22.169   0.144  52.811  1.00  0.00     0.074 A 
HETATM   28 CL1  UNL     1      23.672  -0.018  53.712  1.00  0.00    -0.081 Cl
HETATM   29  C17 UNL     1      22.158   0.461  51.472  1.00  0.00     0.056 A 
ENDBRANCH  20  22
ENDBRANCH  10  20
TORSDOF 6
ENDMDL
MODEL 5
REMARK VINA RESULT:      -7.6      3.327      4.220
REMARK  6 active torsions:
REMARK  status: ('A' for Active; 'I' for Inactive)
REMARK    1  A    between atoms: C3_3  and  C4_4 
REMARK    2  A    between atoms: C11_13  and  N3_14 
REMARK    3  A    between atoms: N3_14  and  C12_15 
REMARK    4  A    between atoms: C18_23  and  O1_24 
REMARK    5  A    between atoms: O1_24  and  C19_25 
REMARK    6  A    between atoms: C19_25  and  C20_26 
ROOT
HETATM    1  C4  UNL     1      23.715   4.838  49.446  1.00  0.00     0.185 C 
HETATM    2  C5  UNL     1      24.744   5.700  48.846  1.00  0.00     0.100 C 
HETATM    3  N1  UNL     1      25.577   6.375  48.358  1.00  0.00    -0.194 NA
HETATM    4  N2  UNL     1      24.381   3.561  49.715  1.00  0.00    -0.263 NA
HETATM    5  C6  UNL     1      24.277   3.050  50.909  1.00  0.00     0.036 C 
HETATM    6  C7  UNL     1      22.769   3.017  51.093  1.00  0.00     0.068 C 
HETATM    7  C8  UNL     1      22.584   4.450  51.659  1.00  0.00     0.046 C 
HETATM    8  C9  UNL     1      23.492   4.391  52.872  1.00  0.00    -0.021 C 
HETATM    9  C10 UNL     1      24.334   3.412  53.242  1.00  0.00     0.000 C 
HETATM   10  C11 UNL     1      24.925   2.519  52.178  1.00  0.00     0.152 C 
HETATM   11  C18 UNL     1      23.149   5.456  50.695  1.00  0.00     0.178 C 
ENDROOT
BRANCH   1  12
HETATM   12  C3  UNL     1      22.613   4.654  48.467  1.00  0.00     0.020 C 
HETATM   13  C2  UNL     1      22.589   3.766  47.496  1.00  0.00    -0.031 C 
HETATM   14  C1  UNL     1      21.533   3.505  46.468  1.00  0.00     0.036 C 
ENDBRANCH   1  12
BRANCH  11  15
HETATM   15  O1  UNL     1      22.232   6.386  50.269  1.00  0.00    -0.376 OA
BRANCH  15  16
HETATM   16  C19 UNL     1      22.445   7.697  50.477  1.00  0.00     0.214 C 
BRANCH  16  17
HETATM   17  C20 UNL     1      22.542   8.585  49.315  1.00  0.00     0.106 C 
HETATM   18  N4  UNL     1      23.690   9.060  48.926  1.00  0.00    -0.314 NA
HETATM   19  H20 UNL     1      23.767   9.682  48.114  1.00  0.00     0.185 HD
ENDBRANCH  16  17
ENDBRANCH  15  16
ENDBRANCH  11  15
BRANCH  10  20
HETATM   20  N3  UNL     1      26.355   2.615  52.105  1.00  0.00    -0.377 N 
HETATM   21  H12 UNL     1      26.763   3.477  51.677  1.00  0.00     0.160 HD
BRANCH  20  22
HETATM   22  C12 UNL     1      27.225   1.618  52.578  1.00  0.00     0.030 A 
HETATM   23  C13 UNL     1      28.418   1.884  53.203  1.00  0.00     0.032 A 
HETATM   24  C14 UNL     1      29.249   0.877  53.653  1.00  0.00     0.046 A 
HETATM   25  C15 UNL     1      28.910  -0.432  53.491  1.00  0.00     0.138 A 
HETATM   26  F1  UNL     1      29.696  -1.469  53.918  1.00  0.00    -0.204 F 
HETATM   27  C16 UNL     1      27.717  -0.771  52.866  1.00  0.00     0.074 A 
HETATM   28 CL1  UNL     1      27.222  -2.443  52.626  1.00  0.00    -0.081 Cl
HETATM   29  C17 UNL     1      26.938   0.282  52.443  1.00  0.00     0.056 A 
ENDBRANCH  20  22
ENDBRANCH  10  20
TORSDOF 6
ENDMDL
MODEL 6
REMARK VINA RESULT:      -7.4      4.463      6.793
REMARK  6 active torsions:
REMARK  status: ('A' for Active; 'I' for Inactive)
REMARK    1  A    between atoms: C3_3  and  C4_4 
REMARK    2  A    between atoms: C11_13  and  N3_14 
REMARK    3  A    between atoms: N3_14  and  C12_15 
REMARK    4  A    between atoms: C18_23  and  O1_24 
REMARK    5  A    between atoms: O1_24  and  C19_25 
REMARK    6  A    between atoms: C19_25  and  C20_26 
ROOT
HETATM    1  C4  UNL     1      23.454   3.555  50.344  1.00  0.00     0.185 C 
HETATM    2  C5  UNL     1      23.019   3.128  49.006  1.00  0.00     0.100 C 
HETATM    3  N1  UNL     1      22.653   2.785  47.940  1.00  0.00    -0.194 NA
HETATM    4  N2  UNL     1      22.556   2.877  51.283  1.00  0.00    -0.263 NA
HETATM    5  C6  UNL     1      23.084   2.209  52.269  1.00  0.00     0.036 C 
HETATM    6  C7  UNL     1      23.972   3.264  52.907  1.00  0.00     0.068 C 
HETATM    7  C8  UNL     1      25.239   3.041  52.040  1.00  0.00     0.046 C 
HETATM    8  C9  UNL     1      25.505   1.571  52.306  1.00  0.00    -0.021 C 
HETATM    9  C10 UNL     1      24.748   0.692  52.981  1.00  0.00     0.000 C 
HETATM   10  C11 UNL     1      23.255   0.910  53.040  1.00  0.00     0.152 C 
HETATM   11  C18 UNL     1      24.896   3.203  50.585  1.00  0.00     0.178 C 
ENDROOT
BRANCH   1  12
HETATM   12  C3  UNL     1      23.302   5.028  50.451  1.00  0.00     0.020 C 
HETATM   13  C2  UNL     1      22.166   5.674  50.603  1.00  0.00    -0.031 C 
HETATM   14  C1  UNL     1      21.912   7.145  50.720  1.00  0.00     0.036 C 
ENDBRANCH   1  12
BRANCH  11  15
HETATM   15  O1  UNL     1      25.629   4.176  49.951  1.00  0.00    -0.376 OA
BRANCH  15  16
HETATM   16  C19 UNL     1      26.808   3.877  49.379  1.00  0.00     0.214 C 
BRANCH  16  17
HETATM   17  C20 UNL     1      27.521   4.928  48.648  1.00  0.00     0.106 C 
HETATM   18  N4  UNL     1      28.721   5.293  48.995  1.00  0.00    -0.314 NA
HETATM   19  H20 UNL     1      29.227   6.029  48.489  1.00  0.00     0.185 HD
ENDBRANCH  16  17
ENDBRANCH  15  16
ENDBRANCH  11  15
BRANCH  10  20
HETATM   20  N3  UNL     1      22.515  -0.155  52.427  1.00  0.00    -0.377 N 
HETATM   21  H12 UNL     1      23.054  -0.885  51.908  1.00  0.00     0.160 HD
BRANCH  20  22
HETATM   22  C12 UNL     1      21.115  -0.264  52.488  1.00  0.00     0.030 A 
HETATM   23  C13 UNL     1      20.440  -0.789  53.561  1.00  0.00     0.032 A 
HETATM   24  C14 UNL     1      19.062  -0.881  53.585  1.00  0.00     0.046 A 
HETATM   25  C15 UNL     1      18.315  -0.449  52.531  1.00  0.00     0.138 A 
HETATM   26  F1  UNL     1      16.948  -0.516  52.503  1.00  0.00    -0.204 F 
HETATM   27  C16 UNL     1      18.936   0.092  51.413  1.00  0.00     0.074 A 
HETATM   28 CL1  UNL     1      18.028   0.668  50.019  1.00  0.00    -0.081 Cl
HETATM   29  C17 UNL     1      20.311   0.154  51.457  1.00  0.00     0.056 A 
ENDBRANCH  20  22
ENDBRANCH  10  20
TORSDOF 6
ENDMDL
MODEL 7
REMARK VINA RESULT:      -7.2      9.357     12.126
REMARK  6 active torsions:
REMARK  status: ('A' for Active; 'I' for Inactive)
REMARK    1  A    between atoms: C3_3  and  C4_4 
REMARK    2  A    between atoms: C11_13  and  N3_14 
REMARK    3  A    between atoms: N3_14  and  C12_15 
REMARK    4  A    between atoms: C18_23  and  O1_24 
REMARK    5  A    between atoms: O1_24  and  C19_25 
REMARK    6  A    between atoms: C19_25  and  C20_26 
ROOT
HETATM    1  C4  UNL     1      32.078   5.949  47.036  1.00  0.00     0.185 C 
HETATM    2  C5  UNL     1      32.330   4.643  47.662  1.00  0.00     0.100 C 
HETATM    3  N1  UNL     1      32.516   3.590  48.156  1.00  0.00    -0.194 NA
HETATM    4  N2  UNL     1      30.623   6.042  46.893  1.00  0.00    -0.263 NA
HETATM    5  C6  UNL     1      30.026   7.110  47.341  1.00  0.00     0.036 C 
HETATM    6  C7  UNL     1      30.793   8.208  46.625  1.00  0.00     0.068 C 
HETATM    7  C8  UNL     1      31.941   8.383  47.654  1.00  0.00     0.046 C 
HETATM    8  C9  UNL     1      31.147   8.711  48.904  1.00  0.00    -0.021 C 
HETATM    9  C10 UNL     1      29.817   8.692  49.081  1.00  0.00     0.000 C 
HETATM   10  C11 UNL     1      28.983   7.761  48.235  1.00  0.00     0.152 C 
HETATM   11  C18 UNL     1      32.638   7.069  47.869  1.00  0.00     0.178 C 
ENDROOT
BRANCH   1  12
HETATM   12  C3  UNL     1      32.734   5.976  45.703  1.00  0.00     0.020 C 
HETATM   13  C2  UNL     1      33.041   4.923  44.977  1.00  0.00    -0.031 C 
HETATM   14  C1  UNL     1      33.697   4.849  43.633  1.00  0.00     0.036 C 
ENDBRANCH   1  12
BRANCH  11  15
HETATM   15  O1  UNL     1      33.983   7.106  47.589  1.00  0.00    -0.376 OA
BRANCH  15  16
HETATM   16  C19 UNL     1      34.885   7.136  48.585  1.00  0.00     0.214 C 
BRANCH  16  17
HETATM   17  C20 UNL     1      35.677   5.932  48.851  1.00  0.00     0.106 C 
HETATM   18  N4  UNL     1      35.204   4.965  49.584  1.00  0.00    -0.314 NA
HETATM   19  H20 UNL     1      35.753   4.119  49.775  1.00  0.00     0.185 HD
ENDBRANCH  16  17
ENDBRANCH  15  16
ENDBRANCH  11  15
BRANCH  10  20
HETATM   20  N3  UNL     1      28.287   6.778  49.015  1.00  0.00    -0.377 N 
HETATM   21  H12 UNL     1      28.826   6.274  49.755  1.00  0.00     0.160 HD
BRANCH  20  22
HETATM   22  C12 UNL     1      26.929   6.463  48.837  1.00  0.00     0.030 A 
HETATM   23  C13 UNL     1      26.022   7.312  48.254  1.00  0.00     0.032 A 
HETATM   24  C14 UNL     1      24.694   6.969  48.096  1.00  0.00     0.046 A 
HETATM   25  C15 UNL     1      24.231   5.759  48.518  1.00  0.00     0.138 A 
HETATM   26  F1  UNL     1      22.925   5.368  48.385  1.00  0.00    -0.204 F 
HETATM   27  C16 UNL     1      25.096   4.852  49.116  1.00  0.00     0.074 A 
HETATM   28 CL1  UNL     1      24.560   3.274  49.682  1.00  0.00    -0.081 Cl
HETATM   29  C17 UNL     1      26.405   5.260  49.241  1.00  0.00     0.056 A 
ENDBRANCH  20  22
ENDBRANCH  10  20
TORSDOF 6
ENDMDL
MODEL 8
REMARK VINA RESULT:      -7.2      3.438      5.049
REMARK  6 active torsions:
REMARK  status: ('A' for Active; 'I' for Inactive)
REMARK    1  A    between atoms: C3_3  and  C4_4 
REMARK    2  A    between atoms: C11_13  and  N3_14 
REMARK    3  A    between atoms: N3_14  and  C12_15 
REMARK    4  A    between atoms: C18_23  and  O1_24 
REMARK    5  A    between atoms: O1_24  and  C19_25 
REMARK    6  A    between atoms: C19_25  and  C20_26 
ROOT
HETATM    1  C4  UNL     1      21.357   4.843  50.485  1.00  0.00     0.185 C 
HETATM    2  C5  UNL     1      20.283   4.231  51.280  1.00  0.00     0.100 C 
HETATM    3  N1  UNL     1      19.428   3.752  51.934  1.00  0.00    -0.194 NA
HETATM    4  N2  UNL     1      22.427   5.149  51.438  1.00  0.00    -0.263 NA
HETATM    5  C6  UNL     1      23.633   4.740  51.164  1.00  0.00     0.036 C 
HETATM    6  C7  UNL     1      23.845   5.331  49.780  1.00  0.00     0.068 C 
HETATM    7  C8  UNL     1      23.233   4.172  48.949  1.00  0.00     0.046 C 
HETATM    8  C9  UNL     1      24.093   3.012  49.412  1.00  0.00    -0.021 C 
HETATM    9  C10 UNL     1      25.014   2.989  50.387  1.00  0.00     0.000 C 
HETATM   10  C11 UNL     1      24.877   3.952  51.542  1.00  0.00     0.152 C 
HETATM   11  C18 UNL     1      21.819   3.918  49.392  1.00  0.00     0.178 C 
ENDROOT
BRANCH   1  12
HETATM   12  C3  UNL     1      20.843   6.091  49.864  1.00  0.00     0.020 C 
HETATM   13  C2  UNL     1      20.954   7.301  50.366  1.00  0.00    -0.031 C 
HETATM   14  C1  UNL     1      20.473   8.610  49.820  1.00  0.00     0.036 C 
ENDBRANCH   1  12
BRANCH  11  15
HETATM   15  O1  UNL     1      20.895   4.042  48.383  1.00  0.00    -0.376 OA
BRANCH  15  16
HETATM   16  C19 UNL     1      20.257   2.958  47.908  1.00  0.00     0.214 C 
BRANCH  16  17
HETATM   17  C20 UNL     1      20.279   1.726  48.701  1.00  0.00     0.106 C 
HETATM   18  N4  UNL     1      19.238   1.350  49.387  1.00  0.00    -0.314 NA
HETATM   19  H20 UNL     1      19.246   0.489  49.946  1.00  0.00     0.185 HD
ENDBRANCH  16  17
ENDBRANCH  15  16
ENDBRANCH  11  15
BRANCH  10  20
HETATM   20  N3  UNL     1      24.703   3.286  52.801  1.00  0.00    -0.377 N 
HETATM   21  H12 UNL     1      25.017   3.787  53.663  1.00  0.00     0.160 HD
BRANCH  20  22
HETATM   22  C12 UNL     1      24.135   2.007  52.931  1.00  0.00     0.030 A 
HETATM   23  C13 UNL     1      24.859   0.882  53.240  1.00  0.00     0.032 A 
HETATM   24  C14 UNL     1      24.266  -0.360  53.358  1.00  0.00     0.046 A 
HETATM   25  C15 UNL     1      22.926  -0.514  53.171  1.00  0.00     0.138 A 
HETATM   26  F1  UNL     1      22.288  -1.721  53.278  1.00  0.00    -0.204 F 
HETATM   27  C16 UNL     1      22.135   0.584  52.857  1.00  0.00     0.074 A 
HETATM   28 CL1  UNL     1      20.398   0.450  52.604  1.00  0.00    -0.081 Cl
HETATM   29  C17 UNL     1      22.791   1.790  52.755  1.00  0.00     0.056 A 
ENDBRANCH  20  22
ENDBRANCH  10  20
TORSDOF 6
ENDMDL
MODEL 9
REMARK VINA RESULT:      -7.2      7.564      9.518
REMARK  6 active torsions:
REMARK  status: ('A' for Active; 'I' for Inactive)
REMARK    1  A    between atoms: C3_3  and  C4_4 
REMARK    2  A    between atoms: C11_13  and  N3_14 
REMARK    3  A    between atoms: N3_14  and  C12_15 
REMARK    4  A    between atoms: C18_23  and  O1_24 
REMARK    5  A    between atoms: O1_24  and  C19_25 
REMARK    6  A    between atoms: C19_25  and  C20_26 
ROOT
HETATM    1  C4  UNL     1      29.847   7.668  48.161  1.00  0.00     0.185 C 
HETATM    2  C5  UNL     1      31.010   7.260  48.961  1.00  0.00     0.100 C 
HETATM    3  N1  UNL     1      31.942   6.916  49.594  1.00  0.00    -0.194 NA
HETATM    4  N2  UNL     1      29.102   6.435  47.894  1.00  0.00    -0.263 NA
HETATM    5  C6  UNL     1      27.826   6.414  48.158  1.00  0.00     0.036 C 
HETATM    6  C7  UNL     1      27.336   7.620  47.374  1.00  0.00     0.068 C 
HETATM    7  C8  UNL     1      27.573   8.701  48.461  1.00  0.00     0.046 C 
HETATM    8  C9  UNL     1      26.732   8.148  49.595  1.00  0.00    -0.021 C 
HETATM    9  C10 UNL     1      26.097   6.968  49.668  1.00  0.00     0.000 C 
HETATM   10  C11 UNL     1      26.638   5.799  48.880  1.00  0.00     0.152 C 
HETATM   11  C18 UNL     1      29.014   8.686  48.891  1.00  0.00     0.178 C 
ENDROOT
BRANCH   1  12
HETATM   12  C3  UNL     1      30.326   8.271  46.891  1.00  0.00     0.020 C 
HETATM   13  C2  UNL     1      30.903   7.623  45.902  1.00  0.00    -0.031 C 
HETATM   14  C1  UNL     1      31.416   8.138  44.593  1.00  0.00     0.036 C 
ENDBRANCH   1  12
BRANCH  11  15
HETATM   15  O1  UNL     1      29.655   9.888  48.715  1.00  0.00    -0.376 OA
BRANCH  15  16
HETATM   16  C19 UNL     1      28.966  10.976  48.328  1.00  0.00     0.214 C 
BRANCH  16  17
HETATM   17  C20 UNL     1      29.314  12.272  48.915  1.00  0.00     0.106 C 
HETATM   18  N4  UNL     1      28.465  12.924  49.656  1.00  0.00    -0.314 NA
HETATM   19  H20 UNL     1      28.701  13.833  50.071  1.00  0.00     0.185 HD
ENDBRANCH  16  17
ENDBRANCH  15  16
ENDBRANCH  11  15
BRANCH  10  20
HETATM   20  N3  UNL     1      27.053   4.710  49.719  1.00  0.00    -0.377 N 
HETATM   21  H12 UNL     1      28.069   4.636  49.952  1.00  0.00     0.160 HD
BRANCH  20  22
HETATM   22  C12 UNL     1      26.168   3.749  50.237  1.00  0.00     0.030 A 
HETATM   23  C13 UNL     1      24.822   3.732  49.971  1.00  0.00     0.032 A 
HETATM   24  C14 UNL     1      23.983   2.772  50.501  1.00  0.00     0.046 A 
HETATM   25  C15 UNL     1      24.468   1.794  51.315  1.00  0.00     0.138 A 
HETATM   26  F1  UNL     1      23.681   0.817  51.865  1.00  0.00    -0.204 F 
HETATM   27  C16 UNL     1      25.821   1.752  51.624  1.00  0.00     0.074 A 
HETATM   28 CL1  UNL     1      26.509   0.515  52.671  1.00  0.00    -0.081 Cl
HETATM   29  C17 UNL     1      26.599   2.740  51.063  1.00  0.00     0.056 A 
ENDBRANCH  20  22
ENDBRANCH  10  20
TORSDOF 6
ENDMDL
