MODEL 1
REMARK VINA RESULT:      -9.1      0.000      0.000
REMARK  5 active torsions:
REMARK  status: ('A' for Active; 'I' for Inactive)
REMARK    1  A    between atoms: N1_1  and  C1_2 
REMARK    2  A    between atoms: C1_2  and  C2_3 
REMARK    3  A    between atoms: C1_2  and  C13_17 
REMARK    4  A    between atoms: C13_17  and  C14_18 
REMARK    5  A    between atoms: C19_23  and  N4_24 
ROOT
HETATM    1  C1  UNL     1      25.252  -0.057  53.820  1.00  0.00     0.007 C 
ENDROOT
BRANCH   1   2
HETATM    2  N1  UNL     1      25.113  -1.039  54.850  1.00  0.00    -0.402 N 
HETATM    3  H1  UNL     1      24.508  -1.778  54.369  1.00  0.00     0.156 HD
HETATM    4  H2  UNL     1      25.430  -1.202  55.860  1.00  0.00     0.156 HD
ENDBRANCH   1   2
BRANCH   1   5
HETATM    5  C2  UNL     1      24.637   1.138  53.727  1.00  0.00     0.040 C 
HETATM    6  C3  UNL     1      24.213   1.483  52.448  1.00  0.00     0.021 A 
HETATM    7  C4  UNL     1      24.403   2.026  51.090  1.00  0.00     0.135 A 
HETATM    8  C6  UNL     1      23.029   1.173  52.062  1.00  0.00     0.192 A 
HETATM    9  N2  UNL     1      23.272   1.798  50.507  1.00  0.00    -0.157 N 
HETATM   10  C5  UNL     1      22.204   1.580  49.962  1.00  0.00     0.393 A 
HETATM   11  N3  UNL     1      22.224   1.196  51.103  1.00  0.00     0.136 N 
HETATM   12  C9  UNL     1      21.131   0.890  50.700  1.00  0.00     0.389 A 
HETATM   13  C8  UNL     1      20.744   0.307  51.977  1.00  0.00     0.030 A 
HETATM   14  F1  UNL     1      20.234   0.774  49.710  1.00  0.00    -0.197 F 
HETATM   15  C7  UNL     1      21.924   0.518  52.789  1.00  0.00     0.014 A 
HETATM   16  C10 UNL     1      19.797  -0.349  52.917  1.00  0.00     0.013 A 
HETATM   17  C12 UNL     1      21.879   0.108  54.072  1.00  0.00     0.014 A 
HETATM   18  C11 UNL     1      20.519  -0.420  54.059  1.00  0.00     0.002 A 
ENDBRANCH   1   5
BRANCH   1  19
HETATM   19  C13 UNL     1      26.114  -0.475  52.659  1.00  0.00     0.097 C 
BRANCH  19  20
HETATM   20  C14 UNL     1      27.568  -0.382  53.059  1.00  0.00    -0.032 A 
HETATM   21  C15 UNL     1      28.249   0.746  53.376  1.00  0.00     0.009 A 
HETATM   22  C16 UNL     1      29.590   0.609  53.684  1.00  0.00     0.001 A 
HETATM   23  C17 UNL     1      30.263  -0.578  53.687  1.00  0.00     0.002 A 
HETATM   24  C18 UNL     1      29.584  -1.743  53.364  1.00  0.00     0.024 A 
HETATM   25  C19 UNL     1      28.203  -1.649  53.041  1.00  0.00     0.012 A 
BRANCH  25  26
HETATM   26  N4  UNL     1      27.750  -2.995  52.784  1.00  0.00    -0.302 NA
HETATM   27  H14 UNL     1      28.165  -3.031  51.805  1.00  0.00     0.124 HD
HETATM   28  H15 UNL     1      28.103  -3.185  51.805  1.00  0.00     0.124 HD
ENDBRANCH  25  26
ENDBRANCH  19  20
ENDBRANCH   1  19
TORSDOF 5
ENDMDL
MODEL 2
REMARK VINA RESULT:      -8.9      2.983      6.672
REMARK  5 active torsions:
REMARK  status: ('A' for Active; 'I' for Inactive)
REMARK    1  A    between atoms: N1_1  and  C1_2 
REMARK    2  A    between atoms: C1_2  and  C2_3 
REMARK    3  A    between atoms: C1_2  and  C13_17 
REMARK    4  A    between atoms: C13_17  and  C14_18 
REMARK    5  A    between atoms: C19_23  and  N4_24 
ROOT
HETATM    1  C1  UNL     1      25.045   2.190  52.510  1.00  0.00     0.007 C 
ENDROOT
BRANCH   1   2
HETATM    2  N1  UNL     1      24.806   2.899  53.729  1.00  0.00    -0.402 N 
HETATM    3  H1  UNL     1      23.751   2.775  53.851  1.00  0.00     0.156 HD
HETATM    4  H2  UNL     1      25.355   3.452  54.464  1.00  0.00     0.156 HD
ENDBRANCH   1   2
BRANCH   1   5
HETATM    5  C2  UNL     1      26.186   2.133  51.796  1.00  0.00     0.040 C 
HETATM    6  C3  UNL     1      27.352   2.112  52.554  1.00  0.00     0.021 A 
HETATM    7  C4  UNL     1      28.443   2.737  53.325  1.00  0.00     0.135 A 
HETATM    8  C6  UNL     1      27.863   0.991  52.909  1.00  0.00     0.192 A 
HETATM    9  N2  UNL     1      29.103   1.730  53.794  1.00  0.00    -0.157 N 
HETATM   10  C5  UNL     1      29.723   0.776  54.234  1.00  0.00     0.393 A 
HETATM   11  N3  UNL     1      28.781   0.442  53.562  1.00  0.00     0.136 N 
HETATM   12  C9  UNL     1      29.266  -0.594  53.939  1.00  0.00     0.389 A 
HETATM   13  C8  UNL     1      28.278  -1.397  53.233  1.00  0.00     0.030 A 
HETATM   14  F1  UNL     1      30.143  -1.275  54.690  1.00  0.00    -0.197 F 
HETATM   15  C7  UNL     1      27.451  -0.393  52.599  1.00  0.00     0.014 A 
HETATM   16  C10 UNL     1      27.673  -2.676  52.773  1.00  0.00     0.013 A 
HETATM   17  C12 UNL     1      26.435  -0.820  51.824  1.00  0.00     0.014 A 
HETATM   18  C11 UNL     1      26.651  -2.254  51.994  1.00  0.00     0.002 A 
ENDBRANCH   1   5
BRANCH   1  19
HETATM   19  C13 UNL     1      23.833   1.521  51.919  1.00  0.00     0.097 C 
BRANCH  19  20
HETATM   20  C14 UNL     1      23.166   0.674  52.977  1.00  0.00    -0.032 A 
HETATM   21  C15 UNL     1      23.734  -0.336  53.681  1.00  0.00     0.009 A 
HETATM   22  C16 UNL     1      22.932  -1.007  54.584  1.00  0.00     0.001 A 
HETATM   23  C17 UNL     1      21.615  -0.721  54.807  1.00  0.00     0.002 A 
HETATM   24  C18 UNL     1      21.016   0.308  54.096  1.00  0.00     0.024 A 
HETATM   25  C19 UNL     1      21.805   1.025  53.157  1.00  0.00     0.012 A 
BRANCH  25  26
HETATM   26  N4  UNL     1      20.949   2.043  52.596  1.00  0.00    -0.302 NA
HETATM   27  H14 UNL     1      21.214   1.822  51.590  1.00  0.00     0.124 HD
HETATM   28  H15 UNL     1      21.107   1.944  51.555  1.00  0.00     0.124 HD
ENDBRANCH  25  26
ENDBRANCH  19  20
ENDBRANCH   1  19
TORSDOF 5
ENDMDL
MODEL 3
REMARK VINA RESULT:      -8.9      2.259      3.119
REMARK  5 active torsions:
REMARK  status: ('A' for Active; 'I' for Inactive)
REMARK    1  A    between atoms: N1_1  and  C1_2 
REMARK    2  A    between atoms: C1_2  and  C2_3 
REMARK    3  A    between atoms: C1_2  and  C13_17 
REMARK    4  A    between atoms: C13_17  and  C14_18 
REMARK    5  A    between atoms: C19_23  and  N4_24 
ROOT
HETATM    1  C1  UNL     1      25.016   2.901  51.368  1.00  0.00     0.007 C 
ENDROOT
BRANCH   1   2
HETATM    2  N1  UNL     1      24.470   2.741  50.056  1.00  0.00    -0.402 N 
HETATM    3  H1  UNL     1      24.929   3.549  49.528  1.00  0.00     0.156 HD
HETATM    4  H2  UNL     1      23.800   2.089  49.533  1.00  0.00     0.156 HD
ENDBRANCH   1   2
BRANCH   1   5
HETATM    5  C2  UNL     1      24.368   3.247  52.497  1.00  0.00     0.040 C 
HETATM    6  C3  UNL     1      22.997   3.432  52.355  1.00  0.00     0.021 A 
HETATM    7  C4  UNL     1      21.793   4.210  52.009  1.00  0.00     0.135 A 
HETATM    8  C6  UNL     1      22.196   2.448  52.546  1.00  0.00     0.192 A 
HETATM    9  N2  UNL     1      20.829   3.360  52.138  1.00  0.00    -0.157 N 
HETATM   10  C5  UNL     1      19.923   2.553  52.262  1.00  0.00     0.393 A 
HETATM   11  N3  UNL     1      21.000   2.078  52.515  1.00  0.00     0.136 N 
HETATM   12  C9  UNL     1      20.225   1.165  52.656  1.00  0.00     0.389 A 
HETATM   13  C8  UNL     1      21.279   0.234  53.034  1.00  0.00     0.030 A 
HETATM   14  F1  UNL     1      18.995   0.644  52.555  1.00  0.00    -0.197 F 
HETATM   15  C7  UNL     1      22.466   1.061  52.975  1.00  0.00     0.014 A 
HETATM   16  C10 UNL     1      21.804  -1.083  53.483  1.00  0.00     0.013 A 
HETATM   17  C12 UNL     1      23.640   0.491  53.309  1.00  0.00     0.014 A 
HETATM   18  C11 UNL     1      23.129  -0.844  53.608  1.00  0.00     0.002 A 
ENDBRANCH   1   5
BRANCH   1  19
HETATM   19  C13 UNL     1      26.513   2.762  51.452  1.00  0.00     0.097 C 
BRANCH  19  20
HETATM   20  C14 UNL     1      26.855   1.441  52.098  1.00  0.00    -0.032 A 
HETATM   21  C15 UNL     1      26.554   0.207  51.625  1.00  0.00     0.009 A 
HETATM   22  C16 UNL     1      26.934  -0.876  52.396  1.00  0.00     0.001 A 
HETATM   23  C17 UNL     1      27.586  -0.780  53.592  1.00  0.00     0.002 A 
HETATM   24  C18 UNL     1      27.901   0.473  54.093  1.00  0.00     0.024 A 
HETATM   25  C19 UNL     1      27.529   1.615  53.333  1.00  0.00     0.012 A 
BRANCH  25  26
HETATM   26  N4  UNL     1      28.004   2.766  54.063  1.00  0.00    -0.302 NA
HETATM   27  H14 UNL     1      28.419   3.237  53.205  1.00  0.00     0.124 HD
HETATM   28  H15 UNL     1      28.460   3.356  53.313  1.00  0.00     0.124 HD
ENDBRANCH  25  26
ENDBRANCH  19  20
ENDBRANCH   1  19
TORSDOF 5
ENDMDL
MODEL 4
REMARK VINA RESULT:      -8.6      3.500      6.090
REMARK  5 active torsions:
REMARK  status: ('A' for Active; 'I' for Inactive)
REMARK    1  A    between atoms: N1_1  and  C1_2 
REMARK    2  A    between atoms: C1_2  and  C2_3 
REMARK    3  A    between atoms: C1_2  and  C13_17 
REMARK    4  A    between atoms: C13_17  and  C14_18 
REMARK    5  A    between atoms: C19_23  and  N4_24 
ROOT
HETATM    1  C1  UNL     1      24.268   3.738  51.575  1.00  0.00     0.007 C 
ENDROOT
BRANCH   1   2
HETATM    2  N1  UNL     1      24.174   4.238  52.912  1.00  0.00    -0.402 N 
HETATM    3  H1  UNL     1      24.243   3.339  53.487  1.00  0.00     0.156 HD
HETATM    4  H2  UNL     1      24.069   5.175  53.419  1.00  0.00     0.156 HD
ENDBRANCH   1   2
BRANCH   1   5
HETATM    5  C2  UNL     1      24.871   2.610  51.154  1.00  0.00     0.040 C 
HETATM    6  C3  UNL     1      25.617   1.946  52.122  1.00  0.00     0.021 A 
HETATM    7  C4  UNL     1      26.826   1.708  52.931  1.00  0.00     0.135 A 
HETATM    8  C6  UNL     1      25.067   1.035  52.838  1.00  0.00     0.192 A 
HETATM    9  N2  UNL     1      26.465   0.783  53.759  1.00  0.00    -0.157 N 
HETATM   10  C5  UNL     1      26.119  -0.089  54.537  1.00  0.00     0.393 A 
HETATM   11  N3  UNL     1      25.237   0.231  53.784  1.00  0.00     0.136 N 
HETATM   12  C9  UNL     1      24.740  -0.605  54.495  1.00  0.00     0.389 A 
HETATM   13  C8  UNL     1      23.456  -0.525  53.812  1.00  0.00     0.030 A 
HETATM   14  F1  UNL     1      24.787  -1.423  55.556  1.00  0.00    -0.197 F 
HETATM   15  C7  UNL     1      23.702   0.473  52.793  1.00  0.00     0.014 A 
HETATM   16  C10 UNL     1      22.047  -0.929  53.560  1.00  0.00     0.013 A 
HETATM   17  C12 UNL     1      22.694   0.764  51.949  1.00  0.00     0.014 A 
HETATM   18  C11 UNL     1      21.705  -0.155  52.504  1.00  0.00     0.002 A 
ENDBRANCH   1   5
BRANCH   1  19
HETATM   19  C13 UNL     1      23.709   4.652  50.517  1.00  0.00     0.097 C 
BRANCH  19  20
HETATM   20  C14 UNL     1      24.823   5.508  49.960  1.00  0.00    -0.032 A 
HETATM   21  C15 UNL     1      25.696   5.164  48.982  1.00  0.00     0.009 A 
HETATM   22  C16 UNL     1      26.664   6.090  48.643  1.00  0.00     0.001 A 
HETATM   23  C17 UNL     1      26.796   7.317  49.228  1.00  0.00     0.002 A 
HETATM   24  C18 UNL     1      25.913   7.687  50.232  1.00  0.00     0.024 A 
HETATM   25  C19 UNL     1      24.901   6.764  50.611  1.00  0.00     0.012 A 
BRANCH  25  26
HETATM   26  N4  UNL     1      24.118   7.414  51.636  1.00  0.00    -0.302 NA
HETATM   27  H14 UNL     1      23.219   7.397  51.069  1.00  0.00     0.124 HD
HETATM   28  H15 UNL     1      23.155   7.470  51.204  1.00  0.00     0.124 HD
ENDBRANCH  25  26
ENDBRANCH  19  20
ENDBRANCH   1  19
TORSDOF 5
ENDMDL
MODEL 5
REMARK VINA RESULT:      -8.6      2.655      4.396
REMARK  5 active torsions:
REMARK  status: ('A' for Active; 'I' for Inactive)
REMARK    1  A    between atoms: N1_1  and  C1_2 
REMARK    2  A    between atoms: C1_2  and  C2_3 
REMARK    3  A    between atoms: C1_2  and  C13_17 
REMARK    4  A    between atoms: C13_17  and  C14_18 
REMARK    5  A    between atoms: C19_23  and  N4_24 
ROOT
HETATM    1  C1  UNL     1      25.657   1.493  53.054  1.00  0.00     0.007 C 
ENDROOT
BRANCH   1   2
HETATM    2  N1  UNL     1      26.215   2.753  53.440  1.00  0.00    -0.402 N 
HETATM    3  H1  UNL     1      25.834   3.403  52.682  1.00  0.00     0.156 HD
HETATM    4  H2  UNL     1      26.840   3.158  54.210  1.00  0.00     0.156 HD
ENDBRANCH   1   2
BRANCH   1   5
HETATM    5  C2  UNL     1      24.941   1.210  51.949  1.00  0.00     0.040 C 
HETATM    6  C3  UNL     1      23.852   2.047  51.724  1.00  0.00     0.021 A 
HETATM    7  C4  UNL     1      22.460   2.490  51.917  1.00  0.00     0.135 A 
HETATM    8  C6  UNL     1      23.994   3.099  51.005  1.00  0.00     0.192 A 
HETATM    9  N2  UNL     1      22.392   3.593  51.247  1.00  0.00    -0.157 N 
HETATM   10  C5  UNL     1      22.335   4.633  50.613  1.00  0.00     0.393 A 
HETATM   11  N3  UNL     1      23.424   4.121  50.560  1.00  0.00     0.136 N 
HETATM   12  C9  UNL     1      23.533   5.135  49.917  1.00  0.00     0.389 A 
HETATM   13  C8  UNL     1      24.930   4.870  49.602  1.00  0.00     0.030 A 
HETATM   14  F1  UNL     1      23.047   6.304  49.476  1.00  0.00    -0.197 F 
HETATM   15  C7  UNL     1      25.168   3.607  50.268  1.00  0.00     0.014 A 
HETATM   16  C10 UNL     1      26.232   5.159  48.944  1.00  0.00     0.013 A 
HETATM   17  C12 UNL     1      26.391   3.057  50.142  1.00  0.00     0.014 A 
HETATM   18  C11 UNL     1      26.985   4.094  49.304  1.00  0.00     0.002 A 
ENDBRANCH   1   5
BRANCH   1  19
HETATM   19  C13 UNL     1      25.813   0.394  54.070  1.00  0.00     0.097 C 
BRANCH  19  20
HETATM   20  C14 UNL     1      26.961  -0.500  53.665  1.00  0.00    -0.032 A 
HETATM   21  C15 UNL     1      26.884  -1.626  52.914  1.00  0.00     0.009 A 
HETATM   22  C16 UNL     1      28.060  -2.316  52.686  1.00  0.00     0.001 A 
HETATM   23  C17 UNL     1      29.281  -1.939  53.168  1.00  0.00     0.002 A 
HETATM   24  C18 UNL     1      29.380  -0.792  53.939  1.00  0.00     0.024 A 
HETATM   25  C19 UNL     1      28.195  -0.050  54.198  1.00  0.00     0.012 A 
BRANCH  25  26
HETATM   26  N4  UNL     1      28.591   1.094  54.983  1.00  0.00    -0.302 NA
HETATM   27  H14 UNL     1      29.481   0.636  55.344  1.00  0.00     0.124 HD
HETATM   28  H15 UNL     1      29.501   0.781  55.422  1.00  0.00     0.124 HD
ENDBRANCH  25  26
ENDBRANCH  19  20
ENDBRANCH   1  19
TORSDOF 5
ENDMDL
MODEL 6
REMARK VINA RESULT:      -8.5      1.729      2.196
REMARK  5 active torsions:
REMARK  status: ('A' for Active; 'I' for Inactive)
REMARK    1  A    between atoms: N1_1  and  C1_2 
REMARK    2  A    between atoms: C1_2  and  C2_3 
REMARK    3  A    between atoms: C1_2  and  C13_17 
REMARK    4  A    between atoms: C13_17  and  C14_18 
REMARK    5  A    between atoms: C19_23  and  N4_24 
ROOT
HETATM    1  C1  UNL     1      25.973   2.225  53.244  1.00  0.00     0.007 C 
ENDROOT
BRANCH   1   2
HETATM    2  N1  UNL     1      27.146   2.397  52.443  1.00  0.00    -0.402 N 
HETATM    3  H1  UNL     1      27.333   1.398  52.112  1.00  0.00     0.156 HD
HETATM    4  H2  UNL     1      27.802   3.183  52.129  1.00  0.00     0.156 HD
ENDBRANCH   1   2
BRANCH   1   5
HETATM    5  C2  UNL     1      24.839   2.951  53.216  1.00  0.00     0.040 C 
HETATM    6  C3  UNL     1      24.279   3.119  51.953  1.00  0.00     0.021 A 
HETATM    7  C4  UNL     1      24.149   3.771  50.637  1.00  0.00     0.135 A 
HETATM    8  C6  UNL     1      23.407   2.282  51.525  1.00  0.00     0.192 A 
HETATM    9  N2  UNL     1      23.279   3.044  50.018  1.00  0.00    -0.157 N 
HETATM   10  C5  UNL     1      22.457   2.354  49.439  1.00  0.00     0.393 A 
HETATM   11  N3  UNL     1      22.685   1.959  50.553  1.00  0.00     0.136 N 
HETATM   12  C9  UNL     1      21.888   1.171  50.110  1.00  0.00     0.389 A 
HETATM   13  C8  UNL     1      21.868   0.391  51.339  1.00  0.00     0.030 A 
HETATM   14  F1  UNL     1      21.158   0.685  49.097  1.00  0.00    -0.197 F 
HETATM   15  C7  UNL     1      22.793   1.113  52.187  1.00  0.00     0.014 A 
HETATM   16  C10 UNL     1      21.394  -0.713  52.216  1.00  0.00     0.013 A 
HETATM   17  C12 UNL     1      22.980   0.654  53.439  1.00  0.00     0.014 A 
HETATM   18  C11 UNL     1      22.070  -0.486  53.365  1.00  0.00     0.002 A 
ENDBRANCH   1   5
BRANCH   1  19
HETATM   19  C13 UNL     1      26.083   1.167  54.308  1.00  0.00     0.097 C 
BRANCH  19  20
HETATM   20  C14 UNL     1      26.868  -0.004  53.767  1.00  0.00    -0.032 A 
HETATM   21  C15 UNL     1      26.378  -1.046  53.051  1.00  0.00     0.009 A 
HETATM   22  C16 UNL     1      27.270  -2.033  52.679  1.00  0.00     0.001 A 
HETATM   23  C17 UNL     1      28.600  -2.026  52.986  1.00  0.00     0.002 A 
HETATM   24  C18 UNL     1      29.121  -0.970  53.719  1.00  0.00     0.024 A 
HETATM   25  C19 UNL     1      28.238   0.068  54.122  1.00  0.00     0.012 A 
BRANCH  25  26
HETATM   26  N4  UNL     1      29.042   1.037  54.829  1.00  0.00    -0.302 NA
HETATM   27  H14 UNL     1      29.940   0.474  54.739  1.00  0.00     0.124 HD
HETATM   28  H15 UNL     1      30.006   0.602  54.821  1.00  0.00     0.124 HD
ENDBRANCH  25  26
ENDBRANCH  19  20
ENDBRANCH   1  19
TORSDOF 5
ENDMDL
MODEL 7
REMARK VINA RESULT:      -8.5      2.851      5.611
REMARK  5 active torsions:
REMARK  status: ('A' for Active; 'I' for Inactive)
REMARK    1  A    between atoms: N1_1  and  C1_2 
REMARK    2  A    between atoms: C1_2  and  C2_3 
REMARK    3  A    between atoms: C1_2  and  C13_17 
REMARK    4  A    between atoms: C13_17  and  C14_18 
REMARK    5  A    between atoms: C19_23  and  N4_24 
ROOT
HETATM    1  C1  UNL     1      25.235   2.488  52.212  1.00  0.00     0.007 C 
ENDROOT
BRANCH   1   2
HETATM    2  N1  UNL     1      24.988   3.106  53.478  1.00  0.00    -0.402 N 
HETATM    3  H1  UNL     1      24.451   3.985  53.191  1.00  0.00     0.156 HD
HETATM    4  H2  UNL     1      25.179   2.927  54.516  1.00  0.00     0.156 HD
ENDBRANCH   1   2
BRANCH   1   5
HETATM    5  C2  UNL     1      25.228   1.174  51.917  1.00  0.00     0.040 C 
HETATM    6  C3  UNL     1      24.889   0.337  52.975  1.00  0.00     0.021 A 
HETATM    7  C4  UNL     1      25.177  -0.440  54.195  1.00  0.00     0.135 A 
HETATM    8  C6  UNL     1      23.664   0.003  53.159  1.00  0.00     0.192 A 
HETATM    9  N2  UNL     1      24.017  -0.877  54.562  1.00  0.00    -0.157 N 
HETATM   10  C5  UNL     1      22.921  -1.288  54.903  1.00  0.00     0.393 A 
HETATM   11  N3  UNL     1      22.872  -0.624  53.899  1.00  0.00     0.136 N 
HETATM   12  C9  UNL     1      21.726  -0.928  54.118  1.00  0.00     0.389 A 
HETATM   13  C8  UNL     1      21.239  -0.222  52.941  1.00  0.00     0.030 A 
HETATM   14  F1  UNL     1      20.787  -1.481  54.898  1.00  0.00    -0.197 F 
HETATM   15  C7  UNL     1      22.456   0.316  52.370  1.00  0.00     0.014 A 
HETATM   16  C10 UNL     1      20.190   0.218  51.984  1.00  0.00     0.013 A 
HETATM   17  C12 UNL     1      22.351   1.016  51.225  1.00  0.00     0.014 A 
HETATM   18  C11 UNL     1      20.904   0.904  51.061  1.00  0.00     0.002 A 
ENDBRANCH   1   5
BRANCH   1  19
HETATM   19  C13 UNL     1      25.655   3.433  51.118  1.00  0.00     0.097 C 
BRANCH  19  20
HETATM   20  C14 UNL     1      24.438   3.845  50.322  1.00  0.00    -0.032 A 
HETATM   21  C15 UNL     1      23.987   3.272  49.180  1.00  0.00     0.009 A 
HETATM   22  C16 UNL     1      22.867   3.829  48.593  1.00  0.00     0.001 A 
HETATM   23  C17 UNL     1      22.195   4.911  49.086  1.00  0.00     0.002 A 
HETATM   24  C18 UNL     1      22.642   5.511  50.252  1.00  0.00     0.024 A 
HETATM   25  C19 UNL     1      23.791   4.971  50.890  1.00  0.00     0.012 A 
BRANCH  25  26
HETATM   26  N4  UNL     1      24.008   5.758  52.080  1.00  0.00    -0.302 NA
HETATM   27  H14 UNL     1      24.852   6.269  51.683  1.00  0.00     0.124 HD
HETATM   28  H15 UNL     1      24.851   6.346  51.830  1.00  0.00     0.124 HD
ENDBRANCH  25  26
ENDBRANCH  19  20
ENDBRANCH   1  19
TORSDOF 5
ENDMDL
MODEL 8
REMARK VINA RESULT:      -8.4      2.168      3.375
REMARK  5 active torsions:
REMARK  status: ('A' for Active; 'I' for Inactive)
REMARK    1  A    between atoms: N1_1  and  C1_2 
REMARK    2  A    between atoms: C1_2  and  C2_3 
REMARK    3  A    between atoms: C1_2  and  C13_17 
REMARK    4  A    between atoms: C13_17  and  C14_18 
REMARK    5  A    between atoms: C19_23  and  N4_24 
ROOT
HETATM    1  C1  UNL     1      24.684   1.762  52.456  1.00  0.00     0.007 C 
ENDROOT
BRANCH   1   2
HETATM    2  N1  UNL     1      24.406   2.877  51.603  1.00  0.00    -0.402 N 
HETATM    3  H1  UNL     1      25.384   3.139  51.260  1.00  0.00     0.156 HD
HETATM    4  H2  UNL     1      23.564   3.442  51.262  1.00  0.00     0.156 HD
ENDBRANCH   1   2
BRANCH   1   5
HETATM    5  C2  UNL     1      24.409   0.463  52.235  1.00  0.00     0.040 C 
HETATM    6  C3  UNL     1      23.509  -0.107  53.130  1.00  0.00     0.021 A 
HETATM    7  C4  UNL     1      23.132  -0.750  54.402  1.00  0.00     0.135 A 
HETATM    8  C6  UNL     1      22.254  -0.099  52.866  1.00  0.00     0.192 A 
HETATM    9  N2  UNL     1      21.844  -0.832  54.336  1.00  0.00    -0.157 N 
HETATM   10  C5  UNL     1      20.629  -0.906  54.268  1.00  0.00     0.393 A 
HETATM   11  N3  UNL     1      21.114  -0.400  53.290  1.00  0.00     0.136 N 
HETATM   12  C9  UNL     1      19.926  -0.378  53.086  1.00  0.00     0.389 A 
HETATM   13  C8  UNL     1      20.089   0.253  51.783  1.00  0.00     0.030 A 
HETATM   14  F1  UNL     1      18.662  -0.566  53.489  1.00  0.00    -0.197 F 
HETATM   15  C7  UNL     1      21.527   0.388  51.676  1.00  0.00     0.014 A 
HETATM   16  C10 UNL     1      19.599   0.799  50.490  1.00  0.00     0.013 A 
HETATM   17  C12 UNL     1      22.020   0.923  50.543  1.00  0.00     0.014 A 
HETATM   18  C11 UNL     1      20.747   1.149  49.865  1.00  0.00     0.002 A 
ENDBRANCH   1   5
BRANCH   1  19
HETATM   19  C13 UNL     1      25.260   2.122  53.800  1.00  0.00     0.097 C 
BRANCH  19  20
HETATM   20  C14 UNL     1      26.575   1.401  53.987  1.00  0.00    -0.032 A 
HETATM   21  C15 UNL     1      26.833   0.407  54.872  1.00  0.00     0.009 A 
HETATM   22  C16 UNL     1      28.121  -0.094  54.901  1.00  0.00     0.001 A 
HETATM   23  C17 UNL     1      29.138   0.346  54.104  1.00  0.00     0.002 A 
HETATM   24  C18 UNL     1      28.893   1.362  53.193  1.00  0.00     0.024 A 
HETATM   25  C19 UNL     1      27.583   1.907  53.129  1.00  0.00     0.012 A 
BRANCH  25  26
HETATM   26  N4  UNL     1      27.606   2.908  52.089  1.00  0.00    -0.302 NA
HETATM   27  H14 UNL     1      27.054   2.316  51.399  1.00  0.00     0.124 HD
HETATM   28  H15 UNL     1      27.071   2.448  51.301  1.00  0.00     0.124 HD
ENDBRANCH  25  26
ENDBRANCH  19  20
ENDBRANCH   1  19
TORSDOF 5
ENDMDL
MODEL 9
REMARK VINA RESULT:      -8.2      2.841      6.261
REMARK  5 active torsions:
REMARK  status: ('A' for Active; 'I' for Inactive)
REMARK    1  A    between atoms: N1_1  and  C1_2 
REMARK    2  A    between atoms: C1_2  and  C2_3 
REMARK    3  A    between atoms: C1_2  and  C13_17 
REMARK    4  A    between atoms: C13_17  and  C14_18 
REMARK    5  A    between atoms: C19_23  and  N4_24 
ROOT
HETATM    1  C1  UNL     1      24.299   3.239  51.495  1.00  0.00     0.007 C 
ENDROOT
BRANCH   1   2
HETATM    2  N1  UNL     1      24.306   4.034  52.685  1.00  0.00    -0.402 N 
HETATM    3  H1  UNL     1      23.764   3.414  53.366  1.00  0.00     0.156 HD
HETATM    4  H2  UNL     1      24.679   4.979  53.023  1.00  0.00     0.156 HD
ENDBRANCH   1   2
BRANCH   1   5
HETATM    5  C2  UNL     1      24.997   2.114  51.247  1.00  0.00     0.040 C 
HETATM    6  C3  UNL     1      25.782   1.665  52.305  1.00  0.00     0.021 A 
HETATM    7  C4  UNL     1      26.996   1.650  53.141  1.00  0.00     0.135 A 
HETATM    8  C6  UNL     1      25.298   0.828  53.148  1.00  0.00     0.192 A 
HETATM    9  N2  UNL     1      26.701   0.832  54.097  1.00  0.00    -0.157 N 
HETATM   10  C5  UNL     1      26.417   0.059  54.996  1.00  0.00     0.393 A 
HETATM   11  N3  UNL     1      25.521   0.190  54.203  1.00  0.00     0.136 N 
HETATM   12  C9  UNL     1      25.085  -0.570  55.030  1.00  0.00     0.389 A 
HETATM   13  C8  UNL     1      23.807  -0.698  54.342  1.00  0.00     0.030 A 
HETATM   14  F1  UNL     1      25.184  -1.214  56.201  1.00  0.00    -0.197 F 
HETATM   15  C7  UNL     1      23.985   0.155  53.186  1.00  0.00     0.014 A 
HETATM   16  C10 UNL     1      22.439  -1.250  54.152  1.00  0.00     0.013 A 
HETATM   17  C12 UNL     1      22.967   0.233  52.307  1.00  0.00     0.014 A 
HETATM   18  C11 UNL     1      22.049  -0.672  52.992  1.00  0.00     0.002 A 
ENDBRANCH   1   5
BRANCH   1  19
HETATM   19  C13 UNL     1      23.485   3.804  50.362  1.00  0.00     0.097 C 
BRANCH  19  20
HETATM   20  C14 UNL     1      22.365   2.847  50.028  1.00  0.00    -0.032 A 
HETATM   21  C15 UNL     1      22.337   1.960  49.003  1.00  0.00     0.009 A 
HETATM   22  C16 UNL     1      21.193   1.198  48.857  1.00  0.00     0.001 A 
HETATM   23  C17 UNL     1      20.101   1.283  49.672  1.00  0.00     0.002 A 
HETATM   24  C18 UNL     1      20.110   2.185  50.725  1.00  0.00     0.024 A 
HETATM   25  C19 UNL     1      21.266   2.989  50.912  1.00  0.00     0.012 A 
BRANCH  25  26
HETATM   26  N4  UNL     1      21.017   3.799  52.081  1.00  0.00    -0.302 NA
HETATM   27  H14 UNL     1      22.047   3.992  52.263  1.00  0.00     0.124 HD
HETATM   28  H15 UNL     1      21.989   4.080  52.390  1.00  0.00     0.124 HD
ENDBRANCH  25  26
ENDBRANCH  19  20
ENDBRANCH   1  19
TORSDOF 5
ENDMDL
