MODEL 1
REMARK VINA RESULT:      -7.9      0.000      0.000
REMARK  7 active torsions:
REMARK  status: ('A' for Active; 'I' for Inactive)
REMARK    1  A    between atoms: S1_2  and  O3_4 
REMARK    2  A    between atoms: S1_2  and  C1_5 
REMARK    3  A    between atoms: C5_9  and  N1_10 
REMARK    4  A    between atoms: N1_10  and  C6_11 
REMARK    5  A    between atoms: C6_11  and  C7_12 
REMARK    6  A    between atoms: C9_14  and  O4_15 
REMARK    7  A    between atoms: C12_18  and  O5_19 
ROOT
HETATM    1  N1  UNL     1      25.834   1.473  52.278  1.00  0.00    -0.386 N 
HETATM    2  H5  UNL     1      26.355   1.749  51.421  1.00  0.00     0.160 HD
ENDROOT
BRANCH   1   3
HETATM    3  C5  UNL     1      24.443   1.230  52.184  1.00  0.00     0.029 A 
HETATM    4  C4  UNL     1      23.654   1.656  51.139  1.00  0.00     0.029 A 
HETATM    5  C3  UNL     1      22.298   1.397  51.091  1.00  0.00     0.004 A 
HETATM    6  C2  UNL     1      21.679   0.692  52.100  1.00  0.00     0.025 A 
HETATM    7  C1  UNL     1      22.422   0.254  53.151  1.00  0.00     0.074 A 
HETATM    8  C13 UNL     1      23.780   0.527  53.178  1.00  0.00     0.054 A 
BRANCH   7   9
HETATM    9  S1  UNL     1      21.724  -0.641  54.491  1.00  0.00     0.129 S 
HETATM   10  O1  UNL     1      22.774  -1.103  55.438  1.00  0.00    -0.598 OA
HETATM   11  O2  UNL     1      21.010  -1.875  53.956  1.00  0.00    -0.598 OA
BRANCH   9  12
HETATM   12  O3  UNL     1      20.539   0.286  55.272  1.00  0.00    -0.292 OA
HETATM   13  H1  UNL     1      19.767  -0.295  55.411  1.00  0.00     0.232 HD
ENDBRANCH   9  12
ENDBRANCH   7   9
ENDBRANCH   1   3
BRANCH   1  14
HETATM   14  C6  UNL     1      26.542   1.350  53.522  1.00  0.00     0.161 C 
BRANCH  14  15
HETATM   15  C7  UNL     1      27.702   0.424  53.451  1.00  0.00    -0.005 A 
HETATM   16  C8  UNL     1      27.455  -0.904  53.205  1.00  0.00     0.048 A 
HETATM   17  C9  UNL     1      28.465  -1.829  53.131  1.00  0.00     0.066 A 
HETATM   18  C10 UNL     1      29.790  -1.457  53.303  1.00  0.00     0.039 A 
HETATM   19  C11 UNL     1      30.000  -0.109  53.550  1.00  0.00     0.040 A 
HETATM   20  C12 UNL     1      29.001   0.849  53.631  1.00  0.00     0.073 A 
BRANCH  17  21
HETATM   21  O4  UNL     1      28.254  -3.197  52.880  1.00  0.00    -0.361 OA
HETATM   22  H9  UNL     1      28.718  -3.667  52.114  1.00  0.00     0.217 HD
ENDBRANCH  17  21
BRANCH  20  23
HETATM   23  O5  UNL     1      29.272   2.188  53.881  1.00  0.00    -0.360 OA
HETATM   24  H12 UNL     1      28.828   2.649  54.673  1.00  0.00     0.217 HD
ENDBRANCH  20  23
ENDBRANCH  14  15
ENDBRANCH   1  14
TORSDOF 7
ENDMDL
MODEL 2
REMARK VINA RESULT:      -7.8      2.071      3.336
REMARK  7 active torsions:
REMARK  status: ('A' for Active; 'I' for Inactive)
REMARK    1  A    between atoms: S1_2  and  O3_4 
REMARK    2  A    between atoms: S1_2  and  C1_5 
REMARK    3  A    between atoms: C5_9  and  N1_10 
REMARK    4  A    between atoms: N1_10  and  C6_11 
REMARK    5  A    between atoms: C6_11  and  C7_12 
REMARK    6  A    between atoms: C9_14  and  O4_15 
REMARK    7  A    between atoms: C12_18  and  O5_19 
ROOT
HETATM    1  N1  UNL     1      25.201  -0.112  52.854  1.00  0.00    -0.386 N 
HETATM    2  H5  UNL     1      25.555   0.759  52.408  1.00  0.00     0.160 HD
ENDROOT
BRANCH   1   3
HETATM    3  C5  UNL     1      23.873  -0.139  53.341  1.00  0.00     0.029 A 
HETATM    4  C4  UNL     1      23.467  -0.865  54.438  1.00  0.00     0.029 A 
HETATM    5  C3  UNL     1      22.157  -0.861  54.876  1.00  0.00     0.004 A 
HETATM    6  C2  UNL     1      21.197  -0.120  54.223  1.00  0.00     0.025 A 
HETATM    7  C1  UNL     1      21.556   0.611  53.134  1.00  0.00     0.074 A 
HETATM    8  C13 UNL     1      22.875   0.591  52.712  1.00  0.00     0.054 A 
BRANCH   7   9
HETATM    9  S1  UNL     1      20.405   1.578  52.226  1.00  0.00     0.129 S 
HETATM   10  O1  UNL     1      20.095   2.852  52.930  1.00  0.00    -0.598 OA
HETATM   11  O2  UNL     1      19.102   0.805  52.077  1.00  0.00    -0.598 OA
BRANCH   9  12
HETATM   12  O3  UNL     1      20.971   1.854  50.652  1.00  0.00    -0.292 OA
HETATM   13  H1  UNL     1      20.293   2.386  50.193  1.00  0.00     0.232 HD
ENDBRANCH   9  12
ENDBRANCH   7   9
ENDBRANCH   1   3
BRANCH   1  14
HETATM   14  C6  UNL     1      26.070  -1.250  52.960  1.00  0.00     0.161 C 
BRANCH  14  15
HETATM   15  C7  UNL     1      27.483  -0.889  53.243  1.00  0.00    -0.005 A 
HETATM   16  C8  UNL     1      27.763   0.411  53.583  1.00  0.00     0.048 A 
HETATM   17  C9  UNL     1      29.040   0.832  53.853  1.00  0.00     0.066 A 
HETATM   18  C10 UNL     1      30.112  -0.046  53.792  1.00  0.00     0.039 A 
HETATM   19  C11 UNL     1      29.791  -1.349  53.444  1.00  0.00     0.040 A 
HETATM   20  C12 UNL     1      28.511  -1.805  53.166  1.00  0.00     0.073 A 
BRANCH  17  21
HETATM   21  O4  UNL     1      29.367   2.154  54.206  1.00  0.00    -0.361 OA
HETATM   22  H9  UNL     1      29.092   2.541  55.099  1.00  0.00     0.217 HD
ENDBRANCH  17  21
BRANCH  20  23
HETATM   23  O5  UNL     1      28.250  -3.125  52.823  1.00  0.00    -0.360 OA
HETATM   24  H12 UNL     1      28.245  -3.396  51.841  1.00  0.00     0.217 HD
ENDBRANCH  20  23
ENDBRANCH  14  15
ENDBRANCH   1  14
TORSDOF 7
ENDMDL
MODEL 3
REMARK VINA RESULT:      -7.8      2.845      3.767
REMARK  7 active torsions:
REMARK  status: ('A' for Active; 'I' for Inactive)
REMARK    1  A    between atoms: S1_2  and  O3_4 
REMARK    2  A    between atoms: S1_2  and  C1_5 
REMARK    3  A    between atoms: C5_9  and  N1_10 
REMARK    4  A    between atoms: N1_10  and  C6_11 
REMARK    5  A    between atoms: C6_11  and  C7_12 
REMARK    6  A    between atoms: C9_14  and  O4_15 
REMARK    7  A    between atoms: C12_18  and  O5_19 
ROOT
HETATM    1  N1  UNL     1      25.187  -0.766  53.830  1.00  0.00    -0.386 N 
HETATM    2  H5  UNL     1      25.334  -0.946  54.844  1.00  0.00     0.160 HD
ENDROOT
BRANCH   1   3
HETATM    3  C5  UNL     1      24.048  -0.032  53.424  1.00  0.00     0.029 A 
HETATM    4  C4  UNL     1      22.775  -0.553  53.360  1.00  0.00     0.029 A 
HETATM    5  C3  UNL     1      21.692   0.203  52.956  1.00  0.00     0.004 A 
HETATM    6  C2  UNL     1      21.849   1.524  52.598  1.00  0.00     0.025 A 
HETATM    7  C1  UNL     1      23.090   2.078  52.646  1.00  0.00     0.074 A 
HETATM    8  C13 UNL     1      24.161   1.300  53.053  1.00  0.00     0.054 A 
BRANCH   7   9
HETATM    9  S1  UNL     1      23.395   3.748  52.198  1.00  0.00     0.129 S 
HETATM   10  O1  UNL     1      22.141   4.434  51.782  1.00  0.00    -0.598 OA
HETATM   11  O2  UNL     1      24.356   3.788  51.018  1.00  0.00    -0.598 OA
BRANCH   9  12
HETATM   12  O3  UNL     1      24.169   4.571  53.463  1.00  0.00    -0.292 OA
HETATM   13  H1  UNL     1      24.205   5.513  53.212  1.00  0.00     0.232 HD
ENDBRANCH   9  12
ENDBRANCH   7   9
ENDBRANCH   1   3
BRANCH   1  14
HETATM   14  C6  UNL     1      26.142  -1.270  52.883  1.00  0.00     0.161 C 
BRANCH  14  15
HETATM   15  C7  UNL     1      27.544  -0.898  53.204  1.00  0.00    -0.005 A 
HETATM   16  C8  UNL     1      27.807   0.407  53.535  1.00  0.00     0.048 A 
HETATM   17  C9  UNL     1      29.074   0.838  53.838  1.00  0.00     0.066 A 
HETATM   18  C10 UNL     1      30.151  -0.036  53.822  1.00  0.00     0.039 A 
HETATM   19  C11 UNL     1      29.846  -1.345  53.483  1.00  0.00     0.040 A 
HETATM   20  C12 UNL     1      28.577  -1.811  53.172  1.00  0.00     0.073 A 
BRANCH  17  21
HETATM   21  O4  UNL     1      29.384   2.167  54.182  1.00  0.00    -0.361 OA
HETATM   22  H9  UNL     1      30.233   2.393  54.683  1.00  0.00     0.217 HD
ENDBRANCH  17  21
BRANCH  20  23
HETATM   23  O5  UNL     1      28.332  -3.136  52.839  1.00  0.00    -0.360 OA
HETATM   24  H12 UNL     1      27.576  -3.637  53.302  1.00  0.00     0.217 HD
ENDBRANCH  20  23
ENDBRANCH  14  15
ENDBRANCH   1  14
TORSDOF 7
ENDMDL
MODEL 4
REMARK VINA RESULT:      -7.7      3.732      4.430
REMARK  7 active torsions:
REMARK  status: ('A' for Active; 'I' for Inactive)
REMARK    1  A    between atoms: S1_2  and  O3_4 
REMARK    2  A    between atoms: S1_2  and  C1_5 
REMARK    3  A    between atoms: C5_9  and  N1_10 
REMARK    4  A    between atoms: N1_10  and  C6_11 
REMARK    5  A    between atoms: C6_11  and  C7_12 
REMARK    6  A    between atoms: C9_14  and  O4_15 
REMARK    7  A    between atoms: C12_18  and  O5_19 
ROOT
HETATM    1  N1  UNL     1      25.322   1.096  52.097  1.00  0.00    -0.386 N 
HETATM    2  H5  UNL     1      24.772   0.312  51.689  1.00  0.00     0.160 HD
ENDROOT
BRANCH   1   3
HETATM    3  C5  UNL     1      25.495   2.277  51.338  1.00  0.00     0.029 A 
HETATM    4  C4  UNL     1      26.479   2.449  50.390  1.00  0.00     0.029 A 
HETATM    5  C3  UNL     1      26.610   3.622  49.673  1.00  0.00     0.004 A 
HETATM    6  C2  UNL     1      25.749   4.676  49.883  1.00  0.00     0.025 A 
HETATM    7  C1  UNL     1      24.763   4.549  50.810  1.00  0.00     0.074 A 
HETATM    8  C13 UNL     1      24.652   3.363  51.518  1.00  0.00     0.054 A 
BRANCH   7   9
HETATM    9  S1  UNL     1      23.624   5.839  51.159  1.00  0.00     0.129 S 
HETATM   10  O1  UNL     1      22.404   5.315  51.831  1.00  0.00    -0.598 OA
HETATM   11  O2  UNL     1      23.189   6.494  49.856  1.00  0.00    -0.598 OA
BRANCH   9  12
HETATM   12  O3  UNL     1      24.368   7.058  52.074  1.00  0.00    -0.292 OA
HETATM   13  H1  UNL     1      23.754   7.289  52.795  1.00  0.00     0.232 HD
ENDBRANCH   9  12
ENDBRANCH   7   9
ENDBRANCH   1   3
BRANCH   1  14
HETATM   14  C6  UNL     1      25.884   0.950  53.410  1.00  0.00     0.161 C 
BRANCH  14  15
HETATM   15  C7  UNL     1      27.191   0.243  53.417  1.00  0.00    -0.005 A 
HETATM   16  C8  UNL     1      27.200  -1.102  53.144  1.00  0.00     0.048 A 
HETATM   17  C9  UNL     1      28.360  -1.834  53.137  1.00  0.00     0.066 A 
HETATM   18  C10 UNL     1      29.584  -1.239  53.407  1.00  0.00     0.039 A 
HETATM   19  C11 UNL     1      29.535   0.120  53.678  1.00  0.00     0.040 A 
HETATM   20  C12 UNL     1      28.379   0.886  53.693  1.00  0.00     0.073 A 
BRANCH  17  21
HETATM   21  O4  UNL     1      28.411  -3.213  52.862  1.00  0.00    -0.361 OA
HETATM   22  H9  UNL     1      27.694  -3.841  53.200  1.00  0.00     0.217 HD
ENDBRANCH  17  21
BRANCH  20  23
HETATM   23  O5  UNL     1      28.392   2.246  53.971  1.00  0.00    -0.360 OA
HETATM   24  H12 UNL     1      28.138   2.569  54.903  1.00  0.00     0.217 HD
ENDBRANCH  20  23
ENDBRANCH  14  15
ENDBRANCH   1  14
TORSDOF 7
ENDMDL
MODEL 5
REMARK VINA RESULT:      -7.6      2.280      2.699
REMARK  7 active torsions:
REMARK  status: ('A' for Active; 'I' for Inactive)
REMARK    1  A    between atoms: S1_2  and  O3_4 
REMARK    2  A    between atoms: S1_2  and  C1_5 
REMARK    3  A    between atoms: C5_9  and  N1_10 
REMARK    4  A    between atoms: N1_10  and  C6_11 
REMARK    5  A    between atoms: C6_11  and  C7_12 
REMARK    6  A    between atoms: C9_14  and  O4_15 
REMARK    7  A    between atoms: C12_18  and  O5_19 
ROOT
HETATM    1  N1  UNL     1      24.947   0.758  53.428  1.00  0.00    -0.386 N 
HETATM    2  H5  UNL     1      25.334   1.313  54.218  1.00  0.00     0.160 HD
ENDROOT
BRANCH   1   3
HETATM    3  C5  UNL     1      23.588   0.366  53.468  1.00  0.00     0.029 A 
HETATM    4  C4  UNL     1      23.131  -0.776  54.086  1.00  0.00     0.029 A 
HETATM    5  C3  UNL     1      21.793  -1.119  54.099  1.00  0.00     0.004 A 
HETATM    6  C2  UNL     1      20.855  -0.318  53.486  1.00  0.00     0.025 A 
HETATM    7  C1  UNL     1      21.263   0.819  52.864  1.00  0.00     0.074 A 
HETATM    8  C13 UNL     1      22.611   1.142  52.863  1.00  0.00     0.054 A 
BRANCH   7   9
HETATM    9  S1  UNL     1      20.147   1.899  52.045  1.00  0.00     0.129 S 
HETATM   10  O1  UNL     1      19.988   3.178  52.788  1.00  0.00    -0.598 OA
HETATM   11  O2  UNL     1      18.777   1.240  51.960  1.00  0.00    -0.598 OA
BRANCH   9  12
HETATM   12  O3  UNL     1      20.641   2.162  50.444  1.00  0.00    -0.292 OA
HETATM   13  H1  UNL     1      21.271   2.908  50.458  1.00  0.00     0.232 HD
ENDBRANCH   9  12
ENDBRANCH   7   9
ENDBRANCH   1   3
BRANCH   1  14
HETATM   14  C6  UNL     1      25.804   0.409  52.329  1.00  0.00     0.161 C 
BRANCH  14  15
HETATM   15  C7  UNL     1      27.104  -0.170  52.756  1.00  0.00    -0.005 A 
HETATM   16  C8  UNL     1      27.241  -1.535  52.734  1.00  0.00     0.048 A 
HETATM   17  C9  UNL     1      28.404  -2.154  53.118  1.00  0.00     0.066 A 
HETATM   18  C10 UNL     1      29.498  -1.419  53.548  1.00  0.00     0.039 A 
HETATM   19  C11 UNL     1      29.321  -0.043  53.557  1.00  0.00     0.040 A 
HETATM   20  C12 UNL     1      28.159   0.611  53.175  1.00  0.00     0.073 A 
BRANCH  17  21
HETATM   21  O4  UNL     1      28.585  -3.549  53.110  1.00  0.00    -0.361 OA
HETATM   22  H9  UNL     1      28.753  -4.050  52.247  1.00  0.00     0.217 HD
ENDBRANCH  17  21
BRANCH  20  23
HETATM   23  O5  UNL     1      28.041   1.994  53.205  1.00  0.00    -0.360 OA
HETATM   24  H12 UNL     1      27.249   2.439  52.745  1.00  0.00     0.217 HD
ENDBRANCH  20  23
ENDBRANCH  14  15
ENDBRANCH   1  14
TORSDOF 7
ENDMDL
MODEL 6
REMARK VINA RESULT:      -7.5      1.459      2.014
REMARK  7 active torsions:
REMARK  status: ('A' for Active; 'I' for Inactive)
REMARK    1  A    between atoms: S1_2  and  O3_4 
REMARK    2  A    between atoms: S1_2  and  C1_5 
REMARK    3  A    between atoms: C5_9  and  N1_10 
REMARK    4  A    between atoms: N1_10  and  C6_11 
REMARK    5  A    between atoms: C6_11  and  C7_12 
REMARK    6  A    between atoms: C9_14  and  O4_15 
REMARK    7  A    between atoms: C12_18  and  O5_19 
ROOT
HETATM    1  N1  UNL     1      26.397   2.329  53.151  1.00  0.00    -0.386 N 
HETATM    2  H5  UNL     1      27.071   3.120  53.104  1.00  0.00     0.160 HD
ENDROOT
BRANCH   1   3
HETATM    3  C5  UNL     1      25.317   2.297  52.237  1.00  0.00     0.029 A 
HETATM    4  C4  UNL     1      25.289   2.993  51.050  1.00  0.00     0.029 A 
HETATM    5  C3  UNL     1      24.211   2.932  50.188  1.00  0.00     0.004 A 
HETATM    6  C2  UNL     1      23.110   2.161  50.491  1.00  0.00     0.025 A 
HETATM    7  C1  UNL     1      23.096   1.458  51.655  1.00  0.00     0.074 A 
HETATM    8  C13 UNL     1      24.189   1.536  52.503  1.00  0.00     0.054 A 
BRANCH   7   9
HETATM    9  S1  UNL     1      21.736   0.457  52.136  1.00  0.00     0.129 S 
HETATM   10  O1  UNL     1      20.811   0.217  50.995  1.00  0.00    -0.598 OA
HETATM   11  O2  UNL     1      20.948   1.166  53.228  1.00  0.00    -0.598 OA
BRANCH   9  12
HETATM   12  O3  UNL     1      22.281  -0.997  52.818  1.00  0.00    -0.292 OA
HETATM   13  H1  UNL     1      22.019  -1.714  52.209  1.00  0.00     0.232 HD
ENDBRANCH   9  12
ENDBRANCH   7   9
ENDBRANCH   1   3
BRANCH   1  14
HETATM   14  C6  UNL     1      26.585   1.304  54.139  1.00  0.00     0.161 C 
BRANCH  14  15
HETATM   15  C7  UNL     1      27.738   0.413  53.852  1.00  0.00    -0.005 A 
HETATM   16  C8  UNL     1      27.478  -0.884  53.487  1.00  0.00     0.048 A 
HETATM   17  C9  UNL     1      28.483  -1.776  53.212  1.00  0.00     0.066 A 
HETATM   18  C10 UNL     1      29.816  -1.401  53.293  1.00  0.00     0.039 A 
HETATM   19  C11 UNL     1      30.039  -0.084  53.665  1.00  0.00     0.040 A 
HETATM   20  C12 UNL     1      29.045   0.841  53.949  1.00  0.00     0.073 A 
BRANCH  17  21
HETATM   21  O4  UNL     1      28.258  -3.113  52.834  1.00  0.00    -0.361 OA
HETATM   22  H9  UNL     1      28.338  -3.405  51.869  1.00  0.00     0.217 HD
ENDBRANCH  17  21
BRANCH  20  23
HETATM   23  O5  UNL     1      29.330   2.149  54.318  1.00  0.00    -0.360 OA
HETATM   24  H12 UNL     1      29.604   2.351  55.277  1.00  0.00     0.217 HD
ENDBRANCH  20  23
ENDBRANCH  14  15
ENDBRANCH   1  14
TORSDOF 7
ENDMDL
MODEL 7
REMARK VINA RESULT:      -7.2      4.397      5.983
REMARK  7 active torsions:
REMARK  status: ('A' for Active; 'I' for Inactive)
REMARK    1  A    between atoms: S1_2  and  O3_4 
REMARK    2  A    between atoms: S1_2  and  C1_5 
REMARK    3  A    between atoms: C5_9  and  N1_10 
REMARK    4  A    between atoms: N1_10  and  C6_11 
REMARK    5  A    between atoms: C6_11  and  C7_12 
REMARK    6  A    between atoms: C9_14  and  O4_15 
REMARK    7  A    between atoms: C12_18  and  O5_19 
ROOT
HETATM    1  N1  UNL     1      26.421   2.101  50.832  1.00  0.00    -0.386 N 
HETATM    2  H5  UNL     1      27.062   1.488  50.290  1.00  0.00     0.160 HD
ENDROOT
BRANCH   1   3
HETATM    3  C5  UNL     1      25.771   3.168  50.168  1.00  0.00     0.029 A 
HETATM    4  C4  UNL     1      24.418   3.213  49.917  1.00  0.00     0.029 A 
HETATM    5  C3  UNL     1      23.828   4.276  49.263  1.00  0.00     0.004 A 
HETATM    6  C2  UNL     1      24.582   5.345  48.833  1.00  0.00     0.025 A 
HETATM    7  C1  UNL     1      25.922   5.341  49.059  1.00  0.00     0.074 A 
HETATM    8  C13 UNL     1      26.492   4.263  49.717  1.00  0.00     0.054 A 
BRANCH   7   9
HETATM    9  S1  UNL     1      26.971   6.650  48.540  1.00  0.00     0.129 S 
HETATM   10  O1  UNL     1      26.370   7.409  47.410  1.00  0.00    -0.598 OA
HETATM   11  O2  UNL     1      28.295   6.076  48.057  1.00  0.00    -0.598 OA
BRANCH   9  12
HETATM   12  O3  UNL     1      27.346   7.665  49.846  1.00  0.00    -0.292 OA
HETATM   13  H1  UNL     1      26.811   8.474  49.743  1.00  0.00     0.232 HD
ENDBRANCH   9  12
ENDBRANCH   7   9
ENDBRANCH   1   3
BRANCH   1  14
HETATM   14  C6  UNL     1      26.220   1.844  52.231  1.00  0.00     0.161 C 
BRANCH  14  15
HETATM   15  C7  UNL     1      27.250   0.951  52.821  1.00  0.00    -0.005 A 
HETATM   16  C8  UNL     1      27.136  -0.399  52.603  1.00  0.00     0.048 A 
HETATM   17  C9  UNL     1      28.038  -1.296  53.117  1.00  0.00     0.066 A 
HETATM   18  C10 UNL     1      29.112  -0.871  53.885  1.00  0.00     0.039 A 
HETATM   19  C11 UNL     1      29.194   0.499  54.083  1.00  0.00     0.040 A 
HETATM   20  C12 UNL     1      28.298   1.430  53.577  1.00  0.00     0.073 A 
BRANCH  17  21
HETATM   21  O4  UNL     1      27.956  -2.686  52.917  1.00  0.00    -0.361 OA
HETATM   22  H9  UNL     1      27.556  -3.071  52.071  1.00  0.00     0.217 HD
ENDBRANCH  17  21
BRANCH  20  23
HETATM   23  O5  UNL     1      28.432   2.792  53.809  1.00  0.00    -0.360 OA
HETATM   24  H12 UNL     1      29.249   3.283  53.451  1.00  0.00     0.217 HD
ENDBRANCH  20  23
ENDBRANCH  14  15
ENDBRANCH   1  14
TORSDOF 7
ENDMDL
MODEL 8
REMARK VINA RESULT:      -7.2      1.332      2.638
REMARK  7 active torsions:
REMARK  status: ('A' for Active; 'I' for Inactive)
REMARK    1  A    between atoms: S1_2  and  O3_4 
REMARK    2  A    between atoms: S1_2  and  C1_5 
REMARK    3  A    between atoms: C5_9  and  N1_10 
REMARK    4  A    between atoms: N1_10  and  C6_11 
REMARK    5  A    between atoms: C6_11  and  C7_12 
REMARK    6  A    between atoms: C9_14  and  O4_15 
REMARK    7  A    between atoms: C12_18  and  O5_19 
ROOT
HETATM    1  N1  UNL     1      24.894   2.372  52.382  1.00  0.00    -0.386 N 
HETATM    2  H5  UNL     1      24.857   3.009  53.204  1.00  0.00     0.160 HD
ENDROOT
BRANCH   1   3
HETATM    3  C5  UNL     1      23.699   1.752  51.944  1.00  0.00     0.029 A 
HETATM    4  C4  UNL     1      23.221   1.821  50.655  1.00  0.00     0.029 A 
HETATM    5  C3  UNL     1      22.048   1.201  50.274  1.00  0.00     0.004 A 
HETATM    6  C2  UNL     1      21.304   0.480  51.182  1.00  0.00     0.025 A 
HETATM    7  C1  UNL     1      21.740   0.387  52.467  1.00  0.00     0.074 A 
HETATM    8  C13 UNL     1      22.920   1.019  52.826  1.00  0.00     0.054 A 
BRANCH   7   9
HETATM    9  S1  UNL     1      20.859  -0.498  53.700  1.00  0.00     0.129 S 
HETATM   10  O1  UNL     1      19.463  -0.783  53.269  1.00  0.00    -0.598 OA
HETATM   11  O2  UNL     1      20.787   0.340  54.969  1.00  0.00    -0.598 OA
BRANCH   9  12
HETATM   12  O3  UNL     1      21.687  -1.917  54.120  1.00  0.00    -0.292 OA
HETATM   13  H1  UNL     1      21.610  -2.017  55.088  1.00  0.00     0.232 HD
ENDBRANCH   9  12
ENDBRANCH   7   9
ENDBRANCH   1   3
BRANCH   1  14
HETATM   14  C6  UNL     1      26.151   2.143  51.726  1.00  0.00     0.161 C 
BRANCH  14  15
HETATM   15  C7  UNL     1      27.151   1.462  52.588  1.00  0.00    -0.005 A 
HETATM   16  C8  UNL     1      28.043   2.240  53.282  1.00  0.00     0.048 A 
HETATM   17  C9  UNL     1      29.004   1.694  54.095  1.00  0.00     0.066 A 
HETATM   18  C10 UNL     1      29.115   0.320  54.250  1.00  0.00     0.039 A 
HETATM   19  C11 UNL     1      28.197  -0.433  53.533  1.00  0.00     0.040 A 
HETATM   20  C12 UNL     1      27.215   0.090  52.704  1.00  0.00     0.073 A 
BRANCH  17  21
HETATM   21  O4  UNL     1      29.936   2.457  54.823  1.00  0.00    -0.361 OA
HETATM   22  H9  UNL     1      30.876   2.601  54.480  1.00  0.00     0.217 HD
ENDBRANCH  17  21
BRANCH  20  23
HETATM   23  O5  UNL     1      26.322  -0.715  52.010  1.00  0.00    -0.360 OA
HETATM   24  H12 UNL     1      26.677  -1.390  51.335  1.00  0.00     0.217 HD
ENDBRANCH  20  23
ENDBRANCH  14  15
ENDBRANCH   1  14
TORSDOF 7
ENDMDL
MODEL 9
REMARK VINA RESULT:      -7.1      4.130      6.592
REMARK  7 active torsions:
REMARK  status: ('A' for Active; 'I' for Inactive)
REMARK    1  A    between atoms: S1_2  and  O3_4 
REMARK    2  A    between atoms: S1_2  and  C1_5 
REMARK    3  A    between atoms: C5_9  and  N1_10 
REMARK    4  A    between atoms: N1_10  and  C6_11 
REMARK    5  A    between atoms: C6_11  and  C7_12 
REMARK    6  A    between atoms: C9_14  and  O4_15 
REMARK    7  A    between atoms: C12_18  and  O5_19 
ROOT
HETATM    1  N1  UNL     1      24.944   3.671  52.041  1.00  0.00    -0.386 N 
HETATM    2  H5  UNL     1      25.046   4.478  52.689  1.00  0.00     0.160 HD
ENDROOT
BRANCH   1   3
HETATM    3  C5  UNL     1      25.184   2.366  52.531  1.00  0.00     0.029 A 
HETATM    4  C4  UNL     1      24.224   1.382  52.613  1.00  0.00     0.029 A 
HETATM    5  C3  UNL     1      24.505   0.121  53.101  1.00  0.00     0.004 A 
HETATM    6  C2  UNL     1      25.774  -0.202  53.529  1.00  0.00     0.025 A 
HETATM    7  C1  UNL     1      26.752   0.740  53.466  1.00  0.00     0.074 A 
HETATM    8  C13 UNL     1      26.446   1.999  52.974  1.00  0.00     0.054 A 
BRANCH   7   9
HETATM    9  S1  UNL     1      28.397   0.429  53.997  1.00  0.00     0.129 S 
HETATM   10  O1  UNL     1      28.706  -1.026  53.977  1.00  0.00    -0.598 OA
HETATM   11  O2  UNL     1      28.566   0.918  55.429  1.00  0.00    -0.598 OA
BRANCH   9  12
HETATM   12  O3  UNL     1      29.500   1.317  53.064  1.00  0.00    -0.292 OA
HETATM   13  H1  UNL     1      30.387   1.151  53.436  1.00  0.00     0.232 HD
ENDBRANCH   9  12
ENDBRANCH   7   9
ENDBRANCH   1   3
BRANCH   1  14
HETATM   14  C6  UNL     1      24.567   3.910  50.676  1.00  0.00     0.161 C 
BRANCH  14  15
HETATM   15  C7  UNL     1      25.591   4.659  49.903  1.00  0.00    -0.005 A 
HETATM   16  C8  UNL     1      25.400   6.004  49.709  1.00  0.00     0.048 A 
HETATM   17  C9  UNL     1      26.291   6.770  49.001  1.00  0.00     0.066 A 
HETATM   18  C10 UNL     1      27.434   6.211  48.448  1.00  0.00     0.039 A 
HETATM   19  C11 UNL     1      27.593   4.851  48.665  1.00  0.00     0.040 A 
HETATM   20  C12 UNL     1      26.710   4.051  49.375  1.00  0.00     0.073 A 
BRANCH  17  21
HETATM   21  O4  UNL     1      26.130   8.150  48.780  1.00  0.00    -0.361 OA
HETATM   22  H9  UNL     1      26.133   8.807  49.549  1.00  0.00     0.217 HD
ENDBRANCH  17  21
BRANCH  20  23
HETATM   23  O5  UNL     1      26.923   2.692  49.560  1.00  0.00    -0.360 OA
HETATM   24  H12 UNL     1      26.707   2.043  48.805  1.00  0.00     0.217 HD
ENDBRANCH  20  23
ENDBRANCH  14  15
ENDBRANCH   1  14
TORSDOF 7
ENDMDL
