MODEL 1
REMARK VINA RESULT:      -8.8      0.000      0.000
REMARK  5 active torsions:
REMARK  status: ('A' for Active; 'I' for Inactive)
REMARK    1  A    between atoms: C4_4  and  N1_5 
REMARK    2  A    between atoms: N1_5  and  C5_6 
REMARK    3  A    between atoms: C5_6  and  N2_7 
REMARK    4  A    between atoms: C6_8  and  N3_9 
REMARK    5  A    between atoms: C7_10  and  C8_11 
ROOT
HETATM    1  N3  UNL     1      25.280   3.216  51.633  1.00  0.00    -0.255 NA
HETATM    2  C7  UNL     1      26.345   2.531  51.350  1.00  0.00     0.132 C 
ENDROOT
BRANCH   2   3
HETATM    3  C8  UNL     1      26.861   1.552  52.352  1.00  0.00     0.136 C 
HETATM    4  C9  UNL     1      26.642   0.113  52.037  1.00  0.00     0.085 C 
HETATM    5  C10 UNL     1      27.740  -0.766  52.556  1.00  0.00     0.250 C 
HETATM    6  C11 UNL     1      27.248  -2.143  52.938  1.00  0.00     0.203 C 
HETATM    7  N4  UNL     1      28.494  -0.156  53.603  1.00  0.00     0.097 N 
HETATM    8  O1  UNL     1      28.307  -2.963  53.237  1.00  0.00    -0.387 OA
HETATM    9  C12 UNL     1      29.551  -2.346  53.171  1.00  0.00     0.198 C 
HETATM   10  C13 UNL     1      29.612  -1.040  53.925  1.00  0.00     0.299 C 
HETATM   11  C14 UNL     1      27.800   0.117  54.807  1.00  0.00     0.275 C 
HETATM   12  C15 UNL     1      26.476   0.771  54.707  1.00  0.00     0.055 C 
HETATM   13  C16 UNL     1      26.362   1.881  53.732  1.00  0.00     0.127 C 
HETATM   14  N5  UNL     1      27.443   2.811  53.648  1.00  0.00    -0.197 NA
HETATM   15  O2  UNL     1      28.094   1.922  52.851  1.00  0.00    -0.287 OA
HETATM   16  H24 UNL     1      27.871   3.004  54.567  1.00  0.00     0.154 HD
ENDBRANCH   2   3
BRANCH   1  17
HETATM   17  C6  UNL     1      24.714   4.172  50.741  1.00  0.00     0.228 C 
HETATM   18  N2  UNL     1      23.710   4.496  49.999  1.00  0.00    -0.264 NA
BRANCH  18  19
HETATM   19  C5  UNL     1      22.588   3.606  49.938  1.00  0.00     0.272 C 
BRANCH  19  20
HETATM   20  N1  UNL     1      22.953   2.212  50.042  1.00  0.00    -0.372 N 
HETATM   21  H5  UNL     1      23.696   1.806  49.448  1.00  0.00     0.161 HD
BRANCH  20  22
HETATM   22  C4  UNL     1      22.299   1.367  50.961  1.00  0.00     0.029 A 
HETATM   23  C3  UNL     1      22.963   0.760  52.024  1.00  0.00     0.037 A 
HETATM   24  C2  UNL     1      22.385  -0.066  52.945  1.00  0.00    -0.038 A 
HETATM   25  C1  UNL     1      23.176  -0.674  54.055  1.00  0.00     0.050 C 
HETATM   26  C19 UNL     1      21.023  -0.337  52.831  1.00  0.00     0.040 A 
HETATM   27  C18 UNL     1      20.303   0.239  51.790  1.00  0.00     0.026 A 
HETATM   28 CL1  UNL     1      20.273  -1.393  54.002  1.00  0.00    -0.084 Cl
HETATM   29  C17 UNL     1      20.956   1.061  50.902  1.00  0.00     0.031 A 
ENDBRANCH  20  22
ENDBRANCH  19  20
ENDBRANCH  18  19
ENDBRANCH   1  17
TORSDOF 5
ENDMDL
MODEL 2
REMARK VINA RESULT:      -8.3      5.536      7.669
REMARK  5 active torsions:
REMARK  status: ('A' for Active; 'I' for Inactive)
REMARK    1  A    between atoms: C4_4  and  N1_5 
REMARK    2  A    between atoms: N1_5  and  C5_6 
REMARK    3  A    between atoms: C5_6  and  N2_7 
REMARK    4  A    between atoms: C6_8  and  N3_9 
REMARK    5  A    between atoms: C7_10  and  C8_11 
ROOT
HETATM    1  N3  UNL     1      26.946   3.154  50.645  1.00  0.00    -0.255 NA
HETATM    2  C7  UNL     1      26.115   2.581  51.459  1.00  0.00     0.132 C 
ENDROOT
BRANCH   2   3
HETATM    3  C8  UNL     1      26.635   1.573  52.430  1.00  0.00     0.136 C 
HETATM    4  C9  UNL     1      26.503   0.145  52.028  1.00  0.00     0.085 C 
HETATM    5  C10 UNL     1      27.620  -0.708  52.552  1.00  0.00     0.250 C 
HETATM    6  C11 UNL     1      27.182  -2.127  52.835  1.00  0.00     0.203 C 
HETATM    7  N4  UNL     1      28.294  -0.122  53.665  1.00  0.00     0.097 N 
HETATM    8  O1  UNL     1      28.267  -2.910  53.140  1.00  0.00    -0.387 OA
HETATM    9  C12 UNL     1      29.479  -2.231  53.167  1.00  0.00     0.198 C 
HETATM   10  C13 UNL     1      29.439  -0.968  53.992  1.00  0.00     0.299 C 
HETATM   11  C14 UNL     1      27.532   0.049  54.848  1.00  0.00     0.275 C 
HETATM   12  C15 UNL     1      26.183   0.643  54.719  1.00  0.00     0.055 C 
HETATM   13  C16 UNL     1      26.057   1.799  53.801  1.00  0.00     0.127 C 
HETATM   14  N5  UNL     1      27.092   2.783  53.819  1.00  0.00    -0.197 NA
HETATM   15  O2  UNL     1      27.823   1.973  53.008  1.00  0.00    -0.287 OA
HETATM   16  H24 UNL     1      27.468   2.944  54.767  1.00  0.00     0.154 HD
ENDBRANCH   2   3
BRANCH   1  17
HETATM   17  C6  UNL     1      26.543   4.127  49.685  1.00  0.00     0.228 C 
HETATM   18  N2  UNL     1      26.909   4.958  48.768  1.00  0.00    -0.264 NA
BRANCH  18  19
HETATM   19  C5  UNL     1      28.305   5.068  48.463  1.00  0.00     0.272 C 
BRANCH  19  20
HETATM   20  N1  UNL     1      28.849   6.382  48.720  1.00  0.00    -0.372 N 
HETATM   21  H5  UNL     1      28.257   7.145  49.092  1.00  0.00     0.161 HD
BRANCH  20  22
HETATM   22  C4  UNL     1      30.207   6.656  48.467  1.00  0.00     0.029 A 
HETATM   23  C3  UNL     1      30.950   5.958  47.518  1.00  0.00     0.037 A 
HETATM   24  C2  UNL     1      32.267   6.178  47.230  1.00  0.00    -0.038 A 
HETATM   25  C1  UNL     1      32.984   5.378  46.194  1.00  0.00     0.050 C 
HETATM   26  C19 UNL     1      32.941   7.177  47.929  1.00  0.00     0.040 A 
HETATM   27  C18 UNL     1      32.254   7.911  48.890  1.00  0.00     0.026 A 
HETATM   28 CL1  UNL     1      34.625   7.468  47.570  1.00  0.00    -0.084 Cl
HETATM   29  C17 UNL     1      30.929   7.631  49.124  1.00  0.00     0.031 A 
ENDBRANCH  20  22
ENDBRANCH  19  20
ENDBRANCH  18  19
ENDBRANCH   1  17
TORSDOF 5
ENDMDL
MODEL 3
REMARK VINA RESULT:      -8.1      4.240      6.212
REMARK  5 active torsions:
REMARK  status: ('A' for Active; 'I' for Inactive)
REMARK    1  A    between atoms: C4_4  and  N1_5 
REMARK    2  A    between atoms: N1_5  and  C5_6 
REMARK    3  A    between atoms: C5_6  and  N2_7 
REMARK    4  A    between atoms: C6_8  and  N3_9 
REMARK    5  A    between atoms: C7_10  and  C8_11 
ROOT
HETATM    1  N3  UNL     1      24.748   2.893  51.660  1.00  0.00    -0.255 NA
HETATM    2  C7  UNL     1      25.925   2.403  51.419  1.00  0.00     0.132 C 
ENDROOT
BRANCH   2   3
HETATM    3  C8  UNL     1      26.535   1.468  52.410  1.00  0.00     0.136 C 
HETATM    4  C9  UNL     1      26.489   0.020  52.062  1.00  0.00     0.085 C 
HETATM    5  C10 UNL     1      27.673  -0.737  52.585  1.00  0.00     0.250 C 
HETATM    6  C11 UNL     1      27.338  -2.170  52.929  1.00  0.00     0.203 C 
HETATM    7  N4  UNL     1      28.333  -0.067  53.657  1.00  0.00     0.097 N 
HETATM    8  O1  UNL     1      28.480  -2.868  53.231  1.00  0.00    -0.387 OA
HETATM    9  C12 UNL     1      29.644  -2.110  53.202  1.00  0.00     0.198 C 
HETATM   10  C13 UNL     1      29.541  -0.823  53.983  1.00  0.00     0.299 C 
HETATM   11  C14 UNL     1      27.592   0.097  54.854  1.00  0.00     0.275 C 
HETATM   12  C15 UNL     1      26.203   0.595  54.742  1.00  0.00     0.055 C 
HETATM   13  C16 UNL     1      25.977   1.706  53.787  1.00  0.00     0.127 C 
HETATM   14  N5  UNL     1      26.944   2.756  53.742  1.00  0.00    -0.197 NA
HETATM   15  O2  UNL     1      27.707   1.967  52.940  1.00  0.00    -0.287 OA
HETATM   16  H24 UNL     1      27.332   2.977  54.673  1.00  0.00     0.154 HD
ENDBRANCH   2   3
BRANCH   1  17
HETATM   17  C6  UNL     1      24.087   3.793  50.773  1.00  0.00     0.228 C 
HETATM   18  N2  UNL     1      24.183   4.842  50.030  1.00  0.00    -0.264 NA
BRANCH  18  19
HETATM   19  C5  UNL     1      25.446   5.517  49.957  1.00  0.00     0.272 C 
BRANCH  19  20
HETATM   20  N1  UNL     1      26.357   4.932  48.999  1.00  0.00    -0.372 N 
HETATM   21  H5  UNL     1      26.244   3.956  48.677  1.00  0.00     0.161 HD
BRANCH  20  22
HETATM   22  C4  UNL     1      27.427   5.685  48.477  1.00  0.00     0.029 A 
HETATM   23  C3  UNL     1      28.722   5.180  48.379  1.00  0.00     0.037 A 
HETATM   24  C2  UNL     1      29.797   5.860  47.883  1.00  0.00    -0.038 A 
HETATM   25  C1  UNL     1      31.152   5.237  47.817  1.00  0.00     0.050 C 
HETATM   26  C19 UNL     1      29.608   7.165  47.434  1.00  0.00     0.040 A 
HETATM   27  C18 UNL     1      28.337   7.727  47.505  1.00  0.00     0.026 A 
HETATM   28 CL1  UNL     1      30.975   8.045  46.799  1.00  0.00    -0.084 Cl
HETATM   29  C17 UNL     1      27.303   6.979  48.016  1.00  0.00     0.031 A 
ENDBRANCH  20  22
ENDBRANCH  19  20
ENDBRANCH  18  19
ENDBRANCH   1  17
TORSDOF 5
ENDMDL
MODEL 4
REMARK VINA RESULT:      -7.9      2.125      2.850
REMARK  5 active torsions:
REMARK  status: ('A' for Active; 'I' for Inactive)
REMARK    1  A    between atoms: C4_4  and  N1_5 
REMARK    2  A    between atoms: N1_5  and  C5_6 
REMARK    3  A    between atoms: C5_6  and  N2_7 
REMARK    4  A    between atoms: C6_8  and  N3_9 
REMARK    5  A    between atoms: C7_10  and  C8_11 
ROOT
HETATM    1  N3  UNL     1      26.507   3.159  50.677  1.00  0.00    -0.255 NA
HETATM    2  C7  UNL     1      25.764   2.292  51.291  1.00  0.00     0.132 C 
ENDROOT
BRANCH   2   3
HETATM    3  C8  UNL     1      26.385   1.411  52.324  1.00  0.00     0.136 C 
HETATM    4  C9  UNL     1      26.450  -0.041  51.996  1.00  0.00     0.085 C 
HETATM    5  C10 UNL     1      27.655  -0.712  52.585  1.00  0.00     0.250 C 
HETATM    6  C11 UNL     1      27.398  -2.160  52.934  1.00  0.00     0.203 C 
HETATM    7  N4  UNL     1      28.218   0.012  53.678  1.00  0.00     0.097 N 
HETATM    8  O1  UNL     1      28.568  -2.778  53.301  1.00  0.00    -0.387 OA
HETATM    9  C12 UNL     1      29.680  -1.945  53.315  1.00  0.00     0.198 C 
HETATM   10  C13 UNL     1      29.455  -0.658  54.071  1.00  0.00     0.299 C 
HETATM   11  C14 UNL     1      27.411   0.141  54.835  1.00  0.00     0.275 C 
HETATM   12  C15 UNL     1      26.000   0.546  54.650  1.00  0.00     0.055 C 
HETATM   13  C16 UNL     1      25.748   1.628  53.669  1.00  0.00     0.127 C 
HETATM   14  N5  UNL     1      26.645   2.739  53.654  1.00  0.00    -0.197 NA
HETATM   15  O2  UNL     1      27.496   1.992  52.901  1.00  0.00    -0.287 OA
HETATM   16  H24 UNL     1      26.973   2.996  54.600  1.00  0.00     0.154 HD
ENDBRANCH   2   3
BRANCH   1  17
HETATM   17  C6  UNL     1      26.002   4.042  49.678  1.00  0.00     0.228 C 
HETATM   18  N2  UNL     1      25.449   5.178  49.419  1.00  0.00    -0.264 NA
BRANCH  18  19
HETATM   19  C5  UNL     1      25.144   6.055  50.511  1.00  0.00     0.272 C 
BRANCH  19  20
HETATM   20  N1  UNL     1      24.431   5.408  51.588  1.00  0.00    -0.372 N 
HETATM   21  H5  UNL     1      24.904   5.163  52.475  1.00  0.00     0.161 HD
BRANCH  20  22
HETATM   22  C4  UNL     1      23.064   5.093  51.454  1.00  0.00     0.029 A 
HETATM   23  C3  UNL     1      22.494   3.963  52.036  1.00  0.00     0.037 A 
HETATM   24  C2  UNL     1      21.180   3.607  51.942  1.00  0.00    -0.038 A 
HETATM   25  C1  UNL     1      20.655   2.374  52.600  1.00  0.00     0.050 C 
HETATM   26  C19 UNL     1      20.321   4.424  51.211  1.00  0.00     0.040 A 
HETATM   27  C18 UNL     1      20.829   5.569  50.605  1.00  0.00     0.026 A 
HETATM   28 CL1  UNL     1      18.638   3.978  51.082  1.00  0.00    -0.084 Cl
HETATM   29  C17 UNL     1      22.165   5.862  50.745  1.00  0.00     0.031 A 
ENDBRANCH  20  22
ENDBRANCH  19  20
ENDBRANCH  18  19
ENDBRANCH   1  17
TORSDOF 5
ENDMDL
MODEL 5
REMARK VINA RESULT:      -7.8      5.333      7.398
REMARK  5 active torsions:
REMARK  status: ('A' for Active; 'I' for Inactive)
REMARK    1  A    between atoms: C4_4  and  N1_5 
REMARK    2  A    between atoms: N1_5  and  C5_6 
REMARK    3  A    between atoms: C5_6  and  N2_7 
REMARK    4  A    between atoms: C6_8  and  N3_9 
REMARK    5  A    between atoms: C7_10  and  C8_11 
ROOT
HETATM    1  N3  UNL     1      26.925   3.036  50.592  1.00  0.00    -0.255 NA
HETATM    2  C7  UNL     1      26.132   2.556  51.499  1.00  0.00     0.132 C 
ENDROOT
BRANCH   2   3
HETATM    3  C8  UNL     1      26.666   1.554  52.469  1.00  0.00     0.136 C 
HETATM    4  C9  UNL     1      26.497   0.123  52.095  1.00  0.00     0.085 C 
HETATM    5  C10 UNL     1      27.616  -0.741  52.596  1.00  0.00     0.250 C 
HETATM    6  C11 UNL     1      27.163  -2.147  52.915  1.00  0.00     0.203 C 
HETATM    7  N4  UNL     1      28.336  -0.150  53.676  1.00  0.00     0.097 N 
HETATM    8  O1  UNL     1      28.244  -2.945  53.197  1.00  0.00    -0.387 OA
HETATM    9  C12 UNL     1      29.468  -2.286  53.174  1.00  0.00     0.198 C 
HETATM   10  C13 UNL     1      29.477  -1.010  53.979  1.00  0.00     0.299 C 
HETATM   11  C14 UNL     1      27.617   0.053  54.880  1.00  0.00     0.275 C 
HETATM   12  C15 UNL     1      26.274   0.669  54.786  1.00  0.00     0.055 C 
HETATM   13  C16 UNL     1      26.138   1.813  53.853  1.00  0.00     0.127 C 
HETATM   14  N5  UNL     1      27.189   2.778  53.822  1.00  0.00    -0.197 NA
HETATM   15  O2  UNL     1      27.879   1.943  53.000  1.00  0.00    -0.287 OA
HETATM   16  H24 UNL     1      27.599   2.948  54.754  1.00  0.00     0.154 HD
ENDBRANCH   2   3
BRANCH   1  17
HETATM   17  C6  UNL     1      26.505   3.995  49.625  1.00  0.00     0.228 C 
HETATM   18  N2  UNL     1      26.859   4.880  48.756  1.00  0.00    -0.264 NA
BRANCH  18  19
HETATM   19  C5  UNL     1      28.258   5.123  48.558  1.00  0.00     0.272 C 
BRANCH  19  20
HETATM   20  N1  UNL     1      28.610   6.524  48.593  1.00  0.00    -0.372 N 
HETATM   21  H5  UNL     1      28.950   6.971  49.462  1.00  0.00     0.161 HD
BRANCH  20  22
HETATM   22  C4  UNL     1      28.498   7.320  47.436  1.00  0.00     0.029 A 
HETATM   23  C3  UNL     1      29.581   7.591  46.603  1.00  0.00     0.037 A 
HETATM   24  C2  UNL     1      29.534   8.352  45.471  1.00  0.00    -0.038 A 
HETATM   25  C1  UNL     1      30.749   8.589  44.638  1.00  0.00     0.050 C 
HETATM   26  C19 UNL     1      28.315   8.914  45.100  1.00  0.00     0.040 A 
HETATM   27  C18 UNL     1      27.194   8.682  45.890  1.00  0.00     0.026 A 
HETATM   28 CL1  UNL     1      28.242   9.892  43.654  1.00  0.00    -0.084 Cl
HETATM   29  C17 UNL     1      27.320   7.903  47.016  1.00  0.00     0.031 A 
ENDBRANCH  20  22
ENDBRANCH  19  20
ENDBRANCH  18  19
ENDBRANCH   1  17
TORSDOF 5
ENDMDL
MODEL 6
REMARK VINA RESULT:      -7.5      2.015      2.858
REMARK  5 active torsions:
REMARK  status: ('A' for Active; 'I' for Inactive)
REMARK    1  A    between atoms: C4_4  and  N1_5 
REMARK    2  A    between atoms: N1_5  and  C5_6 
REMARK    3  A    between atoms: C5_6  and  N2_7 
REMARK    4  A    between atoms: C6_8  and  N3_9 
REMARK    5  A    between atoms: C7_10  and  C8_11 
ROOT
HETATM    1  N3  UNL     1      23.159   1.935  50.279  1.00  0.00    -0.255 NA
HETATM    2  C7  UNL     1      24.245   2.260  50.910  1.00  0.00     0.132 C 
ENDROOT
BRANCH   2   3
HETATM    3  C8  UNL     1      24.739   1.372  52.003  1.00  0.00     0.136 C 
HETATM    4  C9  UNL     1      25.948   0.559  51.692  1.00  0.00     0.085 C 
HETATM    5  C10 UNL     1      26.813   0.327  52.895  1.00  0.00     0.250 C 
HETATM    6  C11 UNL     1      27.538  -0.998  52.840  1.00  0.00     0.203 C 
HETATM    7  N4  UNL     1      26.115   0.507  54.126  1.00  0.00     0.097 N 
HETATM    8  O1  UNL     1      28.447  -1.088  53.865  1.00  0.00    -0.387 OA
HETATM    9  C12 UNL     1      28.458   0.005  54.723  1.00  0.00     0.198 C 
HETATM   10  C13 UNL     1      27.085   0.397  55.213  1.00  0.00     0.299 C 
HETATM   11  C14 UNL     1      25.061  -0.402  54.395  1.00  0.00     0.275 C 
HETATM   12  C15 UNL     1      24.090  -0.671  53.312  1.00  0.00     0.055 C 
HETATM   13  C16 UNL     1      23.631   0.503  52.531  1.00  0.00     0.127 C 
HETATM   14  N5  UNL     1      23.342   1.707  53.243  1.00  0.00    -0.197 NA
HETATM   15  O2  UNL     1      24.673   1.983  53.238  1.00  0.00    -0.287 OA
HETATM   16  H24 UNL     1      22.912   1.528  54.164  1.00  0.00     0.154 HD
ENDBRANCH   2   3
BRANCH   1  17
HETATM   17  C6  UNL     1      22.611   2.721  49.224  1.00  0.00     0.228 C 
HETATM   18  N2  UNL     1      21.557   3.265  48.717  1.00  0.00    -0.264 NA
BRANCH  18  19
HETATM   19  C5  UNL     1      20.306   3.097  49.395  1.00  0.00     0.272 C 
BRANCH  19  20
HETATM   20  N1  UNL     1      19.641   1.854  49.079  1.00  0.00    -0.372 N 
HETATM   21  H5  UNL     1      19.529   1.539  48.100  1.00  0.00     0.161 HD
BRANCH  20  22
HETATM   22  C4  UNL     1      19.128   1.035  50.104  1.00  0.00     0.029 A 
HETATM   23  C3  UNL     1      19.833   0.768  51.275  1.00  0.00     0.037 A 
HETATM   24  C2  UNL     1      19.389  -0.015  52.301  1.00  0.00    -0.038 A 
HETATM   25  C1  UNL     1      20.215  -0.247  53.522  1.00  0.00     0.050 C 
HETATM   26  C19 UNL     1      18.131  -0.604  52.190  1.00  0.00     0.040 A 
HETATM   27  C18 UNL     1      17.376  -0.376  51.044  1.00  0.00     0.026 A 
HETATM   28 CL1  UNL     1      17.552  -1.609  53.495  1.00  0.00    -0.084 Cl
HETATM   29  C17 UNL     1      17.892   0.425  50.053  1.00  0.00     0.031 A 
ENDBRANCH  20  22
ENDBRANCH  19  20
ENDBRANCH  18  19
ENDBRANCH   1  17
TORSDOF 5
ENDMDL
MODEL 7
REMARK VINA RESULT:      -7.5      3.425      7.199
REMARK  5 active torsions:
REMARK  status: ('A' for Active; 'I' for Inactive)
REMARK    1  A    between atoms: C4_4  and  N1_5 
REMARK    2  A    between atoms: N1_5  and  C5_6 
REMARK    3  A    between atoms: C5_6  and  N2_7 
REMARK    4  A    between atoms: C6_8  and  N3_9 
REMARK    5  A    between atoms: C7_10  and  C8_11 
ROOT
HETATM    1  N3  UNL     1      22.549   2.086  51.632  1.00  0.00    -0.255 NA
HETATM    2  C7  UNL     1      23.194   2.274  50.523  1.00  0.00     0.132 C 
ENDROOT
BRANCH   2   3
HETATM    3  C8  UNL     1      23.781   3.618  50.247  1.00  0.00     0.136 C 
HETATM    4  C9  UNL     1      23.182   4.378  49.115  1.00  0.00     0.085 C 
HETATM    5  C10 UNL     1      23.208   5.861  49.336  1.00  0.00     0.250 C 
HETATM    6  C11 UNL     1      23.342   6.636  48.046  1.00  0.00     0.203 C 
HETATM    7  N4  UNL     1      24.173   6.263  50.307  1.00  0.00     0.097 N 
HETATM    8  O1  UNL     1      23.183   7.980  48.277  1.00  0.00    -0.387 OA
HETATM    9  C12 UNL     1      22.991   8.316  49.612  1.00  0.00     0.198 C 
HETATM   10  C13 UNL     1      24.007   7.695  50.539  1.00  0.00     0.299 C 
HETATM   11  C14 UNL     1      25.533   6.034  49.981  1.00  0.00     0.275 C 
HETATM   12  C15 UNL     1      25.898   4.704  49.443  1.00  0.00     0.055 C 
HETATM   13  C16 UNL     1      25.276   3.532  50.104  1.00  0.00     0.127 C 
HETATM   14  N5  UNL     1      25.180   3.542  51.528  1.00  0.00    -0.197 NA
HETATM   15  O2  UNL     1      24.064   4.309  51.409  1.00  0.00    -0.287 OA
HETATM   16  H24 UNL     1      25.997   3.986  51.977  1.00  0.00     0.154 HD
ENDBRANCH   2   3
BRANCH   1  17
HETATM   17  C6  UNL     1      21.955   0.838  51.981  1.00  0.00     0.228 C 
HETATM   18  N2  UNL     1      22.063  -0.262  52.646  1.00  0.00    -0.264 NA
BRANCH  18  19
HETATM   19  C5  UNL     1      23.243  -0.474  53.431  1.00  0.00     0.272 C 
BRANCH  19  20
HETATM   20  N1  UNL     1      24.245   0.553  53.254  1.00  0.00    -0.372 N 
HETATM   21  H5  UNL     1      23.980   1.542  53.107  1.00  0.00     0.161 HD
BRANCH  20  22
HETATM   22  C4  UNL     1      25.615   0.228  53.278  1.00  0.00     0.029 A 
HETATM   23  C3  UNL     1      26.595   1.134  53.677  1.00  0.00     0.037 A 
HETATM   24  C2  UNL     1      27.935   0.877  53.722  1.00  0.00    -0.038 A 
HETATM   25  C1  UNL     1      28.915   1.912  54.165  1.00  0.00     0.050 C 
HETATM   26  C19 UNL     1      28.382  -0.386  53.341  1.00  0.00     0.040 A 
HETATM   27  C18 UNL     1      27.453  -1.337  52.930  1.00  0.00     0.026 A 
HETATM   28 CL1  UNL     1      30.093  -0.727  53.392  1.00  0.00    -0.084 Cl
HETATM   29  C17 UNL     1      26.119  -1.004  52.913  1.00  0.00     0.031 A 
ENDBRANCH  20  22
ENDBRANCH  19  20
ENDBRANCH  18  19
ENDBRANCH   1  17
TORSDOF 5
ENDMDL
MODEL 8
REMARK VINA RESULT:      -7.4      2.649      6.328
REMARK  5 active torsions:
REMARK  status: ('A' for Active; 'I' for Inactive)
REMARK    1  A    between atoms: C4_4  and  N1_5 
REMARK    2  A    between atoms: N1_5  and  C5_6 
REMARK    3  A    between atoms: C5_6  and  N2_7 
REMARK    4  A    between atoms: C6_8  and  N3_9 
REMARK    5  A    between atoms: C7_10  and  C8_11 
ROOT
HETATM    1  N3  UNL     1      25.437   2.471  53.150  1.00  0.00    -0.255 NA
HETATM    2  C7  UNL     1      25.751   2.651  51.904  1.00  0.00     0.132 C 
ENDROOT
BRANCH   2   3
HETATM    3  C8  UNL     1      24.876   3.512  51.055  1.00  0.00     0.136 C 
HETATM    4  C9  UNL     1      23.625   4.008  51.693  1.00  0.00     0.085 C 
HETATM    5  C10 UNL     1      23.218   5.361  51.190  1.00  0.00     0.250 C 
HETATM    6  C11 UNL     1      21.719   5.552  51.190  1.00  0.00     0.203 C 
HETATM    7  N4  UNL     1      23.801   5.686  49.929  1.00  0.00     0.097 N 
HETATM    8  O1  UNL     1      21.403   6.855  50.894  1.00  0.00    -0.387 OA
HETATM    9  C12 UNL     1      22.498   7.666  50.621  1.00  0.00     0.198 C 
HETATM   10  C13 UNL     1      23.450   7.068  49.614  1.00  0.00     0.299 C 
HETATM   11  C14 UNL     1      23.415   4.882  48.828  1.00  0.00     0.275 C 
HETATM   12  C15 UNL     1      23.421   3.413  49.011  1.00  0.00     0.055 C 
HETATM   13  C16 UNL     1      24.578   2.844  49.740  1.00  0.00     0.127 C 
HETATM   14  N5  UNL     1      25.875   3.367  49.448  1.00  0.00    -0.197 NA
HETATM   15  O2  UNL     1      25.606   4.399  50.291  1.00  0.00    -0.287 OA
HETATM   16  H24 UNL     1      25.989   3.605  48.450  1.00  0.00     0.154 HD
ENDBRANCH   2   3
BRANCH   1  17
HETATM   17  C6  UNL     1      26.211   1.667  54.036  1.00  0.00     0.228 C 
HETATM   18  N2  UNL     1      26.456   0.482  54.485  1.00  0.00    -0.264 NA
BRANCH  18  19
HETATM   19  C5  UNL     1      25.700  -0.618  53.962  1.00  0.00     0.272 C 
BRANCH  19  20
HETATM   20  N1  UNL     1      24.512  -0.916  54.729  1.00  0.00    -0.372 N 
HETATM   21  H5  UNL     1      24.574  -1.265  55.701  1.00  0.00     0.161 HD
BRANCH  20  22
HETATM   22  C4  UNL     1      23.233  -0.737  54.167  1.00  0.00     0.029 A 
HETATM   23  C3  UNL     1      23.034  -0.108  52.940  1.00  0.00     0.037 A 
HETATM   24  C2  UNL     1      21.822   0.093  52.345  1.00  0.00    -0.038 A 
HETATM   25  C1  UNL     1      21.703   0.779  51.025  1.00  0.00     0.050 C 
HETATM   26  C19 UNL     1      20.678  -0.358  53.000  1.00  0.00     0.040 A 
HETATM   27  C18 UNL     1      20.810  -0.995  54.230  1.00  0.00     0.026 A 
HETATM   28 CL1  UNL     1      19.122  -0.105  52.250  1.00  0.00    -0.084 Cl
HETATM   29  C17 UNL     1      22.065  -1.162  54.765  1.00  0.00     0.031 A 
ENDBRANCH  20  22
ENDBRANCH  19  20
ENDBRANCH  18  19
ENDBRANCH   1  17
TORSDOF 5
ENDMDL
MODEL 9
REMARK VINA RESULT:      -7.3      2.078      3.046
REMARK  5 active torsions:
REMARK  status: ('A' for Active; 'I' for Inactive)
REMARK    1  A    between atoms: C4_4  and  N1_5 
REMARK    2  A    between atoms: N1_5  and  C5_6 
REMARK    3  A    between atoms: C5_6  and  N2_7 
REMARK    4  A    between atoms: C6_8  and  N3_9 
REMARK    5  A    between atoms: C7_10  and  C8_11 
ROOT
HETATM    1  N3  UNL     1      22.244   3.460  50.532  1.00  0.00    -0.255 NA
HETATM    2  C7  UNL     1      23.135   2.546  50.303  1.00  0.00     0.132 C 
ENDROOT
BRANCH   2   3
HETATM    3  C8  UNL     1      24.116   2.208  51.377  1.00  0.00     0.136 C 
HETATM    4  C9  UNL     1      23.900   0.914  52.080  1.00  0.00     0.085 C 
HETATM    5  C10 UNL     1      25.183   0.275  52.522  1.00  0.00     0.250 C 
HETATM    6  C11 UNL     1      25.022  -0.530  53.790  1.00  0.00     0.203 C 
HETATM    7  N4  UNL     1      26.266   1.201  52.606  1.00  0.00     0.097 N 
HETATM    8  O1  UNL     1      26.170  -1.235  54.057  1.00  0.00    -0.387 OA
HETATM    9  C12 UNL     1      27.204  -1.017  53.155  1.00  0.00     0.198 C 
HETATM   10  C13 UNL     1      27.480   0.445  52.903  1.00  0.00     0.299 C 
HETATM   11  C14 UNL     1      26.148   2.226  53.577  1.00  0.00     0.275 C 
HETATM   12  C15 UNL     1      24.865   2.959  53.653  1.00  0.00     0.055 C 
HETATM   13  C16 UNL     1      24.245   3.338  52.361  1.00  0.00     0.127 C 
HETATM   14  N5  UNL     1      25.100   3.831  51.329  1.00  0.00    -0.197 NA
HETATM   15  O2  UNL     1      25.407   2.543  51.023  1.00  0.00    -0.287 OA
HETATM   16  H24 UNL     1      25.869   4.413  51.697  1.00  0.00     0.154 HD
ENDBRANCH   2   3
BRANCH   1  17
HETATM   17  C6  UNL     1      21.268   3.849  49.569  1.00  0.00     0.228 C 
HETATM   18  N2  UNL     1      20.052   3.733  49.155  1.00  0.00    -0.264 NA
BRANCH  18  19
HETATM   19  C5  UNL     1      19.164   2.867  49.874  1.00  0.00     0.272 C 
BRANCH  19  20
HETATM   20  N1  UNL     1      19.642   2.518  51.192  1.00  0.00    -0.372 N 
HETATM   21  H5  UNL     1      20.281   3.141  51.714  1.00  0.00     0.161 HD
BRANCH  20  22
HETATM   22  C4  UNL     1      19.245   1.311  51.801  1.00  0.00     0.029 A 
HETATM   23  C3  UNL     1      20.076   0.595  52.659  1.00  0.00     0.037 A 
HETATM   24  C2  UNL     1      19.747  -0.577  53.278  1.00  0.00    -0.038 A 
HETATM   25  C1  UNL     1      20.704  -1.277  54.184  1.00  0.00     0.050 C 
HETATM   26  C19 UNL     1      18.485  -1.118  53.047  1.00  0.00     0.040 A 
HETATM   27  C18 UNL     1      17.607  -0.451  52.199  1.00  0.00     0.026 A 
HETATM   28 CL1  UNL     1      18.053  -2.617  53.832  1.00  0.00    -0.084 Cl
HETATM   29  C17 UNL     1      18.010   0.726  51.613  1.00  0.00     0.031 A 
ENDBRANCH  20  22
ENDBRANCH  19  20
ENDBRANCH  18  19
ENDBRANCH   1  17
TORSDOF 5
ENDMDL
