MODEL 1
REMARK VINA RESULT:      -7.1      0.000      0.000
REMARK  6 active torsions:
REMARK  status: ('A' for Active; 'I' for Inactive)
REMARK    1  A    between atoms: N1_2  and  C2_3 
REMARK    2  A    between atoms: C5_6  and  C6_7 
REMARK    3  A    between atoms: C6_7  and  O1_8 
REMARK    4  A    between atoms: C8_10  and  N2_11 
REMARK    5  A    between atoms: N2_11  and  C9_12 
REMARK    6  A    between atoms: C14_18  and  C15_19 
ROOT
HETATM    1  N2  UNL     1      26.054   2.876  50.065  1.00  0.00    -0.186 N 
HETATM    2  H10 UNL     1      25.606   2.260  49.339  1.00  0.00     0.184 HD
ENDROOT
BRANCH   1   3
HETATM    3  C8  UNL     1      26.174   4.200  49.564  1.00  0.00     0.060 A 
HETATM    4  C5  UNL     1      25.172   5.183  49.637  1.00  0.00    -0.007 A 
HETATM    5  C4  UNL     1      25.491   6.404  49.088  1.00  0.00     0.014 A 
HETATM    6  C3  UNL     1      26.667   6.765  48.484  1.00  0.00     0.032 A 
HETATM    7  C2  UNL     1      27.645   5.793  48.416  1.00  0.00     0.057 A 
HETATM    8  C16 UNL     1      27.389   4.534  48.952  1.00  0.00     0.062 A 
BRANCH   4   9
HETATM    9  C6  UNL     1      23.883   4.811  50.253  1.00  0.00     0.207 C 
BRANCH   9  10
HETATM   10  O1  UNL     1      23.914   4.699  51.621  1.00  0.00    -0.391 OA
HETATM   11  C7  UNL     1      22.903   3.917  52.141  1.00  0.00     0.201 C 
ENDBRANCH   9  10
ENDBRANCH   4   9
BRANCH   7  12
HETATM   12  N1  UNL     1      28.895   6.082  47.794  1.00  0.00    -0.272 NA
HETATM   13  C1  UNL     1      30.019   5.633  48.176  1.00  0.00     0.149 C 
ENDBRANCH   7  12
ENDBRANCH   1   3
BRANCH   1  14
HETATM   14  C9  UNL     1      26.416   2.275  51.298  1.00  0.00     0.744 A 
HETATM   15  N3  UNL     1      27.549   2.473  51.976  1.00  0.00    -0.071 NA
HETATM   16  C10 UNL     1      27.869   1.900  53.148  1.00  0.00     0.168 A 
HETATM   17  C11 UNL     1      26.884   1.056  53.602  1.00  0.00     0.077 A 
HETATM   18  C12 UNL     1      26.807   0.277  54.755  1.00  0.00     0.035 A 
HETATM   19  N4  UNL     1      25.729   0.815  52.975  1.00  0.00    -0.220 N 
HETATM   20  C13 UNL     1      25.602  -0.401  54.771  1.00  0.00     0.030 A 
HETATM   21  C14 UNL     1      24.924  -0.047  53.624  1.00  0.00     0.047 A 
HETATM   22  N5  UNL     1      25.532   1.438  51.833  1.00  0.00     0.026 NA
BRANCH  21  23
HETATM   23  C15 UNL     1      23.567  -0.464  53.114  1.00  0.00     0.144 C 
HETATM   24 BR1  UNL     1      22.421  -0.933  54.597  1.00  0.00    -0.090 Br
ENDBRANCH  21  23
ENDBRANCH   1  14
TORSDOF 6
ENDMDL
MODEL 2
REMARK VINA RESULT:      -6.9      3.489      7.858
REMARK  6 active torsions:
REMARK  status: ('A' for Active; 'I' for Inactive)
REMARK    1  A    between atoms: N1_2  and  C2_3 
REMARK    2  A    between atoms: C5_6  and  C6_7 
REMARK    3  A    between atoms: C6_7  and  O1_8 
REMARK    4  A    between atoms: C8_10  and  N2_11 
REMARK    5  A    between atoms: N2_11  and  C9_12 
REMARK    6  A    between atoms: C14_18  and  C15_19 
ROOT
HETATM    1  N2  UNL     1      23.337   1.190  51.813  1.00  0.00    -0.186 N 
HETATM    2  H10 UNL     1      23.785   0.604  51.062  1.00  0.00     0.184 HD
ENDROOT
BRANCH   1   3
HETATM    3  C8  UNL     1      22.712   0.348  52.771  1.00  0.00     0.060 A 
HETATM    4  C5  UNL     1      23.381  -0.334  53.802  1.00  0.00    -0.007 A 
HETATM    5  C4  UNL     1      22.589  -1.101  54.625  1.00  0.00     0.014 A 
HETATM    6  C3  UNL     1      21.230  -1.273  54.551  1.00  0.00     0.032 A 
HETATM    7  C2  UNL     1      20.582  -0.600  53.535  1.00  0.00     0.057 A 
HETATM    8  C16 UNL     1      21.324   0.194  52.665  1.00  0.00     0.062 A 
BRANCH   4   9
HETATM    9  C6  UNL     1      24.848  -0.193  53.885  1.00  0.00     0.207 C 
BRANCH   9  10
HETATM   10  O1  UNL     1      25.538  -0.764  52.845  1.00  0.00    -0.391 OA
HETATM   11  C7  UNL     1      26.826  -0.292  52.702  1.00  0.00     0.201 C 
ENDBRANCH   9  10
ENDBRANCH   4   9
BRANCH   7  12
HETATM   12  N1  UNL     1      19.171  -0.733  53.380  1.00  0.00    -0.272 NA
HETATM   13  C1  UNL     1      18.524  -0.437  52.329  1.00  0.00     0.149 C 
ENDBRANCH   7  12
ENDBRANCH   1   3
BRANCH   1  14
HETATM   14  C9  UNL     1      23.450   2.598  51.695  1.00  0.00     0.744 A 
HETATM   15  N3  UNL     1      22.672   3.511  52.283  1.00  0.00    -0.071 NA
HETATM   16  C10 UNL     1      22.801   4.842  52.165  1.00  0.00     0.168 A 
HETATM   17  C11 UNL     1      23.850   5.194  51.350  1.00  0.00     0.077 A 
HETATM   18  C12 UNL     1      24.330   6.445  50.966  1.00  0.00     0.035 A 
HETATM   19  N4  UNL     1      24.666   4.334  50.733  1.00  0.00    -0.220 N 
HETATM   20  C13 UNL     1      25.421   6.281  50.132  1.00  0.00     0.030 A 
HETATM   21  C14 UNL     1      25.622   4.924  49.992  1.00  0.00     0.047 A 
HETATM   22  N5  UNL     1      24.436   3.054  50.928  1.00  0.00     0.026 NA
BRANCH  21  23
HETATM   23  C15 UNL     1      26.662   4.159  49.213  1.00  0.00     0.144 C 
HETATM   24 BR1  UNL     1      27.985   5.377  48.506  1.00  0.00    -0.090 Br
ENDBRANCH  21  23
ENDBRANCH   1  14
TORSDOF 6
ENDMDL
MODEL 3
REMARK VINA RESULT:      -6.8      3.139      6.921
REMARK  6 active torsions:
REMARK  status: ('A' for Active; 'I' for Inactive)
REMARK    1  A    between atoms: N1_2  and  C2_3 
REMARK    2  A    between atoms: C5_6  and  C6_7 
REMARK    3  A    between atoms: C6_7  and  O1_8 
REMARK    4  A    between atoms: C8_10  and  N2_11 
REMARK    5  A    between atoms: N2_11  and  C9_12 
REMARK    6  A    between atoms: C14_18  and  C15_19 
ROOT
HETATM    1  N2  UNL     1      24.196   1.617  51.796  1.00  0.00    -0.186 N 
HETATM    2  H10 UNL     1      23.965   1.002  50.973  1.00  0.00     0.184 HD
ENDROOT
BRANCH   1   3
HETATM    3  C8  UNL     1      24.568   0.813  52.906  1.00  0.00     0.060 A 
HETATM    4  C5  UNL     1      23.751  -0.160  53.506  1.00  0.00    -0.007 A 
HETATM    5  C4  UNL     1      24.303  -0.829  54.575  1.00  0.00     0.014 A 
HETATM    6  C3  UNL     1      25.551  -0.653  55.114  1.00  0.00     0.032 A 
HETATM    7  C2  UNL     1      26.347   0.306  54.518  1.00  0.00     0.057 A 
HETATM    8  C16 UNL     1      25.850   1.020  53.432  1.00  0.00     0.062 A 
BRANCH   4   9
HETATM    9  C6  UNL     1      22.390  -0.347  52.967  1.00  0.00     0.207 C 
BRANCH   9  10
HETATM   10  O1  UNL     1      21.577   0.754  53.068  1.00  0.00    -0.391 OA
HETATM   11  C7  UNL     1      20.233   0.470  52.948  1.00  0.00     0.201 C 
ENDBRANCH   9  10
ENDBRANCH   4   9
BRANCH   7  12
HETATM   12  N1  UNL     1      27.655   0.560  55.025  1.00  0.00    -0.272 NA
HETATM   13  C1  UNL     1      28.734   0.175  54.478  1.00  0.00     0.149 C 
ENDBRANCH   7  12
ENDBRANCH   1   3
BRANCH   1  14
HETATM   14  C9  UNL     1      24.080   3.019  51.615  1.00  0.00     0.744 A 
HETATM   15  N3  UNL     1      23.185   3.824  52.193  1.00  0.00    -0.071 NA
HETATM   16  C10 UNL     1      23.098   5.152  52.015  1.00  0.00     0.168 A 
HETATM   17  C11 UNL     1      24.053   5.626  51.148  1.00  0.00     0.077 A 
HETATM   18  C12 UNL     1      24.318   6.917  50.695  1.00  0.00     0.035 A 
HETATM   19  N4  UNL     1      24.977   4.877  50.537  1.00  0.00    -0.220 N 
HETATM   20  C13 UNL     1      25.395   6.887  49.829  1.00  0.00     0.030 A 
HETATM   21  C14 UNL     1      25.805   5.574  49.738  1.00  0.00     0.047 A 
HETATM   22  N5  UNL     1      24.959   3.587  50.794  1.00  0.00     0.026 NA
BRANCH  21  23
HETATM   23  C15 UNL     1      26.930   4.946  48.954  1.00  0.00     0.144 C 
HETATM   24 BR1  UNL     1      28.070   6.322  48.220  1.00  0.00    -0.090 Br
ENDBRANCH  21  23
ENDBRANCH   1  14
TORSDOF 6
ENDMDL
MODEL 4
REMARK VINA RESULT:      -6.7      4.062      6.294
REMARK  6 active torsions:
REMARK  status: ('A' for Active; 'I' for Inactive)
REMARK    1  A    between atoms: N1_2  and  C2_3 
REMARK    2  A    between atoms: C5_6  and  C6_7 
REMARK    3  A    between atoms: C6_7  and  O1_8 
REMARK    4  A    between atoms: C8_10  and  N2_11 
REMARK    5  A    between atoms: N2_11  and  C9_12 
REMARK    6  A    between atoms: C14_18  and  C15_19 
ROOT
HETATM    1  N2  UNL     1      23.718   0.539  52.325  1.00  0.00    -0.186 N 
HETATM    2  H10 UNL     1      23.650   0.944  51.356  1.00  0.00     0.184 HD
ENDROOT
BRANCH   1   3
HETATM    3  C8  UNL     1      25.025   0.749  52.842  1.00  0.00     0.060 A 
HETATM    4  C5  UNL     1      25.496   1.963  53.370  1.00  0.00    -0.007 A 
HETATM    5  C4  UNL     1      26.797   1.955  53.819  1.00  0.00     0.014 A 
HETATM    6  C3  UNL     1      27.677   0.903  53.807  1.00  0.00     0.032 A 
HETATM    7  C2  UNL     1      27.205  -0.285  53.286  1.00  0.00     0.057 A 
HETATM    8  C16 UNL     1      25.897  -0.347  52.814  1.00  0.00     0.062 A 
BRANCH   4   9
HETATM    9  C6  UNL     1      24.581   3.120  53.364  1.00  0.00     0.207 C 
BRANCH   9  10
HETATM   10  O1  UNL     1      24.094   3.459  52.126  1.00  0.00    -0.391 OA
HETATM   11  C7  UNL     1      23.311   4.595  52.124  1.00  0.00     0.201 C 
ENDBRANCH   9  10
ENDBRANCH   4   9
BRANCH   7  12
HETATM   12  N1  UNL     1      28.059  -1.425  53.227  1.00  0.00    -0.272 NA
HETATM   13  C1  UNL     1      29.312  -1.406  53.424  1.00  0.00     0.149 C 
ENDBRANCH   7  12
ENDBRANCH   1   3
BRANCH   1  14
HETATM   14  C9  UNL     1      22.562  -0.091  52.853  1.00  0.00     0.744 A 
HETATM   15  N3  UNL     1      22.516  -0.929  53.890  1.00  0.00    -0.071 NA
HETATM   16  C10 UNL     1      21.408  -1.508  54.381  1.00  0.00     0.168 A 
HETATM   17  C11 UNL     1      20.279  -1.144  53.687  1.00  0.00     0.077 A 
HETATM   18  C12 UNL     1      18.944  -1.503  53.860  1.00  0.00     0.035 A 
HETATM   19  N4  UNL     1      20.254  -0.310  52.642  1.00  0.00    -0.220 N 
HETATM   20  C13 UNL     1      18.171  -0.865  52.907  1.00  0.00     0.030 A 
HETATM   21  C14 UNL     1      19.025  -0.107  52.135  1.00  0.00     0.047 A 
HETATM   22  N5  UNL     1      21.407   0.192  52.257  1.00  0.00     0.026 NA
BRANCH  21  23
HETATM   23  C15 UNL     1      18.748   0.799  50.962  1.00  0.00     0.144 C 
HETATM   24 BR1  UNL     1      17.234   0.137  49.960  1.00  0.00    -0.090 Br
ENDBRANCH  21  23
ENDBRANCH   1  14
TORSDOF 6
ENDMDL
MODEL 5
REMARK VINA RESULT:      -6.6      2.663      7.102
REMARK  6 active torsions:
REMARK  status: ('A' for Active; 'I' for Inactive)
REMARK    1  A    between atoms: N1_2  and  C2_3 
REMARK    2  A    between atoms: C5_6  and  C6_7 
REMARK    3  A    between atoms: C6_7  and  O1_8 
REMARK    4  A    between atoms: C8_10  and  N2_11 
REMARK    5  A    between atoms: N2_11  and  C9_12 
REMARK    6  A    between atoms: C14_18  and  C15_19 
ROOT
HETATM    1  N2  UNL     1      26.255   0.894  52.230  1.00  0.00    -0.186 N 
HETATM    2  H10 UNL     1      27.138   0.349  52.055  1.00  0.00     0.184 HD
ENDROOT
BRANCH   1   3
HETATM    3  C8  UNL     1      25.478   0.243  53.225  1.00  0.00     0.060 A 
HETATM    4  C5  UNL     1      25.951  -0.144  54.491  1.00  0.00    -0.007 A 
HETATM    5  C4  UNL     1      25.034  -0.764  55.308  1.00  0.00     0.014 A 
HETATM    6  C3  UNL     1      23.721  -1.044  55.027  1.00  0.00     0.032 A 
HETATM    7  C2  UNL     1      23.266  -0.660  53.781  1.00  0.00     0.057 A 
HETATM    8  C16 UNL     1      24.142  -0.027  52.903  1.00  0.00     0.062 A 
BRANCH   4   9
HETATM    9  C6  UNL     1      27.369   0.115  54.807  1.00  0.00     0.207 C 
BRANCH   9  10
HETATM   10  O1  UNL     1      28.255  -0.748  54.213  1.00  0.00    -0.391 OA
HETATM   11  C7  UNL     1      29.433  -0.152  53.811  1.00  0.00     0.201 C 
ENDBRANCH   9  10
ENDBRANCH   4   9
BRANCH   7  12
HETATM   12  N1  UNL     1      21.917  -0.924  53.404  1.00  0.00    -0.272 NA
HETATM   13  C1  UNL     1      21.039  -1.443  54.159  1.00  0.00     0.149 C 
ENDBRANCH   7  12
ENDBRANCH   1   3
BRANCH   1  14
HETATM   14  C9  UNL     1      26.058   2.077  51.472  1.00  0.00     0.744 A 
HETATM   15  N3  UNL     1      26.782   2.481  50.427  1.00  0.00    -0.071 NA
HETATM   16  C10 UNL     1      26.573   3.601  49.716  1.00  0.00     0.168 A 
HETATM   17  C11 UNL     1      25.501   4.323  50.184  1.00  0.00     0.077 A 
HETATM   18  C12 UNL     1      24.944   5.523  49.744  1.00  0.00     0.035 A 
HETATM   19  N4  UNL     1      24.735   3.975  51.222  1.00  0.00    -0.220 N 
HETATM   20  C13 UNL     1      23.862   5.845  50.542  1.00  0.00     0.030 A 
HETATM   21  C14 UNL     1      23.742   4.845  51.483  1.00  0.00     0.047 A 
HETATM   22  N5  UNL     1      25.042   2.854  51.837  1.00  0.00     0.026 NA
BRANCH  21  23
HETATM   23  C15 UNL     1      22.746   4.660  52.601  1.00  0.00     0.144 C 
HETATM   24 BR1  UNL     1      21.245   3.613  51.980  1.00  0.00    -0.090 Br
ENDBRANCH  21  23
ENDBRANCH   1  14
TORSDOF 6
ENDMDL
MODEL 6
REMARK VINA RESULT:      -6.6      3.567      6.109
REMARK  6 active torsions:
REMARK  status: ('A' for Active; 'I' for Inactive)
REMARK    1  A    between atoms: N1_2  and  C2_3 
REMARK    2  A    between atoms: C5_6  and  C6_7 
REMARK    3  A    between atoms: C6_7  and  O1_8 
REMARK    4  A    between atoms: C8_10  and  N2_11 
REMARK    5  A    between atoms: N2_11  and  C9_12 
REMARK    6  A    between atoms: C14_18  and  C15_19 
ROOT
HETATM    1  N2  UNL     1      24.234  -0.120  53.418  1.00  0.00    -0.186 N 
HETATM    2  H10 UNL     1      24.887  -0.655  54.046  1.00  0.00     0.184 HD
ENDROOT
BRANCH   1   3
HETATM    3  C8  UNL     1      24.975   0.796  52.624  1.00  0.00     0.060 A 
HETATM    4  C5  UNL     1      26.269   0.568  52.127  1.00  0.00    -0.007 A 
HETATM    5  C4  UNL     1      26.811   1.587  51.377  1.00  0.00     0.014 A 
HETATM    6  C3  UNL     1      26.233   2.791  51.065  1.00  0.00     0.032 A 
HETATM    7  C2  UNL     1      24.961   3.006  51.558  1.00  0.00     0.057 A 
HETATM    8  C16 UNL     1      24.354   2.015  52.325  1.00  0.00     0.062 A 
BRANCH   4   9
HETATM    9  C6  UNL     1      26.928  -0.706  52.475  1.00  0.00     0.207 C 
BRANCH   9  10
HETATM   10  O1  UNL     1      27.189  -0.868  53.813  1.00  0.00    -0.391 OA
HETATM   11  C7  UNL     1      28.295  -0.171  54.256  1.00  0.00     0.201 C 
ENDBRANCH   9  10
ENDBRANCH   4   9
BRANCH   7  12
HETATM   12  N1  UNL     1      24.292   4.236  51.289  1.00  0.00    -0.272 NA
HETATM   13  C1  UNL     1      23.321   4.698  51.963  1.00  0.00     0.149 C 
ENDBRANCH   7  12
ENDBRANCH   1   3
BRANCH   1  14
HETATM   14  C9  UNL     1      22.851  -0.417  53.511  1.00  0.00     0.744 A 
HETATM   15  N3  UNL     1      22.251  -1.122  54.473  1.00  0.00    -0.071 NA
HETATM   16  C10 UNL     1      20.937  -1.384  54.548  1.00  0.00     0.168 A 
HETATM   17  C11 UNL     1      20.236  -0.839  53.498  1.00  0.00     0.077 A 
HETATM   18  C12 UNL     1      18.876  -0.867  53.194  1.00  0.00     0.035 A 
HETATM   19  N4  UNL     1      20.772  -0.124  52.504  1.00  0.00    -0.220 N 
HETATM   20  C13 UNL     1      18.654  -0.162  52.026  1.00  0.00     0.030 A 
HETATM   21  C14 UNL     1      19.877   0.306  51.597  1.00  0.00     0.047 A 
HETATM   22  N5  UNL     1      22.073   0.064  52.545  1.00  0.00     0.026 NA
BRANCH  21  23
HETATM   23  C15 UNL     1      20.246   1.137  50.393  1.00  0.00     0.144 C 
HETATM   24 BR1  UNL     1      18.668   1.983  49.668  1.00  0.00    -0.090 Br
ENDBRANCH  21  23
ENDBRANCH   1  14
TORSDOF 6
ENDMDL
MODEL 7
REMARK VINA RESULT:      -6.5      2.964      6.790
REMARK  6 active torsions:
REMARK  status: ('A' for Active; 'I' for Inactive)
REMARK    1  A    between atoms: N1_2  and  C2_3 
REMARK    2  A    between atoms: C5_6  and  C6_7 
REMARK    3  A    between atoms: C6_7  and  O1_8 
REMARK    4  A    between atoms: C8_10  and  N2_11 
REMARK    5  A    between atoms: N2_11  and  C9_12 
REMARK    6  A    between atoms: C14_18  and  C15_19 
ROOT
HETATM    1  N2  UNL     1      24.231   2.696  52.027  1.00  0.00    -0.186 N 
HETATM    2  H10 UNL     1      23.249   3.026  52.211  1.00  0.00     0.184 HD
ENDROOT
BRANCH   1   3
HETATM    3  C8  UNL     1      24.514   1.558  52.829  1.00  0.00     0.060 A 
HETATM    4  C5  UNL     1      23.667   0.446  52.975  1.00  0.00    -0.007 A 
HETATM    5  C4  UNL     1      24.128  -0.553  53.801  1.00  0.00     0.014 A 
HETATM    6  C3  UNL     1      25.312  -0.584  54.491  1.00  0.00     0.032 A 
HETATM    7  C2  UNL     1      26.137   0.513  54.342  1.00  0.00     0.057 A 
HETATM    8  C16 UNL     1      25.731   1.561  53.520  1.00  0.00     0.062 A 
BRANCH   4   9
HETATM    9  C6  UNL     1      22.371   0.467  52.268  1.00  0.00     0.207 C 
BRANCH   9  10
HETATM   10  O1  UNL     1      21.416  -0.364  52.799  1.00  0.00    -0.391 OA
HETATM   11  C7  UNL     1      20.242   0.277  53.138  1.00  0.00     0.201 C 
ENDBRANCH   9  10
ENDBRANCH   4   9
BRANCH   7  12
HETATM   12  N1  UNL     1      27.382   0.567  55.034  1.00  0.00    -0.272 NA
HETATM   13  C1  UNL     1      28.485   0.131  54.582  1.00  0.00     0.149 C 
ENDBRANCH   7  12
ENDBRANCH   1   3
BRANCH   1  14
HETATM   14  C9  UNL     1      24.999   3.426  51.084  1.00  0.00     0.744 A 
HETATM   15  N3  UNL     1      25.952   2.938  50.287  1.00  0.00    -0.071 NA
HETATM   16  C10 UNL     1      26.662   3.645  49.392  1.00  0.00     0.168 A 
HETATM   17  C11 UNL     1      26.303   4.972  49.374  1.00  0.00     0.077 A 
HETATM   18  C12 UNL     1      26.775   6.036  48.608  1.00  0.00     0.035 A 
HETATM   19  N4  UNL     1      25.359   5.524  50.142  1.00  0.00    -0.220 N 
HETATM   20  C13 UNL     1      26.090   7.187  48.951  1.00  0.00     0.030 A 
HETATM   21  C14 UNL     1      25.188   6.842  49.935  1.00  0.00     0.047 A 
HETATM   22  N5  UNL     1      24.734   4.725  50.979  1.00  0.00     0.026 NA
BRANCH  21  23
HETATM   23  C15 UNL     1      24.175   7.677  50.678  1.00  0.00     0.144 C 
HETATM   24 BR1  UNL     1      22.471   7.609  49.771  1.00  0.00    -0.090 Br
ENDBRANCH  21  23
ENDBRANCH   1  14
TORSDOF 6
ENDMDL
MODEL 8
REMARK VINA RESULT:      -6.4      2.935      7.118
REMARK  6 active torsions:
REMARK  status: ('A' for Active; 'I' for Inactive)
REMARK    1  A    between atoms: N1_2  and  C2_3 
REMARK    2  A    between atoms: C5_6  and  C6_7 
REMARK    3  A    between atoms: C6_7  and  O1_8 
REMARK    4  A    between atoms: C8_10  and  N2_11 
REMARK    5  A    between atoms: N2_11  and  C9_12 
REMARK    6  A    between atoms: C14_18  and  C15_19 
ROOT
HETATM    1  N2  UNL     1      24.640   2.172  52.821  1.00  0.00    -0.186 N 
HETATM    2  H10 UNL     1      25.075   2.341  53.765  1.00  0.00     0.184 HD
ENDROOT
BRANCH   1   3
HETATM    3  C8  UNL     1      23.604   1.207  52.936  1.00  0.00     0.060 A 
HETATM    4  C5  UNL     1      23.786  -0.126  53.344  1.00  0.00    -0.007 A 
HETATM    5  C4  UNL     1      22.648  -0.899  53.388  1.00  0.00     0.014 A 
HETATM    6  C3  UNL     1      21.368  -0.516  53.079  1.00  0.00     0.032 A 
HETATM    7  C2  UNL     1      21.199   0.794  52.679  1.00  0.00     0.057 A 
HETATM    8  C16 UNL     1      22.309   1.632  52.613  1.00  0.00     0.062 A 
BRANCH   4   9
HETATM    9  C6  UNL     1      25.159  -0.573  53.650  1.00  0.00     0.207 C 
BRANCH   9  10
HETATM   10  O1  UNL     1      26.018  -0.555  52.580  1.00  0.00    -0.391 OA
HETATM   11  C7  UNL     1      27.334  -0.321  52.924  1.00  0.00     0.201 C 
ENDBRANCH   9  10
ENDBRANCH   4   9
BRANCH   7  12
HETATM   12  N1  UNL     1      19.902   1.270  52.330  1.00  0.00    -0.272 NA
HETATM   13  C1  UNL     1      19.615   2.480  52.077  1.00  0.00     0.149 C 
ENDBRANCH   7  12
ENDBRANCH   1   3
BRANCH   1  14
HETATM   14  C9  UNL     1      25.164   2.899  51.722  1.00  0.00     0.744 A 
HETATM   15  N3  UNL     1      26.095   2.479  50.862  1.00  0.00    -0.071 NA
HETATM   16  C10 UNL     1      26.572   3.180  49.821  1.00  0.00     0.168 A 
HETATM   17  C11 UNL     1      25.990   4.421  49.718  1.00  0.00     0.077 A 
HETATM   18  C12 UNL     1      26.187   5.450  48.798  1.00  0.00     0.035 A 
HETATM   19  N4  UNL     1      25.055   4.902  50.542  1.00  0.00    -0.220 N 
HETATM   20  C13 UNL     1      25.355   6.509  49.112  1.00  0.00     0.030 A 
HETATM   21  C14 UNL     1      24.638   6.143  50.231  1.00  0.00     0.047 A 
HETATM   22  N5  UNL     1      24.670   4.118  51.526  1.00  0.00     0.026 NA
BRANCH  21  23
HETATM   23  C15 UNL     1      23.584   6.888  51.011  1.00  0.00     0.144 C 
HETATM   24 BR1  UNL     1      21.825   6.299  50.471  1.00  0.00    -0.090 Br
ENDBRANCH  21  23
ENDBRANCH   1  14
TORSDOF 6
ENDMDL
MODEL 9
REMARK VINA RESULT:      -6.3      3.522      7.149
REMARK  6 active torsions:
REMARK  status: ('A' for Active; 'I' for Inactive)
REMARK    1  A    between atoms: N1_2  and  C2_3 
REMARK    2  A    between atoms: C5_6  and  C6_7 
REMARK    3  A    between atoms: C6_7  and  O1_8 
REMARK    4  A    between atoms: C8_10  and  N2_11 
REMARK    5  A    between atoms: N2_11  and  C9_12 
REMARK    6  A    between atoms: C14_18  and  C15_19 
ROOT
HETATM    1  N2  UNL     1      21.210   2.556  52.393  1.00  0.00    -0.186 N 
HETATM    2  H10 UNL     1      20.620   3.379  52.681  1.00  0.00     0.184 HD
ENDROOT
BRANCH   1   3
HETATM    3  C8  UNL     1      20.525   1.348  52.689  1.00  0.00     0.060 A 
HETATM    4  C5  UNL     1      19.251   1.004  52.204  1.00  0.00    -0.007 A 
HETATM    5  C4  UNL     1      18.765  -0.217  52.612  1.00  0.00     0.014 A 
HETATM    6  C3  UNL     1      19.379  -1.127  53.434  1.00  0.00     0.032 A 
HETATM    7  C2  UNL     1      20.629  -0.780  53.906  1.00  0.00     0.057 A 
HETATM    8  C16 UNL     1      21.181   0.441  53.532  1.00  0.00     0.062 A 
BRANCH   4   9
HETATM    9  C6  UNL     1      18.554   1.980  51.344  1.00  0.00     0.207 C 
BRANCH   9  10
HETATM   10  O1  UNL     1      18.399   3.225  51.900  1.00  0.00    -0.391 OA
HETATM   11  C7  UNL     1      17.299   3.914  51.433  1.00  0.00     0.201 C 
ENDBRANCH   9  10
ENDBRANCH   4   9
BRANCH   7  12
HETATM   12  N1  UNL     1      21.332  -1.665  54.775  1.00  0.00    -0.272 NA
HETATM   13  C1  UNL     1      22.537  -1.515  55.147  1.00  0.00     0.149 C 
ENDBRANCH   7  12
ENDBRANCH   1   3
BRANCH   1  14
HETATM   14  C9  UNL     1      22.477   2.831  51.819  1.00  0.00     0.744 A 
HETATM   15  N3  UNL     1      22.739   3.724  50.862  1.00  0.00    -0.071 NA
HETATM   16  C10 UNL     1      23.950   3.976  50.336  1.00  0.00     0.168 A 
HETATM   17  C11 UNL     1      24.933   3.196  50.898  1.00  0.00     0.077 A 
HETATM   18  C12 UNL     1      26.304   3.138  50.653  1.00  0.00     0.035 A 
HETATM   19  N4  UNL     1      24.740   2.287  51.858  1.00  0.00    -0.220 N 
HETATM   20  C13 UNL     1      26.877   2.192  51.482  1.00  0.00     0.030 A 
HETATM   21  C14 UNL     1      25.863   1.656  52.246  1.00  0.00     0.047 A 
HETATM   22  N5  UNL     1      23.507   2.133  52.289  1.00  0.00     0.026 NA
BRANCH  21  23
HETATM   23  C15 UNL     1      25.893   0.596  53.319  1.00  0.00     0.144 C 
HETATM   24 BR1  UNL     1      26.711  -1.014  52.633  1.00  0.00    -0.090 Br
ENDBRANCH  21  23
ENDBRANCH   1  14
TORSDOF 6
ENDMDL
