MODEL 1
REMARK VINA RESULT:      -7.1      0.000      0.000
REMARK  10 active torsions:
REMARK  status: ('A' for Active; 'I' for Inactive)
REMARK    1  A    between atoms: N1_2  and  C1_3 
REMARK    2  A    between atoms: C5_9  and  C6_10 
REMARK    3  A    between atoms: C6_10  and  O2_11 
REMARK    4  A    between atoms: O2_11  and  C7_12 
REMARK    5  A    between atoms: C7_12  and  C8_13 
REMARK    6  A    between atoms: C8_13  and  N4_14 
REMARK    7  A    between atoms: N4_14  and  C9_15 
REMARK    8  A    between atoms: C9_15  and  C10_16 
REMARK    9  A    between atoms: C10_16  and  C11_17 
REMARK   10  A    between atoms: C11_17  and  N5_18 
ROOT
HETATM    1  O2  UNL     1      22.684   0.078  54.035  1.00  0.00    -0.385 OA
ENDROOT
BRANCH   1   2
HETATM    2  C6  UNL     1      23.403  -0.234  52.907  1.00  0.00     0.206 C 
BRANCH   2   3
HETATM    3  C5  UNL     1      24.835  -0.008  53.158  1.00  0.00    -0.032 A 
HETATM    4  C4  UNL     1      25.834  -0.966  53.047  1.00  0.00     0.042 A 
HETATM    5  C3  UNL     1      27.150  -0.651  53.305  1.00  0.00     0.072 A 
HETATM    6  N3  UNL     1      28.133  -1.568  53.203  1.00  0.00    -0.241 NA
HETATM    7  C18 UNL     1      27.554   0.613  53.682  1.00  0.00     0.043 A 
HETATM    8  C2  UNL     1      29.427  -1.251  53.460  1.00  0.00     0.236 A 
HETATM    9  N2  UNL     1      29.798   0.009  53.832  1.00  0.00    -0.220 NA
HETATM   10  C1  UNL     1      28.851   0.985  53.953  1.00  0.00     0.193 A 
HETATM   11  C17 UNL     1      26.543   1.572  53.791  1.00  0.00     0.018 A 
HETATM   12  C16 UNL     1      25.215   1.264  53.533  1.00  0.00     0.010 A 
BRANCH  10  13
HETATM   13  N1  UNL     1      29.195   2.318  54.339  1.00  0.00    -0.077 NA
HETATM   14  O1  UNL     1      29.976   2.581  55.253  1.00  0.00    -0.059 OA
ENDBRANCH  10  13
ENDBRANCH   2   3
ENDBRANCH   1   2
BRANCH   1  15
HETATM   15  C7  UNL     1      22.299  -1.030  54.790  1.00  0.00     0.198 C 
BRANCH  15  16
HETATM   16  C8  UNL     1      20.878  -1.415  54.408  1.00  0.00     0.295 C 
BRANCH  16  17
HETATM   17  N4  UNL     1      20.189  -0.252  53.964  1.00  0.00     0.085 N 
HETATM   18  H9  UNL     1      19.906   0.390  54.708  1.00  0.00     0.315 HD
BRANCH  17  19
HETATM   19  C9  UNL     1      19.142  -0.545  53.011  1.00  0.00     0.271 C 
BRANCH  19  20
HETATM   20  C10 UNL     1      19.683  -0.015  51.667  1.00  0.00     0.060 C 
BRANCH  20  21
HETATM   21  C11 UNL     1      18.977   1.290  51.446  1.00  0.00     0.274 C 
BRANCH  21  22
HETATM   22  N5  UNL     1      19.824   2.379  51.044  1.00  0.00     0.092 N 
HETATM   23  C12 UNL     1      20.985   1.946  50.359  1.00  0.00     0.298 C 
HETATM   24  C13 UNL     1      22.293   2.458  50.828  1.00  0.00     0.198 C 
HETATM   25  O3  UNL     1      22.292   2.912  52.140  1.00  0.00    -0.388 OA
HETATM   26  C14 UNL     1      21.331   3.915  52.267  1.00  0.00     0.198 C 
HETATM   27  C15 UNL     1      19.988   3.279  52.130  1.00  0.00     0.298 C 
ENDBRANCH  21  22
ENDBRANCH  20  21
ENDBRANCH  19  20
ENDBRANCH  17  19
ENDBRANCH  16  17
ENDBRANCH  15  16
ENDBRANCH   1  15
TORSDOF 10
ENDMDL
MODEL 2
REMARK VINA RESULT:      -7.0      4.698      7.190
REMARK  10 active torsions:
REMARK  status: ('A' for Active; 'I' for Inactive)
REMARK    1  A    between atoms: N1_2  and  C1_3 
REMARK    2  A    between atoms: C5_9  and  C6_10 
REMARK    3  A    between atoms: C6_10  and  O2_11 
REMARK    4  A    between atoms: O2_11  and  C7_12 
REMARK    5  A    between atoms: C7_12  and  C8_13 
REMARK    6  A    between atoms: C8_13  and  N4_14 
REMARK    7  A    between atoms: N4_14  and  C9_15 
REMARK    8  A    between atoms: C9_15  and  C10_16 
REMARK    9  A    between atoms: C10_16  and  C11_17 
REMARK   10  A    between atoms: C11_17  and  N5_18 
ROOT
HETATM    1  O2  UNL     1      23.349   4.266  51.074  1.00  0.00    -0.385 OA
ENDROOT
BRANCH   1   2
HETATM    2  C6  UNL     1      23.680   3.812  49.820  1.00  0.00     0.206 C 
BRANCH   2   3
HETATM    3  C5  UNL     1      24.920   4.464  49.371  1.00  0.00    -0.032 A 
HETATM    4  C4  UNL     1      25.022   5.766  48.900  1.00  0.00     0.042 A 
HETATM    5  C3  UNL     1      26.236   6.283  48.503  1.00  0.00     0.072 A 
HETATM    6  N3  UNL     1      26.353   7.545  48.043  1.00  0.00    -0.241 NA
HETATM    7  C18 UNL     1      27.406   5.555  48.547  1.00  0.00     0.043 A 
HETATM    8  C2  UNL     1      27.552   8.047  47.652  1.00  0.00     0.236 A 
HETATM    9  N2  UNL     1      28.695   7.303  47.707  1.00  0.00    -0.220 NA
HETATM   10  C1  UNL     1      28.645   6.017  48.164  1.00  0.00     0.193 A 
HETATM   11  C17 UNL     1      27.296   4.246  49.023  1.00  0.00     0.018 A 
HETATM   12  C16 UNL     1      26.078   3.716  49.425  1.00  0.00     0.010 A 
BRANCH  10  13
HETATM   13  N1  UNL     1      29.817   5.204  48.238  1.00  0.00    -0.077 NA
HETATM   14  O1  UNL     1      30.768   5.446  48.981  1.00  0.00    -0.059 OA
ENDBRANCH  10  13
ENDBRANCH   2   3
ENDBRANCH   1   2
BRANCH   1  15
HETATM   15  C7  UNL     1      23.795   3.449  52.112  1.00  0.00     0.198 C 
BRANCH  15  16
HETATM   16  C8  UNL     1      22.978   2.165  52.110  1.00  0.00     0.295 C 
BRANCH  16  17
HETATM   17  N4  UNL     1      23.866   1.054  52.140  1.00  0.00     0.085 N 
HETATM   18  H9  UNL     1      23.852   0.469  51.301  1.00  0.00     0.315 HD
BRANCH  17  19
HETATM   19  C9  UNL     1      23.794   0.308  53.377  1.00  0.00     0.271 C 
BRANCH  19  20
HETATM   20  C10 UNL     1      25.263   0.158  53.823  1.00  0.00     0.060 C 
BRANCH  20  21
HETATM   21  C11 UNL     1      26.030  -0.121  52.565  1.00  0.00     0.274 C 
BRANCH  21  22
HETATM   22  N5  UNL     1      27.372   0.393  52.543  1.00  0.00     0.092 N 
HETATM   23  C12 UNL     1      28.269  -0.382  53.317  1.00  0.00     0.298 C 
HETATM   24  C13 UNL     1      29.114   0.325  54.306  1.00  0.00     0.198 C 
HETATM   25  O3  UNL     1      28.621   1.561  54.700  1.00  0.00    -0.388 OA
HETATM   26  C14 UNL     1      28.464   2.363  53.570  1.00  0.00     0.198 C 
HETATM   27  C15 UNL     1      27.345   1.797  52.761  1.00  0.00     0.298 C 
ENDBRANCH  21  22
ENDBRANCH  20  21
ENDBRANCH  19  20
ENDBRANCH  17  19
ENDBRANCH  16  17
ENDBRANCH  15  16
ENDBRANCH   1  15
TORSDOF 10
ENDMDL
MODEL 3
REMARK VINA RESULT:      -7.0      4.843      6.393
REMARK  10 active torsions:
REMARK  status: ('A' for Active; 'I' for Inactive)
REMARK    1  A    between atoms: N1_2  and  C1_3 
REMARK    2  A    between atoms: C5_9  and  C6_10 
REMARK    3  A    between atoms: C6_10  and  O2_11 
REMARK    4  A    between atoms: O2_11  and  C7_12 
REMARK    5  A    between atoms: C7_12  and  C8_13 
REMARK    6  A    between atoms: C8_13  and  N4_14 
REMARK    7  A    between atoms: N4_14  and  C9_15 
REMARK    8  A    between atoms: C9_15  and  C10_16 
REMARK    9  A    between atoms: C10_16  and  C11_17 
REMARK   10  A    between atoms: C11_17  and  N5_18 
ROOT
HETATM    1  O2  UNL     1      23.734   3.697  52.727  1.00  0.00    -0.385 OA
ENDROOT
BRANCH   1   2
HETATM    2  C6  UNL     1      23.451   2.366  52.923  1.00  0.00     0.206 C 
BRANCH   2   3
HETATM    3  C5  UNL     1      24.704   1.617  53.103  1.00  0.00    -0.032 A 
HETATM    4  C4  UNL     1      25.900   2.145  53.570  1.00  0.00     0.042 A 
HETATM    5  C3  UNL     1      27.021   1.355  53.701  1.00  0.00     0.072 A 
HETATM    6  N3  UNL     1      28.190   1.851  54.153  1.00  0.00    -0.241 NA
HETATM    7  C18 UNL     1      27.027   0.012  53.384  1.00  0.00     0.043 A 
HETATM    8  C2  UNL     1      29.291   1.066  54.278  1.00  0.00     0.236 A 
HETATM    9  N2  UNL     1      29.268  -0.261  53.957  1.00  0.00    -0.220 NA
HETATM   10  C1  UNL     1      28.114  -0.825  53.494  1.00  0.00     0.193 A 
HETATM   11  C17 UNL     1      25.820  -0.513  52.915  1.00  0.00     0.018 A 
HETATM   12  C16 UNL     1      24.686   0.276  52.780  1.00  0.00     0.010 A 
BRANCH  10  13
HETATM   13  N1  UNL     1      28.046  -2.210  53.146  1.00  0.00    -0.077 NA
HETATM   14  O1  UNL     1      28.853  -3.051  53.540  1.00  0.00    -0.059 OA
ENDBRANCH  10  13
ENDBRANCH   2   3
ENDBRANCH   1   2
BRANCH   1  15
HETATM   15  C7  UNL     1      22.969   4.301  51.730  1.00  0.00     0.198 C 
BRANCH  15  16
HETATM   16  C8  UNL     1      23.879   4.659  50.564  1.00  0.00     0.295 C 
BRANCH  16  17
HETATM   17  N4  UNL     1      25.232   4.485  50.965  1.00  0.00     0.085 N 
HETATM   18  H9  UNL     1      25.596   5.215  51.581  1.00  0.00     0.315 HD
BRANCH  17  19
HETATM   19  C9  UNL     1      26.109   4.154  49.863  1.00  0.00     0.271 C 
BRANCH  19  20
HETATM   20  C10 UNL     1      25.924   5.312  48.861  1.00  0.00     0.060 C 
BRANCH  20  21
HETATM   21  C11 UNL     1      27.310   5.813  48.579  1.00  0.00     0.274 C 
BRANCH  21  22
HETATM   22  N5  UNL     1      27.400   7.213  48.269  1.00  0.00     0.092 N 
HETATM   23  C12 UNL     1      28.645   7.570  47.698  1.00  0.00     0.298 C 
HETATM   24  C13 UNL     1      29.377   8.710  48.296  1.00  0.00     0.198 C 
HETATM   25  O3  UNL     1      29.014   8.998  49.605  1.00  0.00    -0.388 OA
HETATM   26  C14 UNL     1      27.645   9.256  49.645  1.00  0.00     0.198 C 
HETATM   27  C15 UNL     1      26.931   7.974  49.373  1.00  0.00     0.298 C 
ENDBRANCH  21  22
ENDBRANCH  20  21
ENDBRANCH  19  20
ENDBRANCH  17  19
ENDBRANCH  16  17
ENDBRANCH  15  16
ENDBRANCH   1  15
TORSDOF 10
ENDMDL
MODEL 4
REMARK VINA RESULT:      -6.9      5.435      8.648
REMARK  10 active torsions:
REMARK  status: ('A' for Active; 'I' for Inactive)
REMARK    1  A    between atoms: N1_2  and  C1_3 
REMARK    2  A    between atoms: C5_9  and  C6_10 
REMARK    3  A    between atoms: C6_10  and  O2_11 
REMARK    4  A    between atoms: O2_11  and  C7_12 
REMARK    5  A    between atoms: C7_12  and  C8_13 
REMARK    6  A    between atoms: C8_13  and  N4_14 
REMARK    7  A    between atoms: N4_14  and  C9_15 
REMARK    8  A    between atoms: C9_15  and  C10_16 
REMARK    9  A    between atoms: C10_16  and  C11_17 
REMARK   10  A    between atoms: C11_17  and  N5_18 
ROOT
HETATM    1  O2  UNL     1      24.822   4.601  50.656  1.00  0.00    -0.385 OA
ENDROOT
BRANCH   1   2
HETATM    2  C6  UNL     1      25.170   3.366  50.165  1.00  0.00     0.206 C 
BRANCH   2   3
HETATM    3  C5  UNL     1      25.601   2.499  51.274  1.00  0.00    -0.032 A 
HETATM    4  C4  UNL     1      26.899   2.387  51.752  1.00  0.00     0.042 A 
HETATM    5  C3  UNL     1      27.199   1.543  52.798  1.00  0.00     0.072 A 
HETATM    6  N3  UNL     1      28.454   1.422  53.276  1.00  0.00    -0.241 NA
HETATM    7  C18 UNL     1      26.246   0.769  53.428  1.00  0.00     0.043 A 
HETATM    8  C2  UNL     1      28.742   0.587  54.306  1.00  0.00     0.236 A 
HETATM    9  N2  UNL     1      27.778  -0.168  54.910  1.00  0.00    -0.220 NA
HETATM   10  C1  UNL     1      26.486  -0.091  54.475  1.00  0.00     0.193 A 
HETATM   11  C17 UNL     1      24.941   0.887  52.941  1.00  0.00     0.018 A 
HETATM   12  C16 UNL     1      24.630   1.735  51.888  1.00  0.00     0.010 A 
BRANCH  10  13
HETATM   13  N1  UNL     1      25.446  -0.863  55.079  1.00  0.00    -0.077 NA
HETATM   14  O1  UNL     1      25.426  -1.161  56.273  1.00  0.00    -0.059 OA
ENDBRANCH  10  13
ENDBRANCH   2   3
ENDBRANCH   1   2
BRANCH   1  15
HETATM   15  C7  UNL     1      25.355   5.670  49.935  1.00  0.00     0.198 C 
BRANCH  15  16
HETATM   16  C8  UNL     1      26.433   5.142  49.001  1.00  0.00     0.295 C 
BRANCH  16  17
HETATM   17  N4  UNL     1      27.557   6.012  49.056  1.00  0.00     0.085 N 
HETATM   18  H9  UNL     1      27.360   6.985  48.814  1.00  0.00     0.315 HD
BRANCH  17  19
HETATM   19  C9  UNL     1      28.725   5.468  48.397  1.00  0.00     0.271 C 
BRANCH  19  20
HETATM   20  C10 UNL     1      29.620   6.693  48.123  1.00  0.00     0.060 C 
BRANCH  20  21
HETATM   21  C11 UNL     1      30.810   6.153  47.386  1.00  0.00     0.274 C 
BRANCH  21  22
HETATM   22  N5  UNL     1      31.673   5.306  48.162  1.00  0.00     0.092 N 
HETATM   23  C12 UNL     1      32.641   6.034  48.896  1.00  0.00     0.298 C 
HETATM   24  C13 UNL     1      34.056   5.620  48.771  1.00  0.00     0.198 C 
HETATM   25  O3  UNL     1      34.341   4.896  47.621  1.00  0.00    -0.388 OA
HETATM   26  C14 UNL     1      33.524   3.767  47.587  1.00  0.00     0.198 C 
HETATM   27  C15 UNL     1      32.123   4.224  47.359  1.00  0.00     0.298 C 
ENDBRANCH  21  22
ENDBRANCH  20  21
ENDBRANCH  19  20
ENDBRANCH  17  19
ENDBRANCH  16  17
ENDBRANCH  15  16
ENDBRANCH   1  15
TORSDOF 10
ENDMDL
MODEL 5
REMARK VINA RESULT:      -6.9      1.879      2.981
REMARK  10 active torsions:
REMARK  status: ('A' for Active; 'I' for Inactive)
REMARK    1  A    between atoms: N1_2  and  C1_3 
REMARK    2  A    between atoms: C5_9  and  C6_10 
REMARK    3  A    between atoms: C6_10  and  O2_11 
REMARK    4  A    between atoms: O2_11  and  C7_12 
REMARK    5  A    between atoms: C7_12  and  C8_13 
REMARK    6  A    between atoms: C8_13  and  N4_14 
REMARK    7  A    between atoms: N4_14  and  C9_15 
REMARK    8  A    between atoms: C9_15  and  C10_16 
REMARK    9  A    between atoms: C10_16  and  C11_17 
REMARK   10  A    between atoms: C11_17  and  N5_18 
ROOT
HETATM    1  O2  UNL     1      22.727   0.511  53.676  1.00  0.00    -0.385 OA
ENDROOT
BRANCH   1   2
HETATM    2  C6  UNL     1      23.478  -0.515  53.154  1.00  0.00     0.206 C 
BRANCH   2   3
HETATM    3  C5  UNL     1      24.908  -0.229  53.354  1.00  0.00    -0.032 A 
HETATM    4  C4  UNL     1      25.943  -1.139  53.184  1.00  0.00     0.042 A 
HETATM    5  C3  UNL     1      27.253  -0.769  53.397  1.00  0.00     0.072 A 
HETATM    6  N3  UNL     1      28.271  -1.639  53.238  1.00  0.00    -0.241 NA
HETATM    7  C18 UNL     1      27.614   0.504  53.786  1.00  0.00     0.043 A 
HETATM    8  C2  UNL     1      29.559  -1.268  53.451  1.00  0.00     0.236 A 
HETATM    9  N2  UNL     1      29.887  -0.000  53.835  1.00  0.00    -0.220 NA
HETATM   10  C1  UNL     1      28.903   0.929  54.014  1.00  0.00     0.193 A 
HETATM   11  C17 UNL     1      26.567   1.414  53.954  1.00  0.00     0.018 A 
HETATM   12  C16 UNL     1      25.245   1.051  53.741  1.00  0.00     0.010 A 
BRANCH  10  13
HETATM   13  N1  UNL     1      29.203   2.268  54.415  1.00  0.00    -0.077 NA
HETATM   14  O1  UNL     1      30.018   2.549  55.293  1.00  0.00    -0.059 OA
ENDBRANCH  10  13
ENDBRANCH   2   3
ENDBRANCH   1   2
BRANCH   1  15
HETATM   15  C7  UNL     1      21.489   0.682  53.056  1.00  0.00     0.198 C 
BRANCH  15  16
HETATM   16  C8  UNL     1      21.700   1.387  51.725  1.00  0.00     0.295 C 
BRANCH  16  17
HETATM   17  N4  UNL     1      21.835   2.784  51.960  1.00  0.00     0.085 N 
HETATM   18  H9  UNL     1      21.103   3.363  51.543  1.00  0.00     0.315 HD
BRANCH  17  19
HETATM   19  C9  UNL     1      23.176   3.270  51.720  1.00  0.00     0.271 C 
BRANCH  19  20
HETATM   20  C10 UNL     1      23.652   2.492  50.476  1.00  0.00     0.060 C 
BRANCH  20  21
HETATM   21  C11 UNL     1      23.904   3.539  49.431  1.00  0.00     0.274 C 
BRANCH  21  22
HETATM   22  N5  UNL     1      22.931   3.589  48.374  1.00  0.00     0.092 N 
HETATM   23  C12 UNL     1      22.174   4.785  48.380  1.00  0.00     0.298 C 
HETATM   24  C13 UNL     1      20.699   4.668  48.335  1.00  0.00     0.198 C 
HETATM   25  O3  UNL     1      20.210   3.440  48.760  1.00  0.00    -0.388 OA
HETATM   26  C14 UNL     1      20.777   2.436  47.976  1.00  0.00     0.198 C 
HETATM   27  C15 UNL     1      22.228   2.356  48.317  1.00  0.00     0.298 C 
ENDBRANCH  21  22
ENDBRANCH  20  21
ENDBRANCH  19  20
ENDBRANCH  17  19
ENDBRANCH  16  17
ENDBRANCH  15  16
ENDBRANCH   1  15
TORSDOF 10
ENDMDL
MODEL 6
REMARK VINA RESULT:      -6.9      1.831      3.820
REMARK  10 active torsions:
REMARK  status: ('A' for Active; 'I' for Inactive)
REMARK    1  A    between atoms: N1_2  and  C1_3 
REMARK    2  A    between atoms: C5_9  and  C6_10 
REMARK    3  A    between atoms: C6_10  and  O2_11 
REMARK    4  A    between atoms: O2_11  and  C7_12 
REMARK    5  A    between atoms: C7_12  and  C8_13 
REMARK    6  A    between atoms: C8_13  and  N4_14 
REMARK    7  A    between atoms: N4_14  and  C9_15 
REMARK    8  A    between atoms: C9_15  and  C10_16 
REMARK    9  A    between atoms: C10_16  and  C11_17 
REMARK   10  A    between atoms: C11_17  and  N5_18 
ROOT
HETATM    1  O2  UNL     1      23.835   3.553  51.645  1.00  0.00    -0.385 OA
ENDROOT
BRANCH   1   2
HETATM    2  C6  UNL     1      23.538   2.466  52.431  1.00  0.00     0.206 C 
BRANCH   2   3
HETATM    3  C5  UNL     1      24.777   1.748  52.769  1.00  0.00    -0.032 A 
HETATM    4  C4  UNL     1      25.926   2.326  53.292  1.00  0.00     0.042 A 
HETATM    5  C3  UNL     1      27.038   1.563  53.574  1.00  0.00     0.072 A 
HETATM    6  N3  UNL     1      28.162   2.107  54.083  1.00  0.00    -0.241 NA
HETATM    7  C18 UNL     1      27.081   0.201  53.360  1.00  0.00     0.043 A 
HETATM    8  C2  UNL     1      29.254   1.348  54.357  1.00  0.00     0.236 A 
HETATM    9  N2  UNL     1      29.268   0.002  54.134  1.00  0.00    -0.220 NA
HETATM   10  C1  UNL     1      28.161  -0.611  53.621  1.00  0.00     0.193 A 
HETATM   11  C17 UNL     1      25.921  -0.374  52.833  1.00  0.00     0.018 A 
HETATM   12  C16 UNL     1      24.796   0.387  52.546  1.00  0.00     0.010 A 
BRANCH  10  13
HETATM   13  N1  UNL     1      28.132  -2.018  53.373  1.00  0.00    -0.077 NA
HETATM   14  O1  UNL     1      29.133  -2.734  53.401  1.00  0.00    -0.059 OA
ENDBRANCH  10  13
ENDBRANCH   2   3
ENDBRANCH   1   2
BRANCH   1  15
HETATM   15  C7  UNL     1      22.738   4.077  50.960  1.00  0.00     0.198 C 
BRANCH  15  16
HETATM   16  C8  UNL     1      22.683   3.452  49.574  1.00  0.00     0.295 C 
BRANCH  16  17
HETATM   17  N4  UNL     1      21.475   2.712  49.449  1.00  0.00     0.085 N 
HETATM   18  H9  UNL     1      20.797   2.864  50.200  1.00  0.00     0.315 HD
BRANCH  17  19
HETATM   19  C9  UNL     1      21.696   1.319  49.132  1.00  0.00     0.271 C 
BRANCH  19  20
HETATM   20  C10 UNL     1      21.073   0.549  50.313  1.00  0.00     0.060 C 
BRANCH  20  21
HETATM   21  C11 UNL     1      19.815   1.295  50.650  1.00  0.00     0.274 C 
BRANCH  21  22
HETATM   22  N5  UNL     1      19.312   1.072  51.977  1.00  0.00     0.092 N 
HETATM   23  C12 UNL     1      20.261   1.375  52.982  1.00  0.00     0.298 C 
HETATM   24  C13 UNL     1      20.519   0.351  54.019  1.00  0.00     0.198 C 
HETATM   25  O3  UNL     1      20.174  -0.941  53.645  1.00  0.00    -0.388 OA
HETATM   26  C14 UNL     1      18.823  -0.962  53.300  1.00  0.00     0.198 C 
HETATM   27  C15 UNL     1      18.664  -0.191  52.032  1.00  0.00     0.298 C 
ENDBRANCH  21  22
ENDBRANCH  20  21
ENDBRANCH  19  20
ENDBRANCH  17  19
ENDBRANCH  16  17
ENDBRANCH  15  16
ENDBRANCH   1  15
TORSDOF 10
ENDMDL
MODEL 7
REMARK VINA RESULT:      -6.8      2.437      3.225
REMARK  10 active torsions:
REMARK  status: ('A' for Active; 'I' for Inactive)
REMARK    1  A    between atoms: N1_2  and  C1_3 
REMARK    2  A    between atoms: C5_9  and  C6_10 
REMARK    3  A    between atoms: C6_10  and  O2_11 
REMARK    4  A    between atoms: O2_11  and  C7_12 
REMARK    5  A    between atoms: C7_12  and  C8_13 
REMARK    6  A    between atoms: C8_13  and  N4_14 
REMARK    7  A    between atoms: N4_14  and  C9_15 
REMARK    8  A    between atoms: C9_15  and  C10_16 
REMARK    9  A    between atoms: C10_16  and  C11_17 
REMARK   10  A    between atoms: C11_17  and  N5_18 
ROOT
HETATM    1  O2  UNL     1      22.450   0.339  53.866  1.00  0.00    -0.385 OA
ENDROOT
BRANCH   1   2
HETATM    2  C6  UNL     1      23.186   0.118  52.727  1.00  0.00     0.206 C 
BRANCH   2   3
HETATM    3  C5  UNL     1      24.620   0.251  53.032  1.00  0.00    -0.032 A 
HETATM    4  C4  UNL     1      25.558  -0.770  52.960  1.00  0.00     0.042 A 
HETATM    5  C3  UNL     1      26.881  -0.540  53.268  1.00  0.00     0.072 A 
HETATM    6  N3  UNL     1      27.805  -1.519  53.203  1.00  0.00    -0.241 NA
HETATM    7  C18 UNL     1      27.350   0.696  53.661  1.00  0.00     0.043 A 
HETATM    8  C2  UNL     1      29.107  -1.285  53.510  1.00  0.00     0.236 A 
HETATM    9  N2  UNL     1      29.543  -0.051  53.896  1.00  0.00    -0.220 NA
HETATM   10  C1  UNL     1      28.657   0.984  53.982  1.00  0.00     0.193 A 
HETATM   11  C17 UNL     1      26.400   1.719  53.732  1.00  0.00     0.018 A 
HETATM   12  C16 UNL     1      25.066   1.497  53.423  1.00  0.00     0.010 A 
BRANCH  10  13
HETATM   13  N1  UNL     1      29.072   2.292  54.381  1.00  0.00    -0.077 NA
HETATM   14  O1  UNL     1      29.893   2.503  55.273  1.00  0.00    -0.059 OA
ENDBRANCH  10  13
ENDBRANCH   2   3
ENDBRANCH   1   2
BRANCH   1  15
HETATM   15  C7  UNL     1      21.148   0.776  53.627  1.00  0.00     0.198 C 
BRANCH  15  16
HETATM   16  C8  UNL     1      21.035   1.207  52.172  1.00  0.00     0.295 C 
BRANCH  16  17
HETATM   17  N4  UNL     1      20.652   2.575  52.125  1.00  0.00     0.085 N 
HETATM   18  H9  UNL     1      19.685   2.742  51.839  1.00  0.00     0.315 HD
BRANCH  17  19
HETATM   19  C9  UNL     1      21.618   3.409  51.443  1.00  0.00     0.271 C 
BRANCH  19  20
HETATM   20  C10 UNL     1      22.128   4.377  52.529  1.00  0.00     0.060 C 
BRANCH  20  21
HETATM   21  C11 UNL     1      23.549   4.679  52.152  1.00  0.00     0.274 C 
BRANCH  21  22
HETATM   22  N5  UNL     1      23.723   5.249  50.844  1.00  0.00     0.092 N 
HETATM   23  C12 UNL     1      24.892   4.784  50.194  1.00  0.00     0.298 C 
HETATM   24  C13 UNL     1      25.814   5.795  49.629  1.00  0.00     0.198 C 
HETATM   25  O3  UNL     1      25.690   7.059  50.190  1.00  0.00    -0.388 OA
HETATM   26  C14 UNL     1      24.375   7.494  50.031  1.00  0.00     0.198 C 
HETATM   27  C15 UNL     1      23.508   6.652  50.906  1.00  0.00     0.298 C 
ENDBRANCH  21  22
ENDBRANCH  20  21
ENDBRANCH  19  20
ENDBRANCH  17  19
ENDBRANCH  16  17
ENDBRANCH  15  16
ENDBRANCH   1  15
TORSDOF 10
ENDMDL
MODEL 8
REMARK VINA RESULT:      -6.8      5.921      8.003
REMARK  10 active torsions:
REMARK  status: ('A' for Active; 'I' for Inactive)
REMARK    1  A    between atoms: N1_2  and  C1_3 
REMARK    2  A    between atoms: C5_9  and  C6_10 
REMARK    3  A    between atoms: C6_10  and  O2_11 
REMARK    4  A    between atoms: O2_11  and  C7_12 
REMARK    5  A    between atoms: C7_12  and  C8_13 
REMARK    6  A    between atoms: C8_13  and  N4_14 
REMARK    7  A    between atoms: N4_14  and  C9_15 
REMARK    8  A    between atoms: C9_15  and  C10_16 
REMARK    9  A    between atoms: C10_16  and  C11_17 
REMARK   10  A    between atoms: C11_17  and  N5_18 
ROOT
HETATM    1  O2  UNL     1      25.477   4.715  50.356  1.00  0.00    -0.385 OA
ENDROOT
BRANCH   1   2
HETATM    2  C6  UNL     1      25.003   3.445  50.137  1.00  0.00     0.206 C 
BRANCH   2   3
HETATM    3  C5  UNL     1      25.514   2.540  51.179  1.00  0.00    -0.032 A 
HETATM    4  C4  UNL     1      26.829   2.483  51.622  1.00  0.00     0.042 A 
HETATM    5  C3  UNL     1      27.206   1.597  52.607  1.00  0.00     0.072 A 
HETATM    6  N3  UNL     1      28.478   1.527  53.049  1.00  0.00    -0.241 NA
HETATM    7  C18 UNL     1      26.320   0.725  53.205  1.00  0.00     0.043 A 
HETATM    8  C2  UNL     1      28.843   0.650  54.019  1.00  0.00     0.236 A 
HETATM    9  N2  UNL     1      27.944  -0.201  54.594  1.00  0.00    -0.220 NA
HETATM   10  C1  UNL     1      26.639  -0.181  54.191  1.00  0.00     0.193 A 
HETATM   11  C17 UNL     1      24.999   0.789  52.754  1.00  0.00     0.018 A 
HETATM   12  C16 UNL     1      24.609   1.679  51.763  1.00  0.00     0.010 A 
BRANCH  10  13
HETATM   13  N1  UNL     1      25.665  -1.054  54.766  1.00  0.00    -0.077 NA
HETATM   14  O1  UNL     1      25.387  -1.068  55.964  1.00  0.00    -0.059 OA
ENDBRANCH  10  13
ENDBRANCH   2   3
ENDBRANCH   1   2
BRANCH   1  15
HETATM   15  C7  UNL     1      24.726   5.718  49.743  1.00  0.00     0.198 C 
BRANCH  15  16
HETATM   16  C8  UNL     1      24.715   6.943  50.645  1.00  0.00     0.295 C 
BRANCH  16  17
HETATM   17  N4  UNL     1      26.049   7.409  50.807  1.00  0.00     0.085 N 
HETATM   18  H9  UNL     1      26.217   7.942  51.663  1.00  0.00     0.315 HD
BRANCH  17  19
HETATM   19  C9  UNL     1      26.578   8.031  49.614  1.00  0.00     0.271 C 
BRANCH  19  20
HETATM   20  C10 UNL     1      27.393   9.233  50.134  1.00  0.00     0.060 C 
BRANCH  20  21
HETATM   21  C11 UNL     1      27.713  10.048  48.915  1.00  0.00     0.274 C 
BRANCH  21  22
HETATM   22  N5  UNL     1      29.042   9.870  48.397  1.00  0.00     0.092 N 
HETATM   23  C12 UNL     1      29.085   8.996  47.284  1.00  0.00     0.298 C 
HETATM   24  C13 UNL     1      30.061   7.884  47.318  1.00  0.00     0.198 C 
HETATM   25  O3  UNL     1      30.485   7.535  48.593  1.00  0.00    -0.388 OA
HETATM   26  C14 UNL     1      31.043   8.658  49.203  1.00  0.00     0.198 C 
HETATM   27  C15 UNL     1      29.941   9.627  49.470  1.00  0.00     0.298 C 
ENDBRANCH  21  22
ENDBRANCH  20  21
ENDBRANCH  19  20
ENDBRANCH  17  19
ENDBRANCH  16  17
ENDBRANCH  15  16
ENDBRANCH   1  15
TORSDOF 10
ENDMDL
MODEL 9
REMARK VINA RESULT:      -6.7      3.908      5.375
REMARK  10 active torsions:
REMARK  status: ('A' for Active; 'I' for Inactive)
REMARK    1  A    between atoms: N1_2  and  C1_3 
REMARK    2  A    between atoms: C5_9  and  C6_10 
REMARK    3  A    between atoms: C6_10  and  O2_11 
REMARK    4  A    between atoms: O2_11  and  C7_12 
REMARK    5  A    between atoms: C7_12  and  C8_13 
REMARK    6  A    between atoms: C8_13  and  N4_14 
REMARK    7  A    between atoms: N4_14  and  C9_15 
REMARK    8  A    between atoms: C9_15  and  C10_16 
REMARK    9  A    between atoms: C10_16  and  C11_17 
REMARK   10  A    between atoms: C11_17  and  N5_18 
ROOT
HETATM    1  O2  UNL     1      23.386   2.710  52.777  1.00  0.00    -0.385 OA
ENDROOT
BRANCH   1   2
HETATM    2  C6  UNL     1      23.351   1.364  53.048  1.00  0.00     0.206 C 
BRANCH   2   3
HETATM    3  C5  UNL     1      24.723   0.854  53.193  1.00  0.00    -0.032 A 
HETATM    4  C4  UNL     1      25.792   1.557  53.734  1.00  0.00     0.042 A 
HETATM    5  C3  UNL     1      27.042   0.987  53.825  1.00  0.00     0.072 A 
HETATM    6  N3  UNL     1      28.091   1.655  54.347  1.00  0.00    -0.241 NA
HETATM    7  C18 UNL     1      27.309  -0.296  53.394  1.00  0.00     0.043 A 
HETATM    8  C2  UNL     1      29.320   1.087  54.432  1.00  0.00     0.236 A 
HETATM    9  N2  UNL     1      29.556  -0.186  53.998  1.00  0.00    -0.220 NA
HETATM   10  C1  UNL     1      28.536  -0.917  53.459  1.00  0.00     0.193 A 
HETATM   11  C17 UNL     1      26.229  -0.998  52.852  1.00  0.00     0.018 A 
HETATM   12  C16 UNL     1      24.966  -0.432  52.756  1.00  0.00     0.010 A 
BRANCH  10  13
HETATM   13  N1  UNL     1      28.738  -2.253  52.993  1.00  0.00    -0.077 NA
HETATM   14  O1  UNL     1      29.032  -3.193  53.730  1.00  0.00    -0.059 OA
ENDBRANCH  10  13
ENDBRANCH   2   3
ENDBRANCH   1   2
BRANCH   1  15
HETATM   15  C7  UNL     1      23.190   3.027  51.433  1.00  0.00     0.198 C 
BRANCH  15  16
HETATM   16  C8  UNL     1      22.192   4.171  51.340  1.00  0.00     0.295 C 
BRANCH  16  17
HETATM   17  N4  UNL     1      22.568   5.187  52.262  1.00  0.00     0.085 N 
HETATM   18  H9  UNL     1      21.827   5.852  52.495  1.00  0.00     0.315 HD
BRANCH  17  19
HETATM   19  C9  UNL     1      23.833   5.807  51.934  1.00  0.00     0.271 C 
BRANCH  19  20
HETATM   20  C10 UNL     1      23.474   6.893  50.899  1.00  0.00     0.060 C 
BRANCH  20  21
HETATM   21  C11 UNL     1      24.274   6.551  49.677  1.00  0.00     0.274 C 
BRANCH  21  22
HETATM   22  N5  UNL     1      25.692   6.454  49.885  1.00  0.00     0.092 N 
HETATM   23  C12 UNL     1      26.354   7.697  49.740  1.00  0.00     0.298 C 
HETATM   24  C13 UNL     1      27.531   7.751  48.843  1.00  0.00     0.198 C 
HETATM   25  O3  UNL     1      27.575   6.735  47.897  1.00  0.00    -0.388 OA
HETATM   26  C14 UNL     1      27.554   5.507  48.557  1.00  0.00     0.198 C 
HETATM   27  C15 UNL     1      26.202   5.340  49.166  1.00  0.00     0.298 C 
ENDBRANCH  21  22
ENDBRANCH  20  21
ENDBRANCH  19  20
ENDBRANCH  17  19
ENDBRANCH  16  17
ENDBRANCH  15  16
ENDBRANCH   1  15
TORSDOF 10
ENDMDL
