MODEL 1
REMARK VINA RESULT:      -8.7      0.000      0.000
REMARK  4 active torsions:
REMARK  status: ('A' for Active; 'I' for Inactive)
REMARK    1  A    between atoms: C5_6  and  C6_7 
REMARK    2  A    between atoms: C6_7  and  O1_8 
REMARK    3  A    between atoms: O1_8  and  C7_9 
REMARK    4  A    between atoms: C10_12  and  N1_13 
ROOT
HETATM    1  C7  UNL     1      23.639   4.713  51.111  1.00  0.00     0.091 A 
HETATM    2  C8  UNL     1      23.778   4.268  52.405  1.00  0.00     0.041 A 
HETATM    3  C9  UNL     1      23.605   2.943  52.740  1.00  0.00     0.032 A 
HETATM    4  C10 UNL     1      23.283   1.993  51.793  1.00  0.00     0.040 A 
HETATM    5  C17 UNL     1      23.134   2.394  50.485  1.00  0.00     0.056 A 
HETATM    6  C18 UNL     1      23.310   3.743  50.148  1.00  0.00     0.069 A 
HETATM    7 CL1  UNL     1      23.068   4.014  48.417  1.00  0.00    -0.081 Cl
ENDROOT
BRANCH   4   8
HETATM    8  N1  UNL     1      23.161   0.684  52.341  1.00  0.00    -0.308 N 
HETATM    9  C11 UNL     1      21.888   0.013  52.156  1.00  0.00     0.305 C 
HETATM   10  O2  UNL     1      21.615  -1.016  52.969  1.00  0.00    -0.328 OA
HETATM   11  C12 UNL     1      21.485  -0.915  54.291  1.00  0.00     0.378 C 
HETATM   12  F2  UNL     1      20.570  -1.886  54.719  1.00  0.00    -0.207 F 
HETATM   13  S1  UNL     1      23.023  -1.157  55.262  1.00  0.00    -0.060 SA
HETATM   14  C13 UNL     1      24.347  -0.583  54.191  1.00  0.00     0.069 A 
HETATM   15  C14 UNL     1      25.600  -0.974  54.647  1.00  0.00     0.140 A 
HETATM   16  C16 UNL     1      24.332   0.161  53.018  1.00  0.00     0.151 A 
HETATM   17  N2  UNL     1      26.686  -0.615  53.939  1.00  0.00    -0.253 NA
HETATM   18  C15 UNL     1      26.615   0.106  52.807  1.00  0.00     0.235 A 
HETATM   19  N3  UNL     1      25.428   0.511  52.320  1.00  0.00    -0.223 NA
ENDBRANCH   4   8
BRANCH   1  20
HETATM   20  O1  UNL     1      23.739   5.909  50.476  1.00  0.00    -0.345 OA
BRANCH  20  21
HETATM   21  C6  UNL     1      24.718   6.858  50.388  1.00  0.00     0.214 C 
BRANCH  21  22
HETATM   22  C5  UNL     1      25.913   6.429  49.658  1.00  0.00    -0.031 A 
HETATM   23  C4  UNL     1      26.403   5.201  49.282  1.00  0.00     0.009 A 
HETATM   24  C3  UNL     1      27.556   5.041  48.577  1.00  0.00     0.004 A 
HETATM   25  C2  UNL     1      28.326   6.129  48.187  1.00  0.00     0.042 A 
HETATM   26  C1  UNL     1      27.870   7.379  48.545  1.00  0.00     0.117 A 
HETATM   27  F1  UNL     1      28.648   8.403  48.145  1.00  0.00    -0.206 F 
HETATM   28  C19 UNL     1      26.693   7.518  49.262  1.00  0.00     0.051 A 
ENDBRANCH  21  22
ENDBRANCH  20  21
ENDBRANCH   1  20
TORSDOF 4
ENDMDL
MODEL 2
REMARK VINA RESULT:      -8.6      4.706      7.022
REMARK  4 active torsions:
REMARK  status: ('A' for Active; 'I' for Inactive)
REMARK    1  A    between atoms: C5_6  and  C6_7 
REMARK    2  A    between atoms: C6_7  and  O1_8 
REMARK    3  A    between atoms: O1_8  and  C7_9 
REMARK    4  A    between atoms: C10_12  and  N1_13 
ROOT
HETATM    1  C7  UNL     1      25.672   2.594  52.249  1.00  0.00     0.091 A 
HETATM    2  C8  UNL     1      24.704   2.679  53.222  1.00  0.00     0.041 A 
HETATM    3  C9  UNL     1      23.464   3.226  52.969  1.00  0.00     0.032 A 
HETATM    4  C10 UNL     1      23.132   3.715  51.723  1.00  0.00     0.040 A 
HETATM    5  C17 UNL     1      24.070   3.650  50.719  1.00  0.00     0.056 A 
HETATM    6  C18 UNL     1      25.330   3.094  50.981  1.00  0.00     0.069 A 
HETATM    7 CL1  UNL     1      26.360   3.121  49.543  1.00  0.00    -0.081 Cl
ENDROOT
BRANCH   4   8
HETATM    8  N1  UNL     1      21.802   4.225  51.667  1.00  0.00    -0.308 N 
HETATM    9  C11 UNL     1      20.779   3.461  52.353  1.00  0.00     0.305 C 
HETATM   10  O2  UNL     1      19.506   3.687  52.001  1.00  0.00    -0.328 OA
HETATM   11  C12 UNL     1      19.010   3.455  50.786  1.00  0.00     0.378 C 
HETATM   12  F2  UNL     1      17.657   3.116  50.921  1.00  0.00    -0.207 F 
HETATM   13  S1  UNL     1      19.100   4.859  49.608  1.00  0.00    -0.060 SA
HETATM   14  C13 UNL     1      20.563   5.782  50.093  1.00  0.00     0.069 A 
HETATM   15  C14 UNL     1      20.613   7.039  49.503  1.00  0.00     0.140 A 
HETATM   16  C16 UNL     1      21.622   5.464  50.936  1.00  0.00     0.151 A 
HETATM   17  N2  UNL     1      21.655   7.843  49.780  1.00  0.00    -0.253 NA
HETATM   18  C15 UNL     1      22.654   7.486  50.606  1.00  0.00     0.235 A 
HETATM   19  N3  UNL     1      22.658   6.281  51.204  1.00  0.00    -0.223 NA
ENDBRANCH   4   8
BRANCH   1  20
HETATM   20  O1  UNL     1      26.946   2.129  52.180  1.00  0.00    -0.345 OA
BRANCH  20  21
HETATM   21  C6  UNL     1      27.958   1.996  53.088  1.00  0.00     0.214 C 
BRANCH  21  22
HETATM   22  C5  UNL     1      28.489   0.635  53.208  1.00  0.00    -0.031 A 
HETATM   23  C4  UNL     1      29.677   0.120  53.669  1.00  0.00     0.009 A 
HETATM   24  C3  UNL     1      29.951  -1.212  53.701  1.00  0.00     0.004 A 
HETATM   25  C2  UNL     1      29.030  -2.154  53.259  1.00  0.00     0.042 A 
HETATM   26  C1  UNL     1      27.825  -1.678  52.788  1.00  0.00     0.117 A 
HETATM   27  F1  UNL     1      26.965  -2.626  52.372  1.00  0.00    -0.206 F 
HETATM   28  C19 UNL     1      27.568  -0.317  52.766  1.00  0.00     0.051 A 
ENDBRANCH  21  22
ENDBRANCH  20  21
ENDBRANCH   1  20
TORSDOF 4
ENDMDL
MODEL 3
REMARK VINA RESULT:      -8.5      4.852      7.518
REMARK  4 active torsions:
REMARK  status: ('A' for Active; 'I' for Inactive)
REMARK    1  A    between atoms: C5_6  and  C6_7 
REMARK    2  A    between atoms: C6_7  and  O1_8 
REMARK    3  A    between atoms: O1_8  and  C7_9 
REMARK    4  A    between atoms: C10_12  and  N1_13 
ROOT
HETATM    1  C7  UNL     1      24.127   1.153  52.190  1.00  0.00     0.091 A 
HETATM    2  C8  UNL     1      22.787   1.027  51.905  1.00  0.00     0.041 A 
HETATM    3  C9  UNL     1      22.186   1.756  50.902  1.00  0.00     0.032 A 
HETATM    4  C10 UNL     1      22.900   2.651  50.133  1.00  0.00     0.040 A 
HETATM    5  C17 UNL     1      24.243   2.810  50.384  1.00  0.00     0.056 A 
HETATM    6  C18 UNL     1      24.851   2.067  51.405  1.00  0.00     0.069 A 
HETATM    7 CL1  UNL     1      26.574   2.440  51.538  1.00  0.00    -0.081 Cl
ENDROOT
BRANCH   4   8
HETATM    8  N1  UNL     1      22.097   3.293  49.145  1.00  0.00    -0.308 N 
HETATM    9  C11 UNL     1      21.525   2.447  48.116  1.00  0.00     0.305 C 
HETATM   10  O2  UNL     1      21.111   3.046  46.991  1.00  0.00    -0.328 OA
HETATM   11  C12 UNL     1      21.911   3.703  46.151  1.00  0.00     0.378 C 
HETATM   12  F2  UNL     1      21.387   3.580  44.858  1.00  0.00    -0.207 F 
HETATM   13  S1  UNL     1      22.112   5.497  46.483  1.00  0.00    -0.060 SA
HETATM   14  C13 UNL     1      21.928   5.666  48.263  1.00  0.00     0.069 A 
HETATM   15  C14 UNL     1      21.750   6.988  48.651  1.00  0.00     0.140 A 
HETATM   16  C16 UNL     1      21.931   4.727  49.288  1.00  0.00     0.151 A 
HETATM   17  N2  UNL     1      21.596   7.263  49.959  1.00  0.00    -0.253 NA
HETATM   18  C15 UNL     1      21.606   6.314  50.911  1.00  0.00     0.235 A 
HETATM   19  N3  UNL     1      21.775   5.018  50.592  1.00  0.00    -0.223 NA
ENDBRANCH   4   8
BRANCH   1  20
HETATM   20  O1  UNL     1      24.990   0.600  53.081  1.00  0.00    -0.345 OA
BRANCH  20  21
HETATM   21  C6  UNL     1      25.429  -0.674  53.312  1.00  0.00     0.214 C 
BRANCH  21  22
HETATM   22  C5  UNL     1      26.885  -0.803  53.418  1.00  0.00    -0.031 A 
HETATM   23  C4  UNL     1      27.792  -1.715  52.933  1.00  0.00     0.009 A 
HETATM   24  C3  UNL     1      29.132  -1.622  53.151  1.00  0.00     0.004 A 
HETATM   25  C2  UNL     1      29.678  -0.583  53.892  1.00  0.00     0.042 A 
HETATM   26  C1  UNL     1      28.801   0.353  54.397  1.00  0.00     0.117 A 
HETATM   27  F1  UNL     1      29.375   1.342  55.108  1.00  0.00    -0.206 F 
HETATM   28  C19 UNL     1      27.441   0.240  54.162  1.00  0.00     0.051 A 
ENDBRANCH  21  22
ENDBRANCH  20  21
ENDBRANCH   1  20
TORSDOF 4
ENDMDL
MODEL 4
REMARK VINA RESULT:      -8.4      4.414      7.244
REMARK  4 active torsions:
REMARK  status: ('A' for Active; 'I' for Inactive)
REMARK    1  A    between atoms: C5_6  and  C6_7 
REMARK    2  A    between atoms: C6_7  and  O1_8 
REMARK    3  A    between atoms: O1_8  and  C7_9 
REMARK    4  A    between atoms: C10_12  and  N1_13 
ROOT
HETATM    1  C7  UNL     1      24.722   0.818  52.511  1.00  0.00     0.091 A 
HETATM    2  C8  UNL     1      25.454   1.743  51.804  1.00  0.00     0.041 A 
HETATM    3  C9  UNL     1      24.856   2.803  51.158  1.00  0.00     0.032 A 
HETATM    4  C10 UNL     1      23.490   2.991  51.189  1.00  0.00     0.040 A 
HETATM    5  C17 UNL     1      22.718   2.090  51.885  1.00  0.00     0.056 A 
HETATM    6  C18 UNL     1      23.330   1.012  52.540  1.00  0.00     0.069 A 
HETATM    7 CL1  UNL     1      22.139  -0.005  53.362  1.00  0.00    -0.081 Cl
ENDROOT
BRANCH   4   8
HETATM    8  N1  UNL     1      23.075   4.149  50.470  1.00  0.00    -0.308 N 
HETATM    9  C11 UNL     1      23.467   5.434  51.018  1.00  0.00     0.305 C 
HETATM   10  O2  UNL     1      22.784   6.510  50.604  1.00  0.00    -0.328 OA
HETATM   11  C12 UNL     1      21.483   6.701  50.816  1.00  0.00     0.378 C 
HETATM   12  F2  UNL     1      21.252   8.079  50.919  1.00  0.00    -0.207 F 
HETATM   13  S1  UNL     1      20.361   6.062  49.511  1.00  0.00    -0.060 SA
HETATM   14  C13 UNL     1      21.215   4.641  48.817  1.00  0.00     0.069 A 
HETATM   15  C14 UNL     1      20.651   4.221  47.619  1.00  0.00     0.140 A 
HETATM   16  C16 UNL     1      22.313   3.913  49.259  1.00  0.00     0.151 A 
HETATM   17  N2  UNL     1      21.191   3.165  46.984  1.00  0.00    -0.253 NA
HETATM   18  C15 UNL     1      22.257   2.497  47.457  1.00  0.00     0.235 A 
HETATM   19  N3  UNL     1      22.844   2.859  48.612  1.00  0.00    -0.223 NA
ENDBRANCH   4   8
BRANCH   1  20
HETATM   20  O1  UNL     1      24.998  -0.299  53.232  1.00  0.00    -0.345 OA
BRANCH  20  21
HETATM   21  C6  UNL     1      25.807  -0.563  54.302  1.00  0.00     0.214 C 
BRANCH  21  22
HETATM   22  C5  UNL     1      27.240  -0.501  54.007  1.00  0.00    -0.031 A 
HETATM   23  C4  UNL     1      28.107  -1.335  53.341  1.00  0.00     0.009 A 
HETATM   24  C3  UNL     1      29.429  -1.058  53.174  1.00  0.00     0.004 A 
HETATM   25  C2  UNL     1      29.997   0.105  53.677  1.00  0.00     0.042 A 
HETATM   26  C1  UNL     1      29.162   0.968  54.352  1.00  0.00     0.117 A 
HETATM   27  F1  UNL     1      29.756   2.082  54.820  1.00  0.00    -0.206 F 
HETATM   28  C19 UNL     1      27.819   0.666  54.509  1.00  0.00     0.051 A 
ENDBRANCH  21  22
ENDBRANCH  20  21
ENDBRANCH   1  20
TORSDOF 4
ENDMDL
MODEL 5
REMARK VINA RESULT:      -8.4      4.758      7.634
REMARK  4 active torsions:
REMARK  status: ('A' for Active; 'I' for Inactive)
REMARK    1  A    between atoms: C5_6  and  C6_7 
REMARK    2  A    between atoms: C6_7  and  O1_8 
REMARK    3  A    between atoms: O1_8  and  C7_9 
REMARK    4  A    between atoms: C10_12  and  N1_13 
ROOT
HETATM    1  C7  UNL     1      25.422   2.360  51.737  1.00  0.00     0.091 A 
HETATM    2  C8  UNL     1      25.552   3.321  50.762  1.00  0.00     0.041 A 
HETATM    3  C9  UNL     1      24.523   3.621  49.896  1.00  0.00     0.032 A 
HETATM    4  C10 UNL     1      23.308   2.971  49.964  1.00  0.00     0.040 A 
HETATM    5  C17 UNL     1      23.135   2.001  50.925  1.00  0.00     0.056 A 
HETATM    6  C18 UNL     1      24.184   1.699  51.803  1.00  0.00     0.069 A 
HETATM    7 CL1  UNL     1      23.727   0.426  52.944  1.00  0.00    -0.081 Cl
ENDROOT
BRANCH   4   8
HETATM    8  N1  UNL     1      22.377   3.435  48.990  1.00  0.00    -0.308 N 
HETATM    9  C11 UNL     1      21.935   2.474  47.998  1.00  0.00     0.305 C 
HETATM   10  O2  UNL     1      21.390   2.962  46.875  1.00  0.00    -0.328 OA
HETATM   11  C12 UNL     1      22.036   3.727  45.996  1.00  0.00     0.378 C 
HETATM   12  F2  UNL     1      21.506   3.479  44.723  1.00  0.00    -0.207 F 
HETATM   13  S1  UNL     1      21.926   5.536  46.284  1.00  0.00    -0.060 SA
HETATM   14  C13 UNL     1      21.766   5.716  48.065  1.00  0.00     0.069 A 
HETATM   15  C14 UNL     1      21.368   6.996  48.431  1.00  0.00     0.140 A 
HETATM   16  C16 UNL     1      21.964   4.820  49.108  1.00  0.00     0.151 A 
HETATM   17  N2  UNL     1      21.205   7.274  49.737  1.00  0.00    -0.253 NA
HETATM   18  C15 UNL     1      21.409   6.367  50.708  1.00  0.00     0.235 A 
HETATM   19  N3  UNL     1      21.796   5.113  50.411  1.00  0.00    -0.223 NA
ENDBRANCH   4   8
BRANCH   1  20
HETATM   20  O1  UNL     1      26.218   1.846  52.711  1.00  0.00    -0.345 OA
BRANCH  20  21
HETATM   21  C6  UNL     1      27.549   1.950  53.002  1.00  0.00     0.214 C 
BRANCH  21  22
HETATM   22  C5  UNL     1      28.238   0.666  53.154  1.00  0.00    -0.031 A 
HETATM   23  C4  UNL     1      29.480   0.308  53.623  1.00  0.00     0.009 A 
HETATM   24  C3  UNL     1      29.909  -0.982  53.687  1.00  0.00     0.004 A 
HETATM   25  C2  UNL     1      29.107  -2.037  53.273  1.00  0.00     0.042 A 
HETATM   26  C1  UNL     1      27.854  -1.720  52.795  1.00  0.00     0.117 A 
HETATM   27  F1  UNL     1      27.112  -2.774  52.406  1.00  0.00    -0.206 F 
HETATM   28  C19 UNL     1      27.437  -0.400  52.740  1.00  0.00     0.051 A 
ENDBRANCH  21  22
ENDBRANCH  20  21
ENDBRANCH   1  20
TORSDOF 4
ENDMDL
MODEL 6
REMARK VINA RESULT:      -8.4      5.117      6.620
REMARK  4 active torsions:
REMARK  status: ('A' for Active; 'I' for Inactive)
REMARK    1  A    between atoms: C5_6  and  C6_7 
REMARK    2  A    between atoms: C6_7  and  O1_8 
REMARK    3  A    between atoms: O1_8  and  C7_9 
REMARK    4  A    between atoms: C10_12  and  N1_13 
ROOT
HETATM    1  C7  UNL     1      23.662  -0.115  53.348  1.00  0.00     0.091 A 
HETATM    2  C8  UNL     1      22.610  -0.713  54.001  1.00  0.00     0.041 A 
HETATM    3  C9  UNL     1      21.300  -0.440  53.672  1.00  0.00     0.032 A 
HETATM    4  C10 UNL     1      20.978   0.450  52.668  1.00  0.00     0.040 A 
HETATM    5  C17 UNL     1      21.999   1.072  51.988  1.00  0.00     0.056 A 
HETATM    6  C18 UNL     1      23.331   0.792  52.326  1.00  0.00     0.069 A 
HETATM    7 CL1  UNL     1      24.460   1.707  51.319  1.00  0.00    -0.081 Cl
ENDROOT
BRANCH   4   8
HETATM    8  N1  UNL     1      19.572   0.582  52.477  1.00  0.00    -0.308 N 
HETATM    9  C11 UNL     1      18.738  -0.482  53.000  1.00  0.00     0.305 C 
HETATM   10  O2  UNL     1      17.495  -0.583  52.509  1.00  0.00    -0.328 OA
HETATM   11  C12 UNL     1      17.210  -0.846  51.233  1.00  0.00     0.378 C 
HETATM   12  F2  UNL     1      15.999  -1.549  51.189  1.00  0.00    -0.207 F 
HETATM   13  S1  UNL     1      17.025   0.618  50.142  1.00  0.00    -0.060 SA
HETATM   14  C13 UNL     1      18.115   1.863  50.842  1.00  0.00     0.069 A 
HETATM   15  C14 UNL     1      17.873   3.128  50.322  1.00  0.00     0.140 A 
HETATM   16  C16 UNL     1      19.129   1.780  51.789  1.00  0.00     0.151 A 
HETATM   17  N2  UNL     1      18.616   4.161  50.759  1.00  0.00    -0.253 NA
HETATM   18  C15 UNL     1      19.585   4.024  51.680  1.00  0.00     0.235 A 
HETATM   19  N3  UNL     1      19.863   2.823  52.217  1.00  0.00    -0.223 NA
ENDBRANCH   4   8
BRANCH   1  20
HETATM   20  O1  UNL     1      25.017  -0.167  53.430  1.00  0.00    -0.345 OA
BRANCH  20  21
HETATM   21  C6  UNL     1      25.959  -1.064  53.013  1.00  0.00     0.214 C 
BRANCH  21  22
HETATM   22  C5  UNL     1      27.343  -0.637  53.237  1.00  0.00    -0.031 A 
HETATM   23  C4  UNL     1      28.540  -1.310  53.314  1.00  0.00     0.009 A 
HETATM   24  C3  UNL     1      29.733  -0.688  53.520  1.00  0.00     0.004 A 
HETATM   25  C2  UNL     1      29.818   0.690  53.670  1.00  0.00     0.042 A 
HETATM   26  C1  UNL     1      28.640   1.401  53.600  1.00  0.00     0.117 A 
HETATM   27  F1  UNL     1      28.772   2.733  53.750  1.00  0.00    -0.206 F 
HETATM   28  C19 UNL     1      27.437   0.747  53.388  1.00  0.00     0.051 A 
ENDBRANCH  21  22
ENDBRANCH  20  21
ENDBRANCH   1  20
TORSDOF 4
ENDMDL
MODEL 7
REMARK VINA RESULT:      -8.3      4.364      6.781
REMARK  4 active torsions:
REMARK  status: ('A' for Active; 'I' for Inactive)
REMARK    1  A    between atoms: C5_6  and  C6_7 
REMARK    2  A    between atoms: C6_7  and  O1_8 
REMARK    3  A    between atoms: O1_8  and  C7_9 
REMARK    4  A    between atoms: C10_12  and  N1_13 
ROOT
HETATM    1  C7  UNL     1      24.259   0.417  52.719  1.00  0.00     0.091 A 
HETATM    2  C8  UNL     1      22.957   0.450  53.161  1.00  0.00     0.041 A 
HETATM    3  C9  UNL     1      22.123   1.512  52.886  1.00  0.00     0.032 A 
HETATM    4  C10 UNL     1      22.554   2.597  52.152  1.00  0.00     0.040 A 
HETATM    5  C17 UNL     1      23.849   2.606  51.690  1.00  0.00     0.056 A 
HETATM    6  C18 UNL     1      24.695   1.524  51.973  1.00  0.00     0.069 A 
HETATM    7 CL1  UNL     1      26.304   1.763  51.278  1.00  0.00    -0.081 Cl
ENDROOT
BRANCH   4   8
HETATM    8  N1  UNL     1      21.537   3.579  51.970  1.00  0.00    -0.308 N 
HETATM    9  C11 UNL     1      20.189   3.204  52.350  1.00  0.00     0.305 C 
HETATM   10  O2  UNL     1      19.185   3.931  51.842  1.00  0.00    -0.328 OA
HETATM   11  C12 UNL     1      18.904   4.019  50.542  1.00  0.00     0.378 C 
HETATM   12  F2  UNL     1      17.523   4.212  50.403  1.00  0.00    -0.207 F 
HETATM   13  S1  UNL     1      19.733   5.385  49.640  1.00  0.00    -0.060 SA
HETATM   14  C13 UNL     1      21.294   5.630  50.496  1.00  0.00     0.069 A 
HETATM   15  C14 UNL     1      21.912   6.821  50.135  1.00  0.00     0.140 A 
HETATM   16  C16 UNL     1      21.969   4.855  51.432  1.00  0.00     0.151 A 
HETATM   17  N2  UNL     1      23.090   7.137  50.702  1.00  0.00    -0.253 NA
HETATM   18  C15 UNL     1      23.699   6.350  51.606  1.00  0.00     0.235 A 
HETATM   19  N3  UNL     1      23.147   5.186  51.992  1.00  0.00    -0.223 NA
ENDBRANCH   4   8
BRANCH   1  20
HETATM   20  O1  UNL     1      25.300  -0.451  52.818  1.00  0.00    -0.345 OA
BRANCH  20  21
HETATM   21  C6  UNL     1      26.045  -0.923  53.861  1.00  0.00     0.214 C 
BRANCH  21  22
HETATM   22  C5  UNL     1      27.484  -0.675  53.739  1.00  0.00    -0.031 A 
HETATM   23  C4  UNL     1      28.539  -1.429  53.282  1.00  0.00     0.009 A 
HETATM   24  C3  UNL     1      29.821  -0.974  53.247  1.00  0.00     0.004 A 
HETATM   25  C2  UNL     1      30.151   0.304  53.681  1.00  0.00     0.042 A 
HETATM   26  C1  UNL     1      29.121   1.092  54.147  1.00  0.00     0.117 A 
HETATM   27  F1  UNL     1      29.488   2.322  54.555  1.00  0.00    -0.206 F 
HETATM   28  C19 UNL     1      27.823   0.608  54.172  1.00  0.00     0.051 A 
ENDBRANCH  21  22
ENDBRANCH  20  21
ENDBRANCH   1  20
TORSDOF 4
ENDMDL
MODEL 8
REMARK VINA RESULT:      -8.2      4.908      7.534
REMARK  4 active torsions:
REMARK  status: ('A' for Active; 'I' for Inactive)
REMARK    1  A    between atoms: C5_6  and  C6_7 
REMARK    2  A    between atoms: C6_7  and  O1_8 
REMARK    3  A    between atoms: O1_8  and  C7_9 
REMARK    4  A    between atoms: C10_12  and  N1_13 
ROOT
HETATM    1  C7  UNL     1      24.787   1.846  52.351  1.00  0.00     0.091 A 
HETATM    2  C8  UNL     1      24.911   2.836  51.404  1.00  0.00     0.041 A 
HETATM    3  C9  UNL     1      23.975   3.011  50.408  1.00  0.00     0.032 A 
HETATM    4  C10 UNL     1      22.863   2.200  50.311  1.00  0.00     0.040 A 
HETATM    5  C17 UNL     1      22.699   1.197  51.237  1.00  0.00     0.056 A 
HETATM    6  C18 UNL     1      23.654   1.021  52.248  1.00  0.00     0.069 A 
HETATM    7 CL1  UNL     1      23.228  -0.325  53.313  1.00  0.00    -0.081 Cl
ENDROOT
BRANCH   4   8
HETATM    8  N1  UNL     1      22.015   2.554  49.222  1.00  0.00    -0.308 N 
HETATM    9  C11 UNL     1      22.402   2.074  47.909  1.00  0.00     0.305 C 
HETATM   10  O2  UNL     1      21.868   2.695  46.848  1.00  0.00    -0.328 OA
HETATM   11  C12 UNL     1      22.067   3.979  46.551  1.00  0.00     0.378 C 
HETATM   12  F2  UNL     1      22.007   4.122  45.158  1.00  0.00    -0.207 F 
HETATM   13  S1  UNL     1      20.857   5.158  47.268  1.00  0.00    -0.060 SA
HETATM   14  C13 UNL     1      20.331   4.406  48.812  1.00  0.00     0.069 A 
HETATM   15  C14 UNL     1      19.196   5.014  49.335  1.00  0.00     0.140 A 
HETATM   16  C16 UNL     1      20.848   3.348  49.551  1.00  0.00     0.151 A 
HETATM   17  N2  UNL     1      18.687   4.551  50.490  1.00  0.00    -0.253 NA
HETATM   18  C15 UNL     1      19.228   3.521  51.165  1.00  0.00     0.235 A 
HETATM   19  N3  UNL     1      20.326   2.895  50.706  1.00  0.00    -0.223 NA
ENDBRANCH   4   8
BRANCH   1  20
HETATM   20  O1  UNL     1      25.509   1.425  53.421  1.00  0.00    -0.345 OA
BRANCH  20  21
HETATM   21  C6  UNL     1      26.845   1.279  53.667  1.00  0.00     0.214 C 
BRANCH  21  22
HETATM   22  C5  UNL     1      27.368  -0.062  53.393  1.00  0.00    -0.031 A 
HETATM   23  C4  UNL     1      26.822  -1.196  52.838  1.00  0.00     0.009 A 
HETATM   24  C3  UNL     1      27.519  -2.351  52.665  1.00  0.00     0.004 A 
HETATM   25  C2  UNL     1      28.850  -2.461  53.046  1.00  0.00     0.042 A 
HETATM   26  C1  UNL     1      29.435  -1.346  53.607  1.00  0.00     0.117 A 
HETATM   27  F1  UNL     1      30.726  -1.500  53.959  1.00  0.00    -0.206 F 
HETATM   28  C19 UNL     1      28.706  -0.180  53.773  1.00  0.00     0.051 A 
ENDBRANCH  21  22
ENDBRANCH  20  21
ENDBRANCH   1  20
TORSDOF 4
ENDMDL
MODEL 9
REMARK VINA RESULT:      -8.2      4.758      6.803
REMARK  4 active torsions:
REMARK  status: ('A' for Active; 'I' for Inactive)
REMARK    1  A    between atoms: C5_6  and  C6_7 
REMARK    2  A    between atoms: C6_7  and  O1_8 
REMARK    3  A    between atoms: O1_8  and  C7_9 
REMARK    4  A    between atoms: C10_12  and  N1_13 
ROOT
HETATM    1  C7  UNL     1      24.121   0.479  53.080  1.00  0.00     0.091 A 
HETATM    2  C8  UNL     1      22.958  -0.030  52.551  1.00  0.00     0.041 A 
HETATM    3  C9  UNL     1      21.975   0.787  52.037  1.00  0.00     0.032 A 
HETATM    4  C10 UNL     1      22.108   2.160  52.027  1.00  0.00     0.040 A 
HETATM    5  C17 UNL     1      23.256   2.713  52.546  1.00  0.00     0.056 A 
HETATM    6  C18 UNL     1      24.254   1.878  53.068  1.00  0.00     0.069 A 
HETATM    7 CL1  UNL     1      25.627   2.814  53.675  1.00  0.00    -0.081 Cl
ENDROOT
BRANCH   4   8
HETATM    8  N1  UNL     1      20.988   2.819  51.442  1.00  0.00    -0.308 N 
HETATM    9  C11 UNL     1      19.994   3.353  52.354  1.00  0.00     0.305 C 
HETATM   10  O2  UNL     1      18.781   3.617  51.850  1.00  0.00    -0.328 OA
HETATM   11  C12 UNL     1      17.965   2.698  51.335  1.00  0.00     0.378 C 
HETATM   12  F2  UNL     1      16.644   3.108  51.559  1.00  0.00    -0.207 F 
HETATM   13  S1  UNL     1      18.139   2.401  49.532  1.00  0.00    -0.060 SA
HETATM   14  C13 UNL     1      19.866   2.736  49.168  1.00  0.00     0.069 A 
HETATM   15  C14 UNL     1      20.105   2.854  47.805  1.00  0.00     0.140 A 
HETATM   16  C16 UNL     1      20.973   2.895  49.994  1.00  0.00     0.151 A 
HETATM   17  N2  UNL     1      21.358   3.108  47.386  1.00  0.00    -0.253 NA
HETATM   18  C15 UNL     1      22.394   3.255  48.230  1.00  0.00     0.235 A 
HETATM   19  N3  UNL     1      22.221   3.150  49.560  1.00  0.00    -0.223 NA
ENDBRANCH   4   8
BRANCH   1  20
HETATM   20  O1  UNL     1      25.243  -0.037  53.645  1.00  0.00    -0.345 OA
BRANCH  20  21
HETATM   21  C6  UNL     1      25.974  -1.173  53.436  1.00  0.00     0.214 C 
BRANCH  21  22
HETATM   22  C5  UNL     1      27.425  -0.979  53.496  1.00  0.00    -0.031 A 
HETATM   23  C4  UNL     1      28.499  -1.731  53.082  1.00  0.00     0.009 A 
HETATM   24  C3  UNL     1      29.791  -1.333  53.232  1.00  0.00     0.004 A 
HETATM   25  C2  UNL     1      30.114  -0.121  53.828  1.00  0.00     0.042 A 
HETATM   26  C1  UNL     1      29.065   0.664  54.258  1.00  0.00     0.117 A 
HETATM   27  F1  UNL     1      29.426   1.829  54.827  1.00  0.00    -0.206 F 
HETATM   28  C19 UNL     1      27.757   0.239  54.093  1.00  0.00     0.051 A 
ENDBRANCH  21  22
ENDBRANCH  20  21
ENDBRANCH   1  20
TORSDOF 4
ENDMDL
