MODEL 1
REMARK VINA RESULT:      -9.6      0.000      0.000
REMARK  0 active torsions:
REMARK  status: ('A' for Active; 'I' for Inactive)
ROOT
HETATM    1  C1  UNL     1      22.315  -1.268  53.314  1.00  0.00     0.039 C 
HETATM    2  C2  UNL     1      23.013   0.107  53.378  1.00  0.00     0.141 C 
HETATM    3  N1  UNL     1      24.416   0.000  53.130  1.00  0.00    -0.364 N 
HETATM    4  C3  UNL     1      25.397   0.925  53.507  1.00  0.00     0.126 C 
HETATM    5  N2  UNL     1      25.782   0.053  54.380  1.00  0.00    -0.225 NA
HETATM    6  C4  UNL     1      26.813   0.126  55.299  1.00  0.00     0.230 C 
HETATM    7  N3  UNL     1      27.993  -0.203  54.993  1.00  0.00    -0.263 NA
HETATM    8  C5  UNL     1      28.401  -0.676  53.698  1.00  0.00     0.272 C 
HETATM    9  N4  UNL     1      27.506  -0.193  52.702  1.00  0.00    -0.371 N 
HETATM   10  C6  UNL     1      26.894   0.840  52.033  1.00  0.00     0.037 C 
HETATM   11  C7  UNL     1      27.390   1.741  52.917  1.00  0.00     0.006 C 
HETATM   12  C8  UNL     1      26.271   2.087  53.637  1.00  0.00     0.065 C 
HETATM   13  C9  UNL     1      25.976   1.266  51.034  1.00  0.00     0.013 C 
HETATM   14  C10 UNL     1      26.001   2.565  50.960  1.00  0.00     0.047 C 
HETATM   15  C11 UNL     1      25.775   3.938  50.623  1.00  0.00     0.025 C 
HETATM   16  C12 UNL     1      25.154   4.876  49.943  1.00  0.00     0.113 C 
HETATM   17  F1  UNL     1      25.659   6.076  50.296  1.00  0.00    -0.206 F 
HETATM   18  C13 UNL     1      24.070   4.371  49.146  1.00  0.00     0.038 C 
HETATM   19  C14 UNL     1      23.073   3.969  48.399  1.00  0.00    -0.020 C 
HETATM   20  C15 UNL     1      22.792   2.515  48.493  1.00  0.00     0.054 C 
HETATM   21  C16 UNL     1      21.383   2.345  49.003  1.00  0.00    -0.023 C 
HETATM   22  C17 UNL     1      20.978   1.816  50.120  1.00  0.00    -0.001 C 
HETATM   23  C18 UNL     1      21.886   1.287  51.098  1.00  0.00     0.039 C 
HETATM   24  C19 UNL     1      22.467   0.748  52.135  1.00  0.00     0.116 C 
HETATM   25  F2  UNL     1      21.127   0.624  52.468  1.00  0.00    -0.209 F 
HETATM   26  H5  UNL     1      24.649  -0.891  52.575  1.00  0.00     0.162 HD
HETATM   27  H9  UNL     1      26.995  -0.883  52.110  1.00  0.00     0.161 HD
ENDROOT
TORSDOF 0
ENDMDL
MODEL 2
REMARK VINA RESULT:      -9.2      2.735      5.855
REMARK  0 active torsions:
REMARK  status: ('A' for Active; 'I' for Inactive)
ROOT
HETATM    1  C1  UNL     1      21.167  -0.806  54.424  1.00  0.00     0.039 C 
HETATM    2  C2  UNL     1      21.773  -0.385  53.068  1.00  0.00     0.141 C 
HETATM    3  N1  UNL     1      21.342   0.921  52.679  1.00  0.00    -0.364 N 
HETATM    4  C3  UNL     1      21.340   1.441  51.379  1.00  0.00     0.126 C 
HETATM    5  N2  UNL     1      20.052   1.347  51.420  1.00  0.00    -0.225 NA
HETATM    6  C4  UNL     1      19.116   1.679  50.457  1.00  0.00     0.230 C 
HETATM    7  N3  UNL     1      18.660   2.852  50.358  1.00  0.00    -0.263 NA
HETATM    8  C5  UNL     1      19.042   3.952  51.201  1.00  0.00     0.272 C 
HETATM    9  N4  UNL     1      20.345   3.727  51.731  1.00  0.00    -0.371 N 
HETATM   10  C6  UNL     1      21.691   3.505  51.562  1.00  0.00     0.037 C 
HETATM   11  C7  UNL     1      21.522   3.343  50.226  1.00  0.00     0.006 C 
HETATM   12  C8  UNL     1      21.697   1.988  50.073  1.00  0.00     0.065 C 
HETATM   13  C9  UNL     1      22.965   3.268  52.145  1.00  0.00     0.013 C 
HETATM   14  C10 UNL     1      23.861   3.217  51.202  1.00  0.00     0.047 C 
HETATM   15  C11 UNL     1      25.071   3.100  50.445  1.00  0.00     0.025 C 
HETATM   16  C12 UNL     1      26.364   2.885  50.357  1.00  0.00     0.113 C 
HETATM   17  F1  UNL     1      26.737   3.000  49.065  1.00  0.00    -0.206 F 
HETATM   18  C13 UNL     1      26.955   2.479  51.602  1.00  0.00     0.038 C 
HETATM   19  C14 UNL     1      27.550   2.107  52.707  1.00  0.00    -0.020 C 
HETATM   20  C15 UNL     1      26.634   1.949  53.865  1.00  0.00     0.054 C 
HETATM   21  C16 UNL     1      26.713   0.517  54.329  1.00  0.00    -0.023 C 
HETATM   22  C17 UNL     1      25.785  -0.394  54.324  1.00  0.00    -0.001 C 
HETATM   23  C18 UNL     1      24.460  -0.145  53.832  1.00  0.00     0.039 C 
HETATM   24  C19 UNL     1      23.210  -0.197  53.458  1.00  0.00     0.116 C 
HETATM   25  F2  UNL     1      23.410  -1.478  53.948  1.00  0.00    -0.209 F 
HETATM   26  H5  UNL     1      21.030   1.500  53.530  1.00  0.00     0.162 HD
HETATM   27  H9  UNL     1      20.466   3.696  52.766  1.00  0.00     0.161 HD
ENDROOT
TORSDOF 0
ENDMDL
MODEL 3
REMARK VINA RESULT:      -9.1      3.602      5.882
REMARK  0 active torsions:
REMARK  status: ('A' for Active; 'I' for Inactive)
ROOT
HETATM    1  C1  UNL     1      19.301   3.731  49.677  1.00  0.00     0.039 C 
HETATM    2  C2  UNL     1      20.631   2.949  49.713  1.00  0.00     0.141 C 
HETATM    3  N1  UNL     1      21.689   3.729  50.272  1.00  0.00    -0.364 N 
HETATM    4  C3  UNL     1      23.061   3.522  50.086  1.00  0.00     0.126 C 
HETATM    5  N2  UNL     1      23.051   4.591  49.359  1.00  0.00    -0.225 NA
HETATM    6  C4  UNL     1      24.093   5.209  48.691  1.00  0.00     0.230 C 
HETATM    7  N3  UNL     1      24.837   6.051  49.267  1.00  0.00    -0.263 NA
HETATM    8  C5  UNL     1      24.702   6.459  50.639  1.00  0.00     0.272 C 
HETATM    9  N4  UNL     1      24.060   5.432  51.388  1.00  0.00    -0.371 N 
HETATM   10  C6  UNL     1      24.004   4.142  51.859  1.00  0.00     0.037 C 
HETATM   11  C7  UNL     1      25.047   3.782  51.071  1.00  0.00     0.006 C 
HETATM   12  C8  UNL     1      24.431   3.021  50.105  1.00  0.00     0.065 C 
HETATM   13  C9  UNL     1      23.312   3.152  52.608  1.00  0.00     0.013 C 
HETATM   14  C10 UNL     1      24.024   2.062  52.631  1.00  0.00     0.047 C 
HETATM   15  C11 UNL     1      24.525   0.739  52.852  1.00  0.00     0.025 C 
HETATM   16  C12 UNL     1      24.408  -0.477  53.335  1.00  0.00     0.113 C 
HETATM   17  F1  UNL     1      25.532  -1.167  53.054  1.00  0.00    -0.206 F 
HETATM   18  C13 UNL     1      23.108  -0.741  53.891  1.00  0.00     0.038 C 
HETATM   19  C14 UNL     1      21.946  -1.039  54.412  1.00  0.00    -0.020 C 
HETATM   20  C15 UNL     1      20.942   0.051  54.319  1.00  0.00     0.054 C 
HETATM   21  C16 UNL     1      19.773  -0.459  53.514  1.00  0.00    -0.023 C 
HETATM   22  C17 UNL     1      19.339  -0.052  52.359  1.00  0.00    -0.001 C 
HETATM   23  C18 UNL     1      19.963   1.016  51.631  1.00  0.00     0.039 C 
HETATM   24  C19 UNL     1      20.322   1.934  50.774  1.00  0.00     0.116 C 
HETATM   25  F2  UNL     1      19.206   1.392  50.155  1.00  0.00    -0.209 F 
HETATM   26  H5  UNL     1      21.306   4.513  50.902  1.00  0.00     0.162 HD
HETATM   27  H9  UNL     1      23.168   5.654  51.879  1.00  0.00     0.161 HD
ENDROOT
TORSDOF 0
ENDMDL
MODEL 4
REMARK VINA RESULT:      -9.0      3.108      6.997
REMARK  0 active torsions:
REMARK  status: ('A' for Active; 'I' for Inactive)
ROOT
HETATM    1  C1  UNL     1      23.517   4.597  49.458  1.00  0.00     0.039 C 
HETATM    2  C2  UNL     1      23.025   3.997  50.792  1.00  0.00     0.141 C 
HETATM    3  N1  UNL     1      21.987   3.036  50.589  1.00  0.00    -0.364 N 
HETATM    4  C3  UNL     1      21.047   2.617  51.539  1.00  0.00     0.126 C 
HETATM    5  N2  UNL     1      20.170   3.275  50.856  1.00  0.00    -0.225 NA
HETATM    6  C4  UNL     1      18.814   3.430  51.084  1.00  0.00     0.230 C 
HETATM    7  N3  UNL     1      17.974   2.589  50.660  1.00  0.00    -0.263 NA
HETATM    8  C5  UNL     1      18.306   1.405  49.914  1.00  0.00     0.272 C 
HETATM    9  N4  UNL     1      19.641   1.006  50.208  1.00  0.00    -0.371 N 
HETATM   10  C6  UNL     1      20.610   0.608  51.099  1.00  0.00     0.037 C 
HETATM   11  C7  UNL     1      19.791   0.874  52.147  1.00  0.00     0.006 C 
HETATM   12  C8  UNL     1      20.354   2.013  52.673  1.00  0.00     0.065 C 
HETATM   13  C9  UNL     1      21.959   0.231  51.337  1.00  0.00     0.013 C 
HETATM   14  C10 UNL     1      22.095  -0.092  52.591  1.00  0.00     0.047 C 
HETATM   15  C11 UNL     1      22.591  -0.501  53.871  1.00  0.00     0.025 C 
HETATM   16  C12 UNL     1      23.564  -0.884  54.666  1.00  0.00     0.113 C 
HETATM   17  F1  UNL     1      23.057  -1.109  55.896  1.00  0.00    -0.206 F 
HETATM   18  C13 UNL     1      24.858  -0.829  54.042  1.00  0.00     0.038 C 
HETATM   19  C14 UNL     1      26.060  -0.801  53.528  1.00  0.00    -0.020 C 
HETATM   20  C15 UNL     1      26.112  -0.290  52.135  1.00  0.00     0.054 C 
HETATM   21  C16 UNL     1      26.986   0.940  52.122  1.00  0.00    -0.023 C 
HETATM   22  C17 UNL     1      26.659   2.169  51.851  1.00  0.00    -0.001 C 
HETATM   23  C18 UNL     1      25.321   2.556  51.508  1.00  0.00     0.039 C 
HETATM   24  C19 UNL     1      24.219   3.173  51.177  1.00  0.00     0.116 C 
HETATM   25  F2  UNL     1      25.137   4.212  51.171  1.00  0.00    -0.209 F 
HETATM   26  H5  UNL     1      22.020   2.628  49.594  1.00  0.00     0.162 HD
HETATM   27  H9  UNL     1      20.329   0.944  49.427  1.00  0.00     0.161 HD
ENDROOT
TORSDOF 0
ENDMDL
MODEL 5
REMARK VINA RESULT:      -8.6      3.343      5.910
REMARK  0 active torsions:
REMARK  status: ('A' for Active; 'I' for Inactive)
ROOT
HETATM    1  C1  UNL     1      18.972   2.125  51.560  1.00  0.00     0.039 C 
HETATM    2  C2  UNL     1      20.387   1.763  51.059  1.00  0.00     0.141 C 
HETATM    3  N1  UNL     1      21.293   2.859  51.197  1.00  0.00    -0.364 N 
HETATM    4  C3  UNL     1      22.490   3.040  50.492  1.00  0.00     0.126 C 
HETATM    5  N2  UNL     1      21.891   3.994  49.860  1.00  0.00    -0.225 NA
HETATM    6  C4  UNL     1      22.372   4.826  48.864  1.00  0.00     0.230 C 
HETATM    7  N3  UNL     1      22.991   5.892  49.139  1.00  0.00    -0.263 NA
HETATM    8  C5  UNL     1      23.265   6.359  50.471  1.00  0.00     0.272 C 
HETATM    9  N4  UNL     1      23.287   5.260  51.375  1.00  0.00    -0.371 N 
HETATM   10  C6  UNL     1      23.798   4.053  51.790  1.00  0.00     0.037 C 
HETATM   11  C7  UNL     1      24.526   3.941  50.652  1.00  0.00     0.006 C 
HETATM   12  C8  UNL     1      23.850   2.956  49.970  1.00  0.00     0.065 C 
HETATM   13  C9  UNL     1      23.765   2.974  52.714  1.00  0.00     0.013 C 
HETATM   14  C10 UNL     1      24.723   2.140  52.428  1.00  0.00     0.047 C 
HETATM   15  C11 UNL     1      25.639   1.040  52.397  1.00  0.00     0.025 C 
HETATM   16  C12 UNL     1      26.079  -0.112  52.848  1.00  0.00     0.113 C 
HETATM   17  F1  UNL     1      27.167  -0.472  52.136  1.00  0.00    -0.206 F 
HETATM   18  C13 UNL     1      25.224  -0.690  53.850  1.00  0.00     0.038 C 
HETATM   19  C14 UNL     1      24.487  -1.263  54.766  1.00  0.00    -0.020 C 
HETATM   20  C15 UNL     1      23.247  -0.519  55.099  1.00  0.00     0.054 C 
HETATM   21  C16 UNL     1      22.071  -1.410  54.787  1.00  0.00    -0.023 C 
HETATM   22  C17 UNL     1      21.135  -1.245  53.899  1.00  0.00    -0.001 C 
HETATM   23  C18 UNL     1      21.093  -0.109  53.023  1.00  0.00     0.039 C 
HETATM   24  C19 UNL     1      20.815   0.796  52.125  1.00  0.00     0.116 C 
HETATM   25  F2  UNL     1      19.764  -0.093  51.962  1.00  0.00    -0.209 F 
HETATM   26  H5  UNL     1      20.960   3.551  51.950  1.00  0.00     0.162 HD
HETATM   27  H9  UNL     1      22.621   5.258  52.177  1.00  0.00     0.161 HD
ENDROOT
TORSDOF 0
ENDMDL
MODEL 6
REMARK VINA RESULT:      -8.4      8.218     11.057
REMARK  0 active torsions:
REMARK  status: ('A' for Active; 'I' for Inactive)
ROOT
HETATM    1  C1  UNL     1      34.898   9.190  46.116  1.00  0.00     0.039 C 
HETATM    2  C2  UNL     1      33.668   8.276  45.927  1.00  0.00     0.141 C 
HETATM    3  N1  UNL     1      33.769   7.085  46.709  1.00  0.00    -0.364 N 
HETATM    4  C3  UNL     1      33.085   5.884  46.484  1.00  0.00     0.126 C 
HETATM    5  N2  UNL     1      34.221   5.389  46.116  1.00  0.00    -0.225 NA
HETATM    6  C4  UNL     1      34.523   4.111  45.679  1.00  0.00     0.230 C 
HETATM    7  N3  UNL     1      34.799   3.186  46.492  1.00  0.00    -0.263 NA
HETATM    8  C5  UNL     1      34.834   3.335  47.921  1.00  0.00     0.272 C 
HETATM    9  N4  UNL     1      33.992   4.413  48.316  1.00  0.00    -0.371 N 
HETATM   10  C6  UNL     1      32.760   5.019  48.372  1.00  0.00     0.037 C 
HETATM   11  C7  UNL     1      32.240   4.099  47.524  1.00  0.00     0.006 C 
HETATM   12  C8  UNL     1      32.089   4.824  46.365  1.00  0.00     0.065 C 
HETATM   13  C9  UNL     1      31.970   6.129  48.778  1.00  0.00     0.013 C 
HETATM   14  C10 UNL     1      30.725   5.898  48.476  1.00  0.00     0.047 C 
HETATM   15  C11 UNL     1      29.308   5.974  48.290  1.00  0.00     0.025 C 
HETATM   16  C12 UNL     1      28.161   6.609  48.380  1.00  0.00     0.113 C 
HETATM   17  F1  UNL     1      27.182   5.807  47.914  1.00  0.00    -0.206 F 
HETATM   18  C13 UNL     1      28.304   7.972  48.814  1.00  0.00     0.038 C 
HETATM   19  C14 UNL     1      28.371   9.218  49.207  1.00  0.00    -0.020 C 
HETATM   20  C15 UNL     1      29.752   9.707  49.438  1.00  0.00     0.054 C 
HETATM   21  C16 UNL     1      29.999  10.865  48.504  1.00  0.00    -0.023 C 
HETATM   22  C17 UNL     1      30.847  10.954  47.522  1.00  0.00    -0.001 C 
HETATM   23  C18 UNL     1      31.726   9.879  47.160  1.00  0.00     0.039 C 
HETATM   24  C19 UNL     1      32.616   9.087  46.627  1.00  0.00     0.116 C 
HETATM   25  F2  UNL     1      32.764  10.232  45.860  1.00  0.00    -0.209 F 
HETATM   26  H5  UNL     1      34.436   7.219  47.544  1.00  0.00     0.162 HD
HETATM   27  H9  UNL     1      34.412   5.209  48.842  1.00  0.00     0.161 HD
ENDROOT
TORSDOF 0
ENDMDL
MODEL 7
REMARK VINA RESULT:      -8.3      3.691      6.426
REMARK  0 active torsions:
REMARK  status: ('A' for Active; 'I' for Inactive)
ROOT
HETATM    1  C1  UNL     1      19.663   2.348  52.332  1.00  0.00     0.039 C 
HETATM    2  C2  UNL     1      20.657   2.681  51.199  1.00  0.00     0.141 C 
HETATM    3  N1  UNL     1      20.977   4.073  51.167  1.00  0.00    -0.364 N 
HETATM    4  C3  UNL     1      21.484   4.783  50.071  1.00  0.00     0.126 C 
HETATM    5  N2  UNL     1      20.324   5.347  49.992  1.00  0.00    -0.225 NA
HETATM    6  C4  UNL     1      19.870   6.301  49.099  1.00  0.00     0.230 C 
HETATM    7  N3  UNL     1      20.048   7.534  49.305  1.00  0.00    -0.263 NA
HETATM    8  C5  UNL     1      20.720   8.083  50.451  1.00  0.00     0.272 C 
HETATM    9  N4  UNL     1      21.627   7.125  50.987  1.00  0.00    -0.371 N 
HETATM   10  C6  UNL     1      22.714   6.295  50.859  1.00  0.00     0.037 C 
HETATM   11  C7  UNL     1      22.766   6.526  49.523  1.00  0.00     0.006 C 
HETATM   12  C8  UNL     1      22.312   5.336  49.005  1.00  0.00     0.065 C 
HETATM   13  C9  UNL     1      23.580   5.329  51.440  1.00  0.00     0.013 C 
HETATM   14  C10 UNL     1      24.519   5.032  50.588  1.00  0.00     0.047 C 
HETATM   15  C11 UNL     1      25.658   4.482  49.918  1.00  0.00     0.025 C 
HETATM   16  C12 UNL     1      26.688   3.667  49.864  1.00  0.00     0.113 C 
HETATM   17  F1  UNL     1      27.325   3.848  48.689  1.00  0.00    -0.206 F 
HETATM   18  C13 UNL     1      26.752   2.766  50.982  1.00  0.00     0.038 C 
HETATM   19  C14 UNL     1      26.864   1.922  51.976  1.00  0.00    -0.020 C 
HETATM   20  C15 UNL     1      25.767   2.008  52.972  1.00  0.00     0.054 C 
HETATM   21  C16 UNL     1      25.070   0.672  53.013  1.00  0.00    -0.023 C 
HETATM   22  C17 UNL     1      23.847   0.379  52.683  1.00  0.00    -0.001 C 
HETATM   23  C18 UNL     1      22.924   1.361  52.189  1.00  0.00     0.039 C 
HETATM   24  C19 UNL     1      21.902   2.029  51.727  1.00  0.00     0.116 C 
HETATM   25  F2  UNL     1      21.374   0.752  51.846  1.00  0.00    -0.209 F 
HETATM   26  H5  UNL     1      20.807   4.536  52.123  1.00  0.00     0.162 HD
HETATM   27  H9  UNL     1      21.505   6.819  51.976  1.00  0.00     0.161 HD
ENDROOT
TORSDOF 0
ENDMDL
MODEL 8
REMARK VINA RESULT:      -8.2      3.410      6.517
REMARK  0 active torsions:
REMARK  status: ('A' for Active; 'I' for Inactive)
ROOT
HETATM    1  C1  UNL     1      19.464   0.583  51.236  1.00  0.00     0.039 C 
HETATM    2  C2  UNL     1      20.629   0.869  50.266  1.00  0.00     0.141 C 
HETATM    3  N1  UNL     1      20.621   2.225  49.815  1.00  0.00    -0.364 N 
HETATM    4  C3  UNL     1      21.235   2.717  48.657  1.00  0.00     0.126 C 
HETATM    5  N2  UNL     1      20.046   2.856  48.171  1.00  0.00    -0.225 NA
HETATM    6  C4  UNL     1      19.652   3.336  46.934  1.00  0.00     0.230 C 
HETATM    7  N3  UNL     1      19.482   4.570  46.730  1.00  0.00    -0.263 NA
HETATM    8  C5  UNL     1      19.668   5.596  47.720  1.00  0.00     0.272 C 
HETATM    9  N4  UNL     1      20.585   5.150  48.714  1.00  0.00    -0.371 N 
HETATM   10  C6  UNL     1      21.825   4.689  49.087  1.00  0.00     0.037 C 
HETATM   11  C7  UNL     1      22.189   4.540  47.790  1.00  0.00     0.006 C 
HETATM   12  C8  UNL     1      22.178   3.173  47.640  1.00  0.00     0.065 C 
HETATM   13  C9  UNL     1      22.692   4.236  50.118  1.00  0.00     0.013 C 
HETATM   14  C10 UNL     1      23.871   4.012  49.614  1.00  0.00     0.047 C 
HETATM   15  C11 UNL     1      25.245   3.670  49.402  1.00  0.00     0.025 C 
HETATM   16  C12 UNL     1      26.406   3.227  49.829  1.00  0.00     0.113 C 
HETATM   17  F1  UNL     1      27.285   3.255  48.805  1.00  0.00    -0.206 F 
HETATM   18  C13 UNL     1      26.362   2.739  51.180  1.00  0.00     0.038 C 
HETATM   19  C14 UNL     1      26.384   2.284  52.407  1.00  0.00    -0.020 C 
HETATM   20  C15 UNL     1      25.065   2.309  53.087  1.00  0.00     0.054 C 
HETATM   21  C16 UNL     1      24.705   0.892  53.457  1.00  0.00    -0.023 C 
HETATM   22  C17 UNL     1      23.720   0.161  53.025  1.00  0.00    -0.001 C 
HETATM   23  C18 UNL     1      22.772   0.636  52.058  1.00  0.00     0.039 C 
HETATM   24  C19 UNL     1      21.793   0.803  51.211  1.00  0.00     0.116 C 
HETATM   25  F2  UNL     1      21.557  -0.486  51.663  1.00  0.00    -0.209 F 
HETATM   26  H5  UNL     1      20.093   2.863  50.501  1.00  0.00     0.162 HD
HETATM   27  H9  UNL     1      20.268   5.112  49.706  1.00  0.00     0.161 HD
ENDROOT
TORSDOF 0
ENDMDL
MODEL 9
REMARK VINA RESULT:      -7.9      3.732      6.182
REMARK  0 active torsions:
REMARK  status: ('A' for Active; 'I' for Inactive)
ROOT
HETATM    1  C1  UNL     1      22.533  -1.097  53.257  1.00  0.00     0.039 C 
HETATM    2  C2  UNL     1      21.786   0.246  53.398  1.00  0.00     0.141 C 
HETATM    3  N1  UNL     1      22.032   1.108  52.286  1.00  0.00    -0.364 N 
HETATM    4  C3  UNL     1      21.878   2.500  52.265  1.00  0.00     0.126 C 
HETATM    5  N2  UNL     1      23.168   2.570  52.230  1.00  0.00    -0.225 NA
HETATM    6  C4  UNL     1      23.987   3.684  52.186  1.00  0.00     0.230 C 
HETATM    7  N3  UNL     1      24.295   4.232  51.091  1.00  0.00    -0.263 NA
HETATM    8  C5  UNL     1      23.849   3.786  49.799  1.00  0.00     0.272 C 
HETATM    9  N4  UNL     1      22.624   3.072  49.928  1.00  0.00    -0.371 N 
HETATM   10  C6  UNL     1      21.304   3.006  50.307  1.00  0.00     0.037 C 
HETATM   11  C7  UNL     1      21.393   4.213  50.919  1.00  0.00     0.006 C 
HETATM   12  C8  UNL     1      21.367   3.866  52.249  1.00  0.00     0.065 C 
HETATM   13  C9  UNL     1      20.112   2.241  50.426  1.00  0.00     0.013 C 
HETATM   14  C10 UNL     1      19.162   3.004  50.884  1.00  0.00     0.047 C 
HETATM   15  C11 UNL     1      17.922   3.537  51.363  1.00  0.00     0.025 C 
HETATM   16  C12 UNL     1      16.660   3.404  51.702  1.00  0.00     0.113 C 
HETATM   17  F1  UNL     1      16.183   4.606  52.085  1.00  0.00    -0.206 F 
HETATM   18  C13 UNL     1      16.212   2.037  51.686  1.00  0.00     0.038 C 
HETATM   19  C14 UNL     1      15.747   0.814  51.688  1.00  0.00    -0.020 C 
HETATM   20  C15 UNL     1      16.757  -0.219  51.347  1.00  0.00     0.054 C 
HETATM   21  C16 UNL     1      16.879  -1.156  52.522  1.00  0.00    -0.023 C 
HETATM   22  C17 UNL     1      17.904  -1.366  53.295  1.00  0.00    -0.001 C 
HETATM   23  C18 UNL     1      19.152  -0.677  53.128  1.00  0.00     0.039 C 
HETATM   24  C19 UNL     1      20.368  -0.209  53.205  1.00  0.00     0.116 C 
HETATM   25  F2  UNL     1      20.355  -1.131  54.240  1.00  0.00    -0.209 F 
HETATM   26  H5  UNL     1      22.335   0.550  51.418  1.00  0.00     0.162 HD
HETATM   27  H9  UNL     1      22.583   2.084  49.599  1.00  0.00     0.161 HD
ENDROOT
TORSDOF 0
ENDMDL
