MODEL 1
REMARK VINA RESULT:      -8.8      0.000      0.000
REMARK  8 active torsions:
REMARK  status: ('A' for Active; 'I' for Inactive)
REMARK    1  A    between atoms: C2_2  and  C3_3 
REMARK    2  A    between atoms: C3_3  and  C4_4 
REMARK    3  A    between atoms: C4_4  and  O1_5 
REMARK    4  A    between atoms: O1_5  and  C5_6 
REMARK    5  A    between atoms: C6_7  and  N1_8 
REMARK    6  A    between atoms: C7_9  and  C8_10 
REMARK    7  A    between atoms: C8_10  and  C9_11 
REMARK    8  A    between atoms: C13_16  and  C14_17 
ROOT
HETATM    1  C9  UNL     1      24.134   2.767  50.422  1.00  0.00    -0.027 C 
HETATM    2  C10 UNL     1      22.949   3.302  49.627  1.00  0.00     0.159 C 
HETATM    3  N2  UNL     1      23.215   4.747  49.829  1.00  0.00    -0.385 N 
HETATM    4  C11 UNL     1      24.612   4.803  49.459  1.00  0.00     0.040 A 
HETATM    5  C12 UNL     1      25.360   5.824  48.850  1.00  0.00     0.042 A 
HETATM    6  C13 UNL     1      26.722   5.660  48.576  1.00  0.00    -0.024 A 
HETATM    7  C20 UNL     1      27.295   4.462  48.927  1.00  0.00     0.013 A 
HETATM    8  C21 UNL     1      26.562   3.460  49.524  1.00  0.00     0.015 A 
HETATM    9  C22 UNL     1      25.206   3.589  49.812  1.00  0.00    -0.002 A 
HETATM   10  H15 UNL     1      22.697   5.610  50.135  1.00  0.00     0.160 HD
ENDROOT
BRANCH   1  11
HETATM   11  C8  UNL     1      24.357   1.881  51.355  1.00  0.00     0.023 C 
BRANCH  11  12
HETATM   12  C7  UNL     1      24.834   1.115  52.491  1.00  0.00    -0.010 A 
HETATM   13  C6  UNL     1      26.042   1.624  53.119  1.00  0.00     0.065 A 
HETATM   14  C5  UNL     1      26.299   0.850  54.132  1.00  0.00     0.076 A 
HETATM   15  C24 UNL     1      25.281  -0.223  54.241  1.00  0.00     0.095 A 
HETATM   16  C23 UNL     1      24.375   0.049  53.123  1.00  0.00    -0.006 A 
BRANCH  13  17
HETATM   17  N1  UNL     1      27.051   2.592  53.110  1.00  0.00    -0.396 N 
HETATM   18  H10 UNL     1      27.660   2.869  53.908  1.00  0.00     0.156 HD
HETATM   19  H11 UNL     1      27.117   3.025  52.142  1.00  0.00     0.156 HD
ENDBRANCH  13  17
BRANCH  14  20
HETATM   20  O1  UNL     1      27.338   0.911  55.050  1.00  0.00    -0.353 OA
BRANCH  20  21
HETATM   21  C4  UNL     1      28.386  -0.024  55.101  1.00  0.00     0.175 C 
BRANCH  21  22
HETATM   22  C3  UNL     1      29.352   0.380  53.979  1.00  0.00     0.026 C 
BRANCH  22  23
HETATM   23  C2  UNL     1      30.049  -0.838  53.422  1.00  0.00    -0.002 C 
HETATM   24  C1  UNL     1      29.058  -1.957  53.230  1.00  0.00     0.005 C 
ENDBRANCH  22  23
ENDBRANCH  21  22
ENDBRANCH  20  21
ENDBRANCH  14  20
ENDBRANCH  11  12
ENDBRANCH   1  11
BRANCH   6  25
HETATM   25  C14 UNL     1      27.455   6.746  47.944  1.00  0.00    -0.026 A 
HETATM   26  C15 UNL     1      28.830   6.565  47.784  1.00  0.00     0.012 A 
HETATM   27  C16 UNL     1      29.569   7.567  47.190  1.00  0.00     0.001 A 
HETATM   28  C17 UNL     1      28.961   8.733  46.758  1.00  0.00     0.000 A 
HETATM   29  C18 UNL     1      27.611   8.939  46.903  1.00  0.00     0.001 A 
HETATM   30  C19 UNL     1      26.884   7.920  47.503  1.00  0.00     0.012 A 
ENDBRANCH   6  25
TORSDOF 8
ENDMDL
MODEL 2
REMARK VINA RESULT:      -8.5      6.003      9.606
REMARK  8 active torsions:
REMARK  status: ('A' for Active; 'I' for Inactive)
REMARK    1  A    between atoms: C2_2  and  C3_3 
REMARK    2  A    between atoms: C3_3  and  C4_4 
REMARK    3  A    between atoms: C4_4  and  O1_5 
REMARK    4  A    between atoms: O1_5  and  C5_6 
REMARK    5  A    between atoms: C6_7  and  N1_8 
REMARK    6  A    between atoms: C7_9  and  C8_10 
REMARK    7  A    between atoms: C8_10  and  C9_11 
REMARK    8  A    between atoms: C13_16  and  C14_17 
ROOT
HETATM    1  C9  UNL     1      21.407  -0.084  53.624  1.00  0.00    -0.027 C 
HETATM    2  C10 UNL     1      21.489  -0.342  55.125  1.00  0.00     0.159 C 
HETATM    3  N2  UNL     1      22.545  -1.382  55.087  1.00  0.00    -0.385 N 
HETATM    4  C11 UNL     1      23.527  -0.717  54.259  1.00  0.00     0.040 A 
HETATM    5  C12 UNL     1      24.930  -0.784  54.268  1.00  0.00     0.042 A 
HETATM    6  C13 UNL     1      25.697  -0.041  53.364  1.00  0.00    -0.024 A 
HETATM    7  C20 UNL     1      25.022   0.755  52.471  1.00  0.00     0.013 A 
HETATM    8  C21 UNL     1      23.646   0.822  52.463  1.00  0.00     0.015 A 
HETATM    9  C22 UNL     1      22.851   0.095  53.346  1.00  0.00    -0.002 A 
HETATM   10  H15 UNL     1      22.715  -2.348  55.467  1.00  0.00     0.160 HD
ENDROOT
BRANCH   1  11
HETATM   11  C8  UNL     1      20.485   0.006  52.704  1.00  0.00     0.023 C 
BRANCH  11  12
HETATM   12  C7  UNL     1      19.270  -0.038  51.913  1.00  0.00    -0.010 A 
HETATM   13  C6  UNL     1      18.139  -0.694  52.549  1.00  0.00     0.065 A 
HETATM   14  C5  UNL     1      17.136  -0.605  51.725  1.00  0.00     0.076 A 
HETATM   15  C24 UNL     1      17.536   0.113  50.490  1.00  0.00     0.095 A 
HETATM   16  C23 UNL     1      18.945   0.437  50.723  1.00  0.00    -0.006 A 
BRANCH  13  17
HETATM   17  N1  UNL     1      17.657  -1.378  53.668  1.00  0.00    -0.396 N 
HETATM   18  H10 UNL     1      18.169  -2.081  54.242  1.00  0.00     0.156 HD
HETATM   19  H11 UNL     1      16.659  -1.073  53.867  1.00  0.00     0.156 HD
ENDBRANCH  13  17
BRANCH  14  20
HETATM   20  O1  UNL     1      15.836  -1.070  51.862  1.00  0.00    -0.353 OA
BRANCH  20  21
HETATM   21  C4  UNL     1      14.701  -0.251  51.735  1.00  0.00     0.175 C 
BRANCH  21  22
HETATM   22  C3  UNL     1      14.600   0.522  53.057  1.00  0.00     0.026 C 
BRANCH  22  23
HETATM   23  C2  UNL     1      14.230   1.962  52.797  1.00  0.00    -0.002 C 
HETATM   24  C1  UNL     1      15.391   2.688  52.169  1.00  0.00     0.005 C 
ENDBRANCH  22  23
ENDBRANCH  21  22
ENDBRANCH  20  21
ENDBRANCH  14  20
ENDBRANCH  11  12
ENDBRANCH   1  11
BRANCH   6  25
HETATM   25  C14 UNL     1      27.147  -0.142  53.411  1.00  0.00    -0.026 A 
HETATM   26  C15 UNL     1      27.699  -1.392  53.123  1.00  0.00     0.012 A 
HETATM   27  C16 UNL     1      29.070  -1.539  53.155  1.00  0.00     0.001 A 
HETATM   28  C17 UNL     1      29.889  -0.467  53.465  1.00  0.00     0.000 A 
HETATM   29  C18 UNL     1      29.374   0.774  53.752  1.00  0.00     0.001 A 
HETATM   30  C19 UNL     1      27.993   0.902  53.716  1.00  0.00     0.012 A 
ENDBRANCH   6  25
TORSDOF 8
ENDMDL
MODEL 3
REMARK VINA RESULT:      -8.2      4.234      6.097
REMARK  8 active torsions:
REMARK  status: ('A' for Active; 'I' for Inactive)
REMARK    1  A    between atoms: C2_2  and  C3_3 
REMARK    2  A    between atoms: C3_3  and  C4_4 
REMARK    3  A    between atoms: C4_4  and  O1_5 
REMARK    4  A    between atoms: O1_5  and  C5_6 
REMARK    5  A    between atoms: C6_7  and  N1_8 
REMARK    6  A    between atoms: C7_9  and  C8_10 
REMARK    7  A    between atoms: C8_10  and  C9_11 
REMARK    8  A    between atoms: C13_16  and  C14_17 
ROOT
HETATM    1  C9  UNL     1      24.289   1.404  52.130  1.00  0.00    -0.027 C 
HETATM    2  C10 UNL     1      25.626   1.198  52.832  1.00  0.00     0.159 C 
HETATM    3  N2  UNL     1      26.487   1.231  51.625  1.00  0.00    -0.385 N 
HETATM    4  C11 UNL     1      26.005   2.443  51.001  1.00  0.00     0.040 A 
HETATM    5  C12 UNL     1      26.671   3.400  50.217  1.00  0.00     0.042 A 
HETATM    6  C13 UNL     1      25.999   4.517  49.710  1.00  0.00    -0.024 A 
HETATM    7  C20 UNL     1      24.664   4.639  50.010  1.00  0.00     0.013 A 
HETATM    8  C21 UNL     1      24.011   3.702  50.779  1.00  0.00     0.015 A 
HETATM    9  C22 UNL     1      24.647   2.577  51.300  1.00  0.00    -0.002 A 
HETATM   10  H15 UNL     1      27.253   0.658  51.186  1.00  0.00     0.160 HD
ENDROOT
BRANCH   1  11
HETATM   11  C8  UNL     1      23.103   0.859  52.124  1.00  0.00     0.023 C 
BRANCH  11  12
HETATM   12  C7  UNL     1      21.694   0.542  51.977  1.00  0.00    -0.010 A 
HETATM   13  C6  UNL     1      21.080  -0.099  53.128  1.00  0.00     0.065 A 
HETATM   14  C5  UNL     1      19.822  -0.270  52.840  1.00  0.00     0.076 A 
HETATM   15  C24 UNL     1      19.522   0.243  51.482  1.00  0.00     0.095 A 
HETATM   16  C23 UNL     1      20.813   0.751  51.014  1.00  0.00    -0.006 A 
BRANCH  13  17
HETATM   17  N1  UNL     1      21.252  -0.609  54.418  1.00  0.00    -0.396 N 
HETATM   18  H10 UNL     1      21.528  -0.078  55.270  1.00  0.00     0.156 HD
HETATM   19  H11 UNL     1      21.054  -1.652  54.415  1.00  0.00     0.156 HD
ENDBRANCH  13  17
BRANCH  14  20
HETATM   20  O1  UNL     1      18.810  -0.835  53.604  1.00  0.00    -0.353 OA
BRANCH  20  21
HETATM   21  C4  UNL     1      17.744  -1.571  53.059  1.00  0.00     0.175 C 
BRANCH  21  22
HETATM   22  C3  UNL     1      17.757  -2.918  53.793  1.00  0.00     0.026 C 
BRANCH  22  23
HETATM   23  C2  UNL     1      16.768  -3.869  53.163  1.00  0.00    -0.002 C 
HETATM   24  C1  UNL     1      16.361  -4.925  54.159  1.00  0.00     0.005 C 
ENDBRANCH  22  23
ENDBRANCH  21  22
ENDBRANCH  20  21
ENDBRANCH  14  20
ENDBRANCH  11  12
ENDBRANCH   1  11
BRANCH   6  25
HETATM   25  C14 UNL     1      26.731   5.480  48.903  1.00  0.00    -0.026 A 
HETATM   26  C15 UNL     1      28.073   5.193  48.645  1.00  0.00     0.012 A 
HETATM   27  C16 UNL     1      28.809   6.078  47.884  1.00  0.00     0.001 A 
HETATM   28  C17 UNL     1      28.232   7.231  47.383  1.00  0.00     0.000 A 
HETATM   29  C18 UNL     1      26.914   7.539  47.621  1.00  0.00     0.001 A 
HETATM   30  C19 UNL     1      26.190   6.638  48.388  1.00  0.00     0.012 A 
ENDBRANCH   6  25
TORSDOF 8
ENDMDL
MODEL 4
REMARK VINA RESULT:      -8.1      3.282      8.125
REMARK  8 active torsions:
REMARK  status: ('A' for Active; 'I' for Inactive)
REMARK    1  A    between atoms: C2_2  and  C3_3 
REMARK    2  A    between atoms: C3_3  and  C4_4 
REMARK    3  A    between atoms: C4_4  and  O1_5 
REMARK    4  A    between atoms: O1_5  and  C5_6 
REMARK    5  A    between atoms: C6_7  and  N1_8 
REMARK    6  A    between atoms: C7_9  and  C8_10 
REMARK    7  A    between atoms: C8_10  and  C9_11 
REMARK    8  A    between atoms: C13_16  and  C14_17 
ROOT
HETATM    1  C9  UNL     1      22.031   1.673  52.719  1.00  0.00    -0.027 C 
HETATM    2  C10 UNL     1      21.520   0.585  53.656  1.00  0.00     0.159 C 
HETATM    3  N2  UNL     1      22.249  -0.554  53.047  1.00  0.00    -0.385 N 
HETATM    4  C11 UNL     1      23.585  -0.002  52.995  1.00  0.00     0.040 A 
HETATM    5  C12 UNL     1      24.840  -0.622  53.111  1.00  0.00     0.042 A 
HETATM    6  C13 UNL     1      26.025   0.117  53.031  1.00  0.00    -0.024 A 
HETATM    7  C20 UNL     1      25.910   1.472  52.835  1.00  0.00     0.013 A 
HETATM    8  C21 UNL     1      24.680   2.081  52.721  1.00  0.00     0.015 A 
HETATM    9  C22 UNL     1      23.480   1.377  52.795  1.00  0.00    -0.002 A 
HETATM   10  H15 UNL     1      22.046  -1.525  52.698  1.00  0.00     0.160 HD
ENDROOT
BRANCH   1  11
HETATM   11  C8  UNL     1      21.537   2.646  52.002  1.00  0.00     0.023 C 
BRANCH  11  12
HETATM   12  C7  UNL     1      21.198   3.915  51.384  1.00  0.00    -0.010 A 
HETATM   13  C6  UNL     1      22.080   5.022  51.717  1.00  0.00     0.065 A 
HETATM   14  C5  UNL     1      21.657   6.057  51.051  1.00  0.00     0.076 A 
HETATM   15  C24 UNL     1      20.468   5.705  50.237  1.00  0.00     0.095 A 
HETATM   16  C23 UNL     1      20.261   4.286  50.530  1.00  0.00    -0.006 A 
BRANCH  13  17
HETATM   17  N1  UNL     1      23.193   5.459  52.440  1.00  0.00    -0.396 N 
HETATM   18  H10 UNL     1      23.634   4.987  53.258  1.00  0.00     0.156 HD
HETATM   19  H11 UNL     1      23.545   6.373  52.030  1.00  0.00     0.156 HD
ENDBRANCH  13  17
BRANCH  14  20
HETATM   20  O1  UNL     1      22.156   7.351  51.020  1.00  0.00    -0.353 OA
BRANCH  20  21
HETATM   21  C4  UNL     1      22.514   8.018  49.836  1.00  0.00     0.175 C 
BRANCH  21  22
HETATM   22  C3  UNL     1      23.978   7.640  49.577  1.00  0.00     0.026 C 
BRANCH  22  23
HETATM   23  C2  UNL     1      24.073   6.659  48.434  1.00  0.00    -0.002 C 
HETATM   24  C1  UNL     1      24.614   5.341  48.928  1.00  0.00     0.005 C 
ENDBRANCH  22  23
ENDBRANCH  21  22
ENDBRANCH  20  21
ENDBRANCH  14  20
ENDBRANCH  11  12
ENDBRANCH   1  11
BRANCH   6  25
HETATM   25  C14 UNL     1      27.301  -0.570  53.158  1.00  0.00    -0.026 A 
HETATM   26  C15 UNL     1      27.316  -1.929  52.842  1.00  0.00     0.012 A 
HETATM   27  C16 UNL     1      28.503  -2.624  52.947  1.00  0.00     0.001 A 
HETATM   28  C17 UNL     1      29.662  -1.988  53.357  1.00  0.00     0.000 A 
HETATM   29  C18 UNL     1      29.676  -0.652  53.674  1.00  0.00     0.001 A 
HETATM   30  C19 UNL     1      28.473   0.031  53.563  1.00  0.00     0.012 A 
ENDBRANCH   6  25
TORSDOF 8
ENDMDL
MODEL 5
REMARK VINA RESULT:      -8.1      5.714      9.312
REMARK  8 active torsions:
REMARK  status: ('A' for Active; 'I' for Inactive)
REMARK    1  A    between atoms: C2_2  and  C3_3 
REMARK    2  A    between atoms: C3_3  and  C4_4 
REMARK    3  A    between atoms: C4_4  and  O1_5 
REMARK    4  A    between atoms: O1_5  and  C5_6 
REMARK    5  A    between atoms: C6_7  and  N1_8 
REMARK    6  A    between atoms: C7_9  and  C8_10 
REMARK    7  A    between atoms: C8_10  and  C9_11 
REMARK    8  A    between atoms: C13_16  and  C14_17 
ROOT
HETATM    1  C9  UNL     1      21.425   0.027  53.549  1.00  0.00    -0.027 C 
HETATM    2  C10 UNL     1      21.478  -0.374  55.018  1.00  0.00     0.159 C 
HETATM    3  N2  UNL     1      22.522  -1.420  54.897  1.00  0.00    -0.385 N 
HETATM    4  C11 UNL     1      23.527  -0.692  54.153  1.00  0.00     0.040 A 
HETATM    5  C12 UNL     1      24.928  -0.777  54.177  1.00  0.00     0.042 A 
HETATM    6  C13 UNL     1      25.718   0.039  53.361  1.00  0.00    -0.024 A 
HETATM    7  C20 UNL     1      25.067   0.926  52.538  1.00  0.00     0.013 A 
HETATM    8  C21 UNL     1      23.693   1.010  52.514  1.00  0.00     0.015 A 
HETATM    9  C22 UNL     1      22.875   0.213  53.312  1.00  0.00    -0.002 A 
HETATM   10  H15 UNL     1      22.675  -2.420  55.186  1.00  0.00     0.160 HD
ENDROOT
BRANCH   1  11
HETATM   11  C8  UNL     1      20.520   0.216  52.627  1.00  0.00     0.023 C 
BRANCH  11  12
HETATM   12  C7  UNL     1      19.427   0.684  51.794  1.00  0.00    -0.010 A 
HETATM   13  C6  UNL     1      19.327   2.128  51.658  1.00  0.00     0.065 A 
HETATM   14  C5  UNL     1      18.330   2.365  50.855  1.00  0.00     0.076 A 
HETATM   15  C24 UNL     1      17.705   1.096  50.409  1.00  0.00     0.095 A 
HETATM   16  C23 UNL     1      18.502   0.067  51.081  1.00  0.00    -0.006 A 
BRANCH  13  17
HETATM   17  N1  UNL     1      19.840   3.379  52.012  1.00  0.00    -0.396 N 
HETATM   18  H10 UNL     1      20.523   3.584  52.771  1.00  0.00     0.156 HD
HETATM   19  H11 UNL     1      19.426   4.124  51.378  1.00  0.00     0.156 HD
ENDBRANCH  13  17
BRANCH  14  20
HETATM   20  O1  UNL     1      17.828   3.577  50.404  1.00  0.00    -0.353 OA
BRANCH  20  21
HETATM   21  C4  UNL     1      16.489   3.972  50.567  1.00  0.00     0.175 C 
BRANCH  21  22
HETATM   22  C3  UNL     1      16.322   4.253  52.066  1.00  0.00     0.026 C 
BRANCH  22  23
HETATM   23  C2  UNL     1      15.210   3.409  52.638  1.00  0.00    -0.002 C 
HETATM   24  C1  UNL     1      14.290   4.263  53.473  1.00  0.00     0.005 C 
ENDBRANCH  22  23
ENDBRANCH  21  22
ENDBRANCH  20  21
ENDBRANCH  14  20
ENDBRANCH  11  12
ENDBRANCH   1  11
BRANCH   6  25
HETATM   25  C14 UNL     1      27.166  -0.086  53.420  1.00  0.00    -0.026 A 
HETATM   26  C15 UNL     1      27.882   1.061  53.769  1.00  0.00     0.012 A 
HETATM   27  C16 UNL     1      29.258   0.993  53.838  1.00  0.00     0.001 A 
HETATM   28  C17 UNL     1      29.922  -0.190  53.568  1.00  0.00     0.000 A 
HETATM   29  C18 UNL     1      29.244  -1.335  53.223  1.00  0.00     0.001 A 
HETATM   30  C19 UNL     1      27.861  -1.247  53.158  1.00  0.00     0.012 A 
ENDBRANCH   6  25
TORSDOF 8
ENDMDL
MODEL 6
REMARK VINA RESULT:      -8.0      3.965      8.027
REMARK  8 active torsions:
REMARK  status: ('A' for Active; 'I' for Inactive)
REMARK    1  A    between atoms: C2_2  and  C3_3 
REMARK    2  A    between atoms: C3_3  and  C4_4 
REMARK    3  A    between atoms: C4_4  and  O1_5 
REMARK    4  A    between atoms: O1_5  and  C5_6 
REMARK    5  A    between atoms: C6_7  and  N1_8 
REMARK    6  A    between atoms: C7_9  and  C8_10 
REMARK    7  A    between atoms: C8_10  and  C9_11 
REMARK    8  A    between atoms: C13_16  and  C14_17 
ROOT
HETATM    1  C9  UNL     1      27.714   6.838  48.397  1.00  0.00    -0.027 C 
HETATM    2  C10 UNL     1      26.761   7.904  48.925  1.00  0.00     0.159 C 
HETATM    3  N2  UNL     1      25.523   7.388  48.293  1.00  0.00    -0.385 N 
HETATM    4  C11 UNL     1      25.590   6.001  48.694  1.00  0.00     0.040 A 
HETATM    5  C12 UNL     1      24.572   5.079  48.988  1.00  0.00     0.042 A 
HETATM    6  C13 UNL     1      24.868   3.766  49.365  1.00  0.00    -0.024 A 
HETATM    7  C20 UNL     1      26.195   3.415  49.436  1.00  0.00     0.013 A 
HETATM    8  C21 UNL     1      27.194   4.318  49.149  1.00  0.00     0.015 A 
HETATM    9  C22 UNL     1      26.936   5.633  48.769  1.00  0.00    -0.002 A 
HETATM   10  H15 UNL     1      24.727   7.749  47.707  1.00  0.00     0.160 HD
ENDROOT
BRANCH   1  11
HETATM   11  C8  UNL     1      28.874   6.783  47.801  1.00  0.00     0.023 C 
BRANCH  11  12
HETATM   12  C7  UNL     1      30.278   6.815  47.437  1.00  0.00    -0.010 A 
HETATM   13  C6  UNL     1      31.195   6.331  48.457  1.00  0.00     0.065 A 
HETATM   14  C5  UNL     1      32.392   6.392  47.951  1.00  0.00     0.076 A 
HETATM   15  C24 UNL     1      32.348   6.921  46.566  1.00  0.00     0.095 A 
HETATM   16  C23 UNL     1      30.922   7.160  46.336  1.00  0.00    -0.006 A 
BRANCH  13  17
HETATM   17  N1  UNL     1      31.349   5.822  49.749  1.00  0.00    -0.396 N 
HETATM   18  H10 UNL     1      31.578   4.841  50.013  1.00  0.00     0.156 HD
HETATM   19  H11 UNL     1      31.197   6.600  50.456  1.00  0.00     0.156 HD
ENDBRANCH  13  17
BRANCH  14  20
HETATM   20  O1  UNL     1      33.610   6.044  48.518  1.00  0.00    -0.353 OA
BRANCH  20  21
HETATM   21  C4  UNL     1      34.705   5.570  47.776  1.00  0.00     0.175 C 
BRANCH  21  22
HETATM   22  C3  UNL     1      34.831   4.083  48.132  1.00  0.00     0.026 C 
BRANCH  22  23
HETATM   23  C2  UNL     1      34.716   3.234  46.888  1.00  0.00    -0.002 C 
HETATM   24  C1  UNL     1      34.968   4.075  45.664  1.00  0.00     0.005 C 
ENDBRANCH  22  23
ENDBRANCH  21  22
ENDBRANCH  20  21
ENDBRANCH  14  20
ENDBRANCH  11  12
ENDBRANCH   1  11
BRANCH   6  25
HETATM   25  C14 UNL     1      23.780   2.847  49.660  1.00  0.00    -0.026 A 
HETATM   26  C15 UNL     1      23.766   2.277  50.934  1.00  0.00     0.012 A 
HETATM   27  C16 UNL     1      22.753   1.400  51.260  1.00  0.00     0.001 A 
HETATM   28  C17 UNL     1      21.765   1.087  50.343  1.00  0.00     0.000 A 
HETATM   29  C18 UNL     1      21.753   1.633  49.083  1.00  0.00     0.001 A 
HETATM   30  C19 UNL     1      22.780   2.513  48.772  1.00  0.00     0.012 A 
ENDBRANCH   6  25
TORSDOF 8
ENDMDL
MODEL 7
REMARK VINA RESULT:      -7.9      1.518      2.588
REMARK  8 active torsions:
REMARK  status: ('A' for Active; 'I' for Inactive)
REMARK    1  A    between atoms: C2_2  and  C3_3 
REMARK    2  A    between atoms: C3_3  and  C4_4 
REMARK    3  A    between atoms: C4_4  and  O1_5 
REMARK    4  A    between atoms: O1_5  and  C5_6 
REMARK    5  A    between atoms: C6_7  and  N1_8 
REMARK    6  A    between atoms: C7_9  and  C8_10 
REMARK    7  A    between atoms: C8_10  and  C9_11 
REMARK    8  A    between atoms: C13_16  and  C14_17 
ROOT
HETATM    1  C9  UNL     1      24.872   5.156  49.309  1.00  0.00    -0.027 C 
HETATM    2  C10 UNL     1      24.164   6.359  48.697  1.00  0.00     0.159 C 
HETATM    3  N2  UNL     1      25.023   7.412  49.290  1.00  0.00    -0.385 N 
HETATM    4  C11 UNL     1      26.330   6.899  48.944  1.00  0.00     0.040 A 
HETATM    5  C12 UNL     1      27.527   7.566  48.637  1.00  0.00     0.042 A 
HETATM    6  C13 UNL     1      28.692   6.859  48.323  1.00  0.00    -0.024 A 
HETATM    7  C20 UNL     1      28.617   5.487  48.327  1.00  0.00     0.013 A 
HETATM    8  C21 UNL     1      27.443   4.832  48.627  1.00  0.00     0.015 A 
HETATM    9  C22 UNL     1      26.265   5.503  48.945  1.00  0.00    -0.002 A 
HETATM   10  H15 UNL     1      24.914   8.312  49.824  1.00  0.00     0.160 HD
ENDROOT
BRANCH   1  11
HETATM   11  C8  UNL     1      24.553   4.070  49.960  1.00  0.00     0.023 C 
BRANCH  11  12
HETATM   12  C7  UNL     1      24.515   2.877  50.785  1.00  0.00    -0.010 A 
HETATM   13  C6  UNL     1      25.775   2.519  51.415  1.00  0.00     0.065 A 
HETATM   14  C5  UNL     1      25.549   1.463  52.140  1.00  0.00     0.076 A 
HETATM   15  C24 UNL     1      24.129   1.050  52.037  1.00  0.00     0.095 A 
HETATM   16  C23 UNL     1      23.549   2.044  51.130  1.00  0.00    -0.006 A 
BRANCH  13  17
HETATM   17  N1  UNL     1      27.129   2.820  51.586  1.00  0.00    -0.396 N 
HETATM   18  H10 UNL     1      27.814   2.311  52.183  1.00  0.00     0.156 HD
HETATM   19  H11 UNL     1      27.378   3.673  51.004  1.00  0.00     0.156 HD
ENDBRANCH  13  17
BRANCH  14  20
HETATM   20  O1  UNL     1      26.422   0.736  52.939  1.00  0.00    -0.353 OA
BRANCH  20  21
HETATM   21  C4  UNL     1      26.449   0.824  54.341  1.00  0.00     0.175 C 
BRANCH  21  22
HETATM   22  C3  UNL     1      27.803   0.240  54.764  1.00  0.00     0.026 C 
BRANCH  22  23
HETATM   23  C2  UNL     1      28.737   0.169  53.580  1.00  0.00    -0.002 C 
HETATM   24  C1  UNL     1      29.752  -0.926  53.789  1.00  0.00     0.005 C 
ENDBRANCH  22  23
ENDBRANCH  21  22
ENDBRANCH  20  21
ENDBRANCH  14  20
ENDBRANCH  11  12
ENDBRANCH   1  11
BRANCH   6  25
HETATM   25  C14 UNL     1      29.908   7.594  48.013  1.00  0.00    -0.026 A 
HETATM   26  C15 UNL     1      30.644   7.155  46.911  1.00  0.00     0.012 A 
HETATM   27  C16 UNL     1      31.805   7.820  46.577  1.00  0.00     0.001 A 
HETATM   28  C17 UNL     1      32.237   8.906  47.317  1.00  0.00     0.000 A 
HETATM   29  C18 UNL     1      31.534   9.361  48.406  1.00  0.00     0.001 A 
HETATM   30  C19 UNL     1      30.369   8.679  48.728  1.00  0.00     0.012 A 
ENDBRANCH   6  25
TORSDOF 8
ENDMDL
MODEL 8
REMARK VINA RESULT:      -7.8      3.601      8.626
REMARK  8 active torsions:
REMARK  status: ('A' for Active; 'I' for Inactive)
REMARK    1  A    between atoms: C2_2  and  C3_3 
REMARK    2  A    between atoms: C3_3  and  C4_4 
REMARK    3  A    between atoms: C4_4  and  O1_5 
REMARK    4  A    between atoms: O1_5  and  C5_6 
REMARK    5  A    between atoms: C6_7  and  N1_8 
REMARK    6  A    between atoms: C7_9  and  C8_10 
REMARK    7  A    between atoms: C8_10  and  C9_11 
REMARK    8  A    between atoms: C13_16  and  C14_17 
ROOT
HETATM    1  C9  UNL     1      24.250   4.454  49.150  1.00  0.00    -0.027 C 
HETATM    2  C10 UNL     1      22.933   4.257  48.408  1.00  0.00     0.159 C 
HETATM    3  N2  UNL     1      22.888   2.777  48.479  1.00  0.00    -0.385 N 
HETATM    4  C11 UNL     1      23.133   2.582  49.891  1.00  0.00     0.040 A 
HETATM    5  C12 UNL     1      22.674   1.591  50.775  1.00  0.00     0.042 A 
HETATM    6  C13 UNL     1      23.039   1.597  52.125  1.00  0.00    -0.024 A 
HETATM    7  C20 UNL     1      23.863   2.611  52.550  1.00  0.00     0.013 A 
HETATM    8  C21 UNL     1      24.314   3.584  51.684  1.00  0.00     0.015 A 
HETATM    9  C22 UNL     1      23.972   3.608  50.334  1.00  0.00    -0.002 A 
HETATM   10  H15 UNL     1      22.741   1.960  47.833  1.00  0.00     0.160 HD
ENDROOT
BRANCH   1  11
HETATM   11  C8  UNL     1      25.367   5.109  48.987  1.00  0.00     0.023 C 
BRANCH  11  12
HETATM   12  C7  UNL     1      26.721   5.543  48.697  1.00  0.00    -0.010 A 
HETATM   13  C6  UNL     1      26.902   6.982  48.594  1.00  0.00     0.065 A 
HETATM   14  C5  UNL     1      28.167   7.191  48.374  1.00  0.00     0.076 A 
HETATM   15  C24 UNL     1      28.906   5.907  48.315  1.00  0.00     0.095 A 
HETATM   16  C23 UNL     1      27.865   4.902  48.540  1.00  0.00    -0.006 A 
BRANCH  13  17
HETATM   17  N1  UNL     1      26.305   8.246  48.634  1.00  0.00    -0.396 N 
HETATM   18  H10 UNL     1      25.919   8.730  49.471  1.00  0.00     0.156 HD
HETATM   19  H11 UNL     1      26.297   8.665  47.658  1.00  0.00     0.156 HD
ENDBRANCH  13  17
BRANCH  14  20
HETATM   20  O1  UNL     1      28.848   8.388  48.204  1.00  0.00    -0.353 OA
BRANCH  20  21
HETATM   21  C4  UNL     1      29.788   8.885  49.124  1.00  0.00     0.175 C 
BRANCH  21  22
HETATM   22  C3  UNL     1      30.952   9.415  48.277  1.00  0.00     0.026 C 
BRANCH  22  23
HETATM   23  C2  UNL     1      31.885   8.288  47.903  1.00  0.00    -0.002 C 
HETATM   24  C1  UNL     1      32.207   7.459  49.119  1.00  0.00     0.005 C 
ENDBRANCH  22  23
ENDBRANCH  21  22
ENDBRANCH  20  21
ENDBRANCH  14  20
ENDBRANCH  11  12
ENDBRANCH   1  11
BRANCH   6  25
HETATM   25  C14 UNL     1      22.539   0.550  53.001  1.00  0.00    -0.026 A 
HETATM   26  C15 UNL     1      21.162   0.320  52.983  1.00  0.00     0.012 A 
HETATM   27  C16 UNL     1      20.640  -0.662  53.798  1.00  0.00     0.001 A 
HETATM   28  C17 UNL     1      21.463  -1.412  54.620  1.00  0.00     0.000 A 
HETATM   29  C18 UNL     1      22.821  -1.208  54.658  1.00  0.00     0.001 A 
HETATM   30  C19 UNL     1      23.328  -0.214  53.833  1.00  0.00     0.012 A 
ENDBRANCH   6  25
TORSDOF 8
ENDMDL
MODEL 9
REMARK VINA RESULT:      -7.8      3.384      9.113
REMARK  8 active torsions:
REMARK  status: ('A' for Active; 'I' for Inactive)
REMARK    1  A    between atoms: C2_2  and  C3_3 
REMARK    2  A    between atoms: C3_3  and  C4_4 
REMARK    3  A    between atoms: C4_4  and  O1_5 
REMARK    4  A    between atoms: O1_5  and  C5_6 
REMARK    5  A    between atoms: C6_7  and  N1_8 
REMARK    6  A    between atoms: C7_9  and  C8_10 
REMARK    7  A    between atoms: C8_10  and  C9_11 
REMARK    8  A    between atoms: C13_16  and  C14_17 
ROOT
HETATM    1  C9  UNL     1      25.549   4.297  49.636  1.00  0.00    -0.027 C 
HETATM    2  C10 UNL     1      26.777   3.401  49.747  1.00  0.00     0.159 C 
HETATM    3  N2  UNL     1      26.676   3.112  51.198  1.00  0.00    -0.385 N 
HETATM    4  C11 UNL     1      25.290   2.709  51.282  1.00  0.00     0.040 A 
HETATM    5  C12 UNL     1      24.653   1.780  52.122  1.00  0.00     0.042 A 
HETATM    6  C13 UNL     1      23.279   1.540  52.028  1.00  0.00    -0.024 A 
HETATM    7  C20 UNL     1      22.579   2.249  51.081  1.00  0.00     0.013 A 
HETATM    8  C21 UNL     1      23.203   3.160  50.257  1.00  0.00     0.015 A 
HETATM    9  C22 UNL     1      24.569   3.425  50.324  1.00  0.00    -0.002 A 
HETATM   10  H15 UNL     1      27.291   3.132  52.052  1.00  0.00     0.160 HD
ENDROOT
BRANCH   1  11
HETATM   11  C8  UNL     1      25.240   5.463  49.136  1.00  0.00     0.023 C 
BRANCH  11  12
HETATM   12  C7  UNL     1      25.218   6.824  48.635  1.00  0.00    -0.010 A 
HETATM   13  C6  UNL     1      25.853   7.811  49.493  1.00  0.00     0.065 A 
HETATM   14  C5  UNL     1      25.778   8.954  48.877  1.00  0.00     0.076 A 
HETATM   15  C24 UNL     1      25.089   8.801  47.573  1.00  0.00     0.095 A 
HETATM   16  C23 UNL     1      24.771   7.373  47.519  1.00  0.00    -0.006 A 
BRANCH  13  17
HETATM   17  N1  UNL     1      26.516   8.066  50.697  1.00  0.00    -0.396 N 
HETATM   18  H10 UNL     1      26.818   7.366  51.407  1.00  0.00     0.156 HD
HETATM   19  H11 UNL     1      26.678   9.111  50.797  1.00  0.00     0.156 HD
ENDBRANCH  13  17
BRANCH  14  20
HETATM   20  O1  UNL     1      26.237  10.203  49.273  1.00  0.00    -0.353 OA
BRANCH  20  21
HETATM   21  C4  UNL     1      27.120  10.984  48.508  1.00  0.00     0.175 C 
BRANCH  21  22
HETATM   22  C3  UNL     1      28.509  10.371  48.730  1.00  0.00     0.026 C 
BRANCH  22  23
HETATM   23  C2  UNL     1      29.108   9.936  47.414  1.00  0.00    -0.002 C 
HETATM   24  C1  UNL     1      28.911   8.454  47.222  1.00  0.00     0.005 C 
ENDBRANCH  22  23
ENDBRANCH  21  22
ENDBRANCH  20  21
ENDBRANCH  14  20
ENDBRANCH  11  12
ENDBRANCH   1  11
BRANCH   6  25
HETATM   25  C14 UNL     1      22.664   0.569  52.919  1.00  0.00    -0.026 A 
HETATM   26  C15 UNL     1      21.270   0.496  52.903  1.00  0.00     0.012 A 
HETATM   27  C16 UNL     1      20.641  -0.410  53.731  1.00  0.00     0.001 A 
HETATM   28  C17 UNL     1      21.375  -1.235  54.565  1.00  0.00     0.000 A 
HETATM   29  C18 UNL     1      22.747  -1.186  54.601  1.00  0.00     0.001 A 
HETATM   30  C19 UNL     1      23.363  -0.268  53.762  1.00  0.00     0.012 A 
ENDBRANCH   6  25
TORSDOF 8
ENDMDL
