MODEL 1
REMARK VINA RESULT:      -7.0      0.000      0.000
REMARK  5 active torsions:
REMARK  status: ('A' for Active; 'I' for Inactive)
REMARK    1  A    between atoms: O1_2  and  C2_3 
REMARK    2  A    between atoms: C5_8  and  N3_9 
REMARK    3  A    between atoms: N3_9  and  C7_11 
REMARK    4  A    between atoms: C7_11  and  C8_12 
REMARK    5  A    between atoms: C16_21  and  S2_22 
ROOT
HETATM    1  C2  UNL     1      25.182  -0.035  53.067  1.00  0.00     0.116 C 
HETATM    2  C3  UNL     1      26.214   0.553  52.470  1.00  0.00     0.124 C 
HETATM    3  N1  UNL     1      26.341   1.798  52.728  1.00  0.00    -0.237 NA
HETATM    4  C4  UNL     1      25.122   2.468  52.967  1.00  0.00     0.236 C 
HETATM    5  N2  UNL     1      24.718   2.603  51.741  1.00  0.00    -0.225 NA
HETATM    6  C5  UNL     1      23.446   3.283  51.669  1.00  0.00     0.126 C 
HETATM    7  C14 UNL     1      22.619   2.496  52.315  1.00  0.00     0.052 C 
HETATM    8  C15 UNL     1      22.869   1.247  52.955  1.00  0.00     0.025 C 
HETATM    9  C16 UNL     1      23.823   0.395  53.184  1.00  0.00     0.036 C 
ENDROOT
BRANCH   6  10
HETATM   10  N3  UNL     1      23.722   4.456  50.936  1.00  0.00    -0.366 N 
HETATM   11  C6  UNL     1      23.588   5.649  51.752  1.00  0.00     0.151 C 
BRANCH  10  12
HETATM   12  C7  UNL     1      24.081   4.214  49.531  1.00  0.00     0.159 C 
BRANCH  12  13
HETATM   13  C8  UNL     1      24.994   5.249  49.032  1.00  0.00    -0.048 C 
HETATM   14  C9  UNL     1      26.282   4.993  49.012  1.00  0.00    -0.056 C 
HETATM   15  C10 UNL     1      26.815   3.682  49.483  1.00  0.00     0.048 C 
HETATM   16  C11 UNL     1      27.217   5.999  48.528  1.00  0.00     0.026 C 
HETATM   17  C12 UNL     1      27.099   7.278  48.708  1.00  0.00     0.005 C 
HETATM   18  S1  UNL     1      25.590   7.798  48.911  1.00  0.00    -0.191 SA
HETATM   19  C13 UNL     1      24.327   6.501  48.592  1.00  0.00     0.102 C 
HETATM   20  H14 UNL     1      25.379   9.192  48.683  1.00  0.00     0.096 HD
ENDBRANCH  12  13
ENDBRANCH  10  12
ENDBRANCH   6  10
BRANCH   9  21
HETATM   21  S2  UNL     1      22.982  -0.822  54.178  1.00  0.00    -0.132 SA
HETATM   22  C17 UNL     1      21.325  -0.460  54.666  1.00  0.00     0.095 C 
ENDBRANCH   9  21
BRANCH   1  23
HETATM   23  O1  UNL     1      25.901  -1.112  53.476  1.00  0.00    -0.352 OA
HETATM   24  C1  UNL     1      26.803  -1.809  52.625  1.00  0.00     0.210 C 
ENDBRANCH   1  23
TORSDOF 5
ENDMDL
MODEL 2
REMARK VINA RESULT:      -6.9      1.451      2.684
REMARK  5 active torsions:
REMARK  status: ('A' for Active; 'I' for Inactive)
REMARK    1  A    between atoms: O1_2  and  C2_3 
REMARK    2  A    between atoms: C5_8  and  N3_9 
REMARK    3  A    between atoms: N3_9  and  C7_11 
REMARK    4  A    between atoms: C7_11  and  C8_12 
REMARK    5  A    between atoms: C16_21  and  S2_22 
ROOT
HETATM    1  C2  UNL     1      23.768   0.135  53.220  1.00  0.00     0.116 C 
HETATM    2  C3  UNL     1      22.623   0.808  53.163  1.00  0.00     0.124 C 
HETATM    3  N1  UNL     1      22.329   1.264  52.006  1.00  0.00    -0.237 NA
HETATM    4  C4  UNL     1      23.447   1.604  51.214  1.00  0.00     0.236 C 
HETATM    5  N2  UNL     1      23.745   2.743  51.760  1.00  0.00    -0.225 NA
HETATM    6  C5  UNL     1      24.895   3.352  51.131  1.00  0.00     0.126 C 
HETATM    7  C14 UNL     1      25.869   2.500  51.341  1.00  0.00     0.052 C 
HETATM    8  C15 UNL     1      25.851   1.252  52.029  1.00  0.00     0.025 C 
HETATM    9  C16 UNL     1      25.052   0.463  52.683  1.00  0.00     0.036 C 
ENDROOT
BRANCH   6  10
HETATM   10  N3  UNL     1      24.399   4.562  50.604  1.00  0.00    -0.366 N 
HETATM   11  C6  UNL     1      23.702   5.346  51.609  1.00  0.00     0.151 C 
BRANCH  10  12
HETATM   12  C7  UNL     1      24.695   4.761  49.177  1.00  0.00     0.159 C 
BRANCH  12  13
HETATM   13  C8  UNL     1      25.457   5.996  48.961  1.00  0.00    -0.048 C 
HETATM   14  C9  UNL     1      26.754   5.907  48.770  1.00  0.00    -0.056 C 
HETATM   15  C10 UNL     1      27.445   4.586  48.769  1.00  0.00     0.048 C 
HETATM   16  C11 UNL     1      27.542   7.113  48.557  1.00  0.00     0.026 C 
HETATM   17  C12 UNL     1      27.333   8.256  49.135  1.00  0.00     0.005 C 
HETATM   18  S1  UNL     1      25.814   8.513  49.598  1.00  0.00    -0.191 SA
HETATM   19  C13 UNL     1      24.642   7.237  48.983  1.00  0.00     0.102 C 
HETATM   20  H14 UNL     1      25.460   9.877  49.832  1.00  0.00     0.096 HD
ENDBRANCH  12  13
ENDBRANCH  10  12
ENDBRANCH   6  10
BRANCH   9  21
HETATM   21  S2  UNL     1      26.128  -0.910  53.050  1.00  0.00    -0.132 SA
HETATM   22  C17 UNL     1      27.846  -0.559  53.243  1.00  0.00     0.095 C 
ENDBRANCH   9  21
BRANCH   1  23
HETATM   23  O1  UNL     1      23.245  -0.893  53.937  1.00  0.00    -0.352 OA
HETATM   24  C1  UNL     1      22.118  -0.746  54.792  1.00  0.00     0.210 C 
ENDBRANCH   1  23
TORSDOF 5
ENDMDL
MODEL 3
REMARK VINA RESULT:      -6.6      1.862      2.893
REMARK  5 active torsions:
REMARK  status: ('A' for Active; 'I' for Inactive)
REMARK    1  A    between atoms: O1_2  and  C2_3 
REMARK    2  A    between atoms: C5_8  and  N3_9 
REMARK    3  A    between atoms: N3_9  and  C7_11 
REMARK    4  A    between atoms: C7_11  and  C8_12 
REMARK    5  A    between atoms: C16_21  and  S2_22 
ROOT
HETATM    1  C2  UNL     1      25.465  -0.163  53.903  1.00  0.00     0.116 C 
HETATM    2  C3  UNL     1      24.168   0.126  53.873  1.00  0.00     0.124 C 
HETATM    3  N1  UNL     1      23.694   0.337  52.705  1.00  0.00    -0.237 NA
HETATM    4  C4  UNL     1      24.616   0.899  51.797  1.00  0.00     0.236 C 
HETATM    5  N2  UNL     1      24.578   2.131  52.204  1.00  0.00    -0.225 NA
HETATM    6  C5  UNL     1      25.456   2.978  51.429  1.00  0.00     0.126 C 
HETATM    7  C14 UNL     1      26.653   2.486  51.642  1.00  0.00     0.052 C 
HETATM    8  C15 UNL     1      27.050   1.378  52.446  1.00  0.00     0.025 C 
HETATM    9  C16 UNL     1      26.561   0.468  53.234  1.00  0.00     0.036 C 
ENDROOT
BRANCH   6  10
HETATM   10  N3  UNL     1      24.591   3.916  50.830  1.00  0.00    -0.366 N 
HETATM   11  C6  UNL     1      23.597   4.412  51.766  1.00  0.00     0.151 C 
BRANCH  10  12
HETATM   12  C7  UNL     1      24.882   4.180  49.413  1.00  0.00     0.159 C 
BRANCH  12  13
HETATM   13  C8  UNL     1      25.357   5.555  49.218  1.00  0.00    -0.048 C 
HETATM   14  C9  UNL     1      26.622   5.745  48.913  1.00  0.00    -0.056 C 
HETATM   15  C10 UNL     1      27.560   4.595  48.767  1.00  0.00     0.048 C 
HETATM   16  C11 UNL     1      27.128   7.096  48.718  1.00  0.00     0.026 C 
HETATM   17  C12 UNL     1      26.750   8.141  49.387  1.00  0.00     0.005 C 
HETATM   18  S1  UNL     1      25.261   8.057  49.991  1.00  0.00    -0.191 SA
HETATM   19  C13 UNL     1      24.316   6.599  49.391  1.00  0.00     0.102 C 
HETATM   20  H14 UNL     1      24.665   9.306  50.345  1.00  0.00     0.096 HD
ENDBRANCH  12  13
ENDBRANCH  10  12
ENDBRANCH   6  10
BRANCH   9  21
HETATM   21  S2  UNL     1      28.020  -0.469  53.644  1.00  0.00    -0.132 SA
HETATM   22  C17 UNL     1      29.582   0.297  53.346  1.00  0.00     0.095 C 
ENDBRANCH   9  21
BRANCH   1  23
HETATM   23  O1  UNL     1      25.315  -1.210  54.755  1.00  0.00    -0.352 OA
HETATM   24  C1  UNL     1      24.605  -1.112  55.983  1.00  0.00     0.210 C 
ENDBRANCH   1  23
TORSDOF 5
ENDMDL
MODEL 4
REMARK VINA RESULT:      -6.5      3.062      7.744
REMARK  5 active torsions:
REMARK  status: ('A' for Active; 'I' for Inactive)
REMARK    1  A    between atoms: O1_2  and  C2_3 
REMARK    2  A    between atoms: C5_8  and  N3_9 
REMARK    3  A    between atoms: N3_9  and  C7_11 
REMARK    4  A    between atoms: C7_11  and  C8_12 
REMARK    5  A    between atoms: C16_21  and  S2_22 
ROOT
HETATM    1  C2  UNL     1      26.595   7.476  48.001  1.00  0.00     0.116 C 
HETATM    2  C3  UNL     1      25.309   7.715  48.238  1.00  0.00     0.124 C 
HETATM    3  N1  UNL     1      24.907   7.369  49.401  1.00  0.00    -0.237 NA
HETATM    4  C4  UNL     1      25.583   6.254  49.941  1.00  0.00     0.236 C 
HETATM    5  N2  UNL     1      24.981   5.312  49.283  1.00  0.00    -0.225 NA
HETATM    6  C5  UNL     1      25.482   4.005  49.641  1.00  0.00     0.126 C 
HETATM    7  C14 UNL     1      26.747   4.036  49.298  1.00  0.00     0.052 C 
HETATM    8  C15 UNL     1      27.500   5.089  48.701  1.00  0.00     0.025 C 
HETATM    9  C16 UNL     1      27.374   6.305  48.261  1.00  0.00     0.036 C 
ENDROOT
BRANCH   6  10
HETATM   10  N3  UNL     1      24.361   3.342  50.181  1.00  0.00    -0.366 N 
HETATM   11  C6  UNL     1      23.455   2.877  49.145  1.00  0.00     0.151 C 
BRANCH  10  12
HETATM   12  C7  UNL     1      24.358   3.268  51.650  1.00  0.00     0.159 C 
BRANCH  12  13
HETATM   13  C8  UNL     1      24.555   1.888  52.111  1.00  0.00    -0.048 C 
HETATM   14  C9  UNL     1      23.520   1.231  52.585  1.00  0.00    -0.056 C 
HETATM   15  C10 UNL     1      22.172   1.864  52.657  1.00  0.00     0.048 C 
HETATM   16  C11 UNL     1      23.681  -0.138  53.055  1.00  0.00     0.026 C 
HETATM   17  C12 UNL     1      24.724  -0.600  53.672  1.00  0.00     0.005 C 
HETATM   18  S1  UNL     1      26.099   0.171  53.348  1.00  0.00    -0.191 SA
HETATM   19  C13 UNL     1      25.946   1.385  51.976  1.00  0.00     0.102 C 
HETATM   20  H14 UNL     1      27.297  -0.547  53.650  1.00  0.00     0.096 HD
ENDBRANCH  12  13
ENDBRANCH  10  12
ENDBRANCH   6  10
BRANCH   9  21
HETATM   21  S2  UNL     1      29.047   6.683  47.776  1.00  0.00    -0.132 SA
HETATM   22  C17 UNL     1      30.262   5.427  48.022  1.00  0.00     0.095 C 
ENDBRANCH   9  21
BRANCH   1  23
HETATM   23  O1  UNL     1      26.827   8.701  47.460  1.00  0.00    -0.352 OA
HETATM   24  C1  UNL     1      26.399   9.062  46.153  1.00  0.00     0.210 C 
ENDBRANCH   1  23
TORSDOF 5
ENDMDL
MODEL 5
REMARK VINA RESULT:      -6.3      2.002      3.810
REMARK  5 active torsions:
REMARK  status: ('A' for Active; 'I' for Inactive)
REMARK    1  A    between atoms: O1_2  and  C2_3 
REMARK    2  A    between atoms: C5_8  and  N3_9 
REMARK    3  A    between atoms: N3_9  and  C7_11 
REMARK    4  A    between atoms: C7_11  and  C8_12 
REMARK    5  A    between atoms: C16_21  and  S2_22 
ROOT
HETATM    1  C2  UNL     1      23.806   0.128  53.217  1.00  0.00     0.116 C 
HETATM    2  C3  UNL     1      22.661   0.802  53.181  1.00  0.00     0.124 C 
HETATM    3  N1  UNL     1      22.358   1.279  52.035  1.00  0.00    -0.237 NA
HETATM    4  C4  UNL     1      23.470   1.631  51.240  1.00  0.00     0.236 C 
HETATM    5  N2  UNL     1      23.773   2.761  51.802  1.00  0.00    -0.225 NA
HETATM    6  C5  UNL     1      24.918   3.380  51.175  1.00  0.00     0.126 C 
HETATM    7  C14 UNL     1      25.894   2.524  51.362  1.00  0.00     0.052 C 
HETATM    8  C15 UNL     1      25.881   1.264  52.028  1.00  0.00     0.025 C 
HETATM    9  C16 UNL     1      25.086   0.464  52.674  1.00  0.00     0.036 C 
ENDROOT
BRANCH   6  10
HETATM   10  N3  UNL     1      24.419   4.600  50.674  1.00  0.00    -0.366 N 
HETATM   11  C6  UNL     1      24.720   4.770  49.264  1.00  0.00     0.151 C 
BRANCH  10  12
HETATM   12  C7  UNL     1      23.715   5.416  51.675  1.00  0.00     0.159 C 
BRANCH  12  13
HETATM   13  C8  UNL     1      23.005   6.534  51.041  1.00  0.00    -0.048 C 
HETATM   14  C9  UNL     1      21.737   6.379  50.735  1.00  0.00    -0.056 C 
HETATM   15  C10 UNL     1      21.025   5.101  51.022  1.00  0.00     0.048 C 
HETATM   16  C11 UNL     1      21.004   7.466  50.102  1.00  0.00     0.026 C 
HETATM   17  C12 UNL     1      21.494   8.291  49.230  1.00  0.00     0.005 C 
HETATM   18  S1  UNL     1      23.085   8.515  49.328  1.00  0.00    -0.191 SA
HETATM   19  C13 UNL     1      23.835   7.745  50.819  1.00  0.00     0.102 C 
HETATM   20  H14 UNL     1      23.584   9.697  48.702  1.00  0.00     0.096 HD
ENDBRANCH  12  13
ENDBRANCH  10  12
ENDBRANCH   6  10
BRANCH   9  21
HETATM   21  S2  UNL     1      26.164  -0.915  53.008  1.00  0.00    -0.132 SA
HETATM   22  C17 UNL     1      27.893  -0.579  53.124  1.00  0.00     0.095 C 
ENDBRANCH   9  21
BRANCH   1  23
HETATM   23  O1  UNL     1      23.289  -0.913  53.920  1.00  0.00    -0.352 OA
HETATM   24  C1  UNL     1      22.198  -0.771  54.821  1.00  0.00     0.210 C 
ENDBRANCH   1  23
TORSDOF 5
ENDMDL
MODEL 6
REMARK VINA RESULT:      -6.1      2.350      3.624
REMARK  5 active torsions:
REMARK  status: ('A' for Active; 'I' for Inactive)
REMARK    1  A    between atoms: O1_2  and  C2_3 
REMARK    2  A    between atoms: C5_8  and  N3_9 
REMARK    3  A    between atoms: N3_9  and  C7_11 
REMARK    4  A    between atoms: C7_11  and  C8_12 
REMARK    5  A    between atoms: C16_21  and  S2_22 
ROOT
HETATM    1  C2  UNL     1      22.899  -0.141  53.174  1.00  0.00     0.116 C 
HETATM    2  C3  UNL     1      21.786   0.222  52.543  1.00  0.00     0.124 C 
HETATM    3  N1  UNL     1      21.966   0.684  51.366  1.00  0.00    -0.237 NA
HETATM    4  C4  UNL     1      23.192   1.361  51.189  1.00  0.00     0.236 C 
HETATM    5  N2  UNL     1      22.886   2.489  51.753  1.00  0.00    -0.225 NA
HETATM    6  C5  UNL     1      23.990   3.420  51.720  1.00  0.00     0.126 C 
HETATM    7  C14 UNL     1      24.934   2.829  52.413  1.00  0.00     0.052 C 
HETATM    8  C15 UNL     1      24.921   1.563  53.069  1.00  0.00     0.025 C 
HETATM    9  C16 UNL     1      24.147   0.546  53.300  1.00  0.00     0.036 C 
ENDROOT
BRANCH   6  10
HETATM   10  N3  UNL     1      23.505   4.505  50.962  1.00  0.00    -0.366 N 
HETATM   11  C6  UNL     1      22.344   5.121  51.579  1.00  0.00     0.151 C 
BRANCH  10  12
HETATM   12  C7  UNL     1      24.270   4.768  49.734  1.00  0.00     0.159 C 
BRANCH  12  13
HETATM   13  C8  UNL     1      23.385   4.847  48.566  1.00  0.00    -0.048 C 
HETATM   14  C9  UNL     1      23.307   5.986  47.914  1.00  0.00    -0.056 C 
HETATM   15  C10 UNL     1      24.096   7.176  48.343  1.00  0.00     0.048 C 
HETATM   16  C11 UNL     1      22.435   6.101  46.753  1.00  0.00     0.026 C 
HETATM   17  C12 UNL     1      21.281   5.523  46.623  1.00  0.00     0.005 C 
HETATM   18  S1  UNL     1      21.103   4.167  47.472  1.00  0.00    -0.191 SA
HETATM   19  C13 UNL     1      22.664   3.588  48.250  1.00  0.00     0.102 C 
HETATM   20  H14 UNL     1      20.056   3.298  47.038  1.00  0.00     0.096 HD
ENDBRANCH  12  13
ENDBRANCH  10  12
ENDBRANCH   6  10
BRANCH   9  21
HETATM   21  S2  UNL     1      25.239  -0.535  54.203  1.00  0.00    -0.132 SA
HETATM   22  C17 UNL     1      26.703   0.180  54.880  1.00  0.00     0.095 C 
ENDBRANCH   9  21
BRANCH   1  23
HETATM   23  O1  UNL     1      22.390  -1.325  53.604  1.00  0.00    -0.352 OA
HETATM   24  C1  UNL     1      21.134  -1.433  54.262  1.00  0.00     0.210 C 
ENDBRANCH   1  23
TORSDOF 5
ENDMDL
MODEL 7
REMARK VINA RESULT:      -6.1      2.923      6.994
REMARK  5 active torsions:
REMARK  status: ('A' for Active; 'I' for Inactive)
REMARK    1  A    between atoms: O1_2  and  C2_3 
REMARK    2  A    between atoms: C5_8  and  N3_9 
REMARK    3  A    between atoms: N3_9  and  C7_11 
REMARK    4  A    between atoms: C7_11  and  C8_12 
REMARK    5  A    between atoms: C16_21  and  S2_22 
ROOT
HETATM    1  C2  UNL     1      25.335   6.660  48.349  1.00  0.00     0.116 C 
HETATM    2  C3  UNL     1      26.364   6.326  49.122  1.00  0.00     0.124 C 
HETATM    3  N1  UNL     1      26.522   5.068  49.285  1.00  0.00    -0.237 NA
HETATM    4  C4  UNL     1      25.324   4.324  49.255  1.00  0.00     0.236 C 
HETATM    5  N2  UNL     1      24.892   4.583  50.451  1.00  0.00    -0.225 NA
HETATM    6  C5  UNL     1      23.632   3.928  50.718  1.00  0.00     0.126 C 
HETATM    7  C14 UNL     1      22.806   4.440  49.837  1.00  0.00     0.052 C 
HETATM    8  C15 UNL     1      23.047   5.421  48.831  1.00  0.00     0.025 C 
HETATM    9  C16 UNL     1      23.989   6.178  48.354  1.00  0.00     0.036 C 
ENDROOT
BRANCH   6  10
HETATM   10  N3  UNL     1      23.913   3.064  51.796  1.00  0.00    -0.366 N 
HETATM   11  C6  UNL     1      23.969   3.776  53.061  1.00  0.00     0.151 C 
BRANCH  10  12
HETATM   12  C7  UNL     1      24.084   1.656  51.407  1.00  0.00     0.159 C 
BRANCH  12  13
HETATM   13  C8  UNL     1      25.245   1.059  52.078  1.00  0.00    -0.048 C 
HETATM   14  C9  UNL     1      25.037   0.143  52.997  1.00  0.00    -0.056 C 
HETATM   15  C10 UNL     1      23.655  -0.288  53.357  1.00  0.00     0.048 C 
HETATM   16  C11 UNL     1      26.165  -0.466  53.686  1.00  0.00     0.026 C 
HETATM   17  C12 UNL     1      27.259   0.147  54.020  1.00  0.00     0.005 C 
HETATM   18  S1  UNL     1      27.630   1.417  53.104  1.00  0.00    -0.191 SA
HETATM   19  C13 UNL     1      26.558   1.579  51.619  1.00  0.00     0.102 C 
HETATM   20  H14 UNL     1      28.993   1.841  53.155  1.00  0.00     0.096 HD
ENDBRANCH  12  13
ENDBRANCH  10  12
ENDBRANCH   6  10
BRANCH   9  21
HETATM   21  S2  UNL     1      23.149   6.984  47.004  1.00  0.00    -0.132 SA
HETATM   22  C17 UNL     1      22.640   8.655  47.254  1.00  0.00     0.095 C 
ENDBRANCH   9  21
BRANCH   1  23
HETATM   23  O1  UNL     1      26.044   7.566  47.625  1.00  0.00    -0.352 OA
HETATM   24  C1  UNL     1      26.839   8.582  48.223  1.00  0.00     0.210 C 
ENDBRANCH   1  23
TORSDOF 5
ENDMDL
MODEL 8
REMARK VINA RESULT:      -6.1      3.886      6.358
REMARK  5 active torsions:
REMARK  status: ('A' for Active; 'I' for Inactive)
REMARK    1  A    between atoms: O1_2  and  C2_3 
REMARK    2  A    between atoms: C5_8  and  N3_9 
REMARK    3  A    between atoms: N3_9  and  C7_11 
REMARK    4  A    between atoms: C7_11  and  C8_12 
REMARK    5  A    between atoms: C16_21  and  S2_22 
ROOT
HETATM    1  C2  UNL     1      18.496   2.366  51.568  1.00  0.00     0.116 C 
HETATM    2  C3  UNL     1      19.003   3.593  51.617  1.00  0.00     0.124 C 
HETATM    3  N1  UNL     1      19.962   3.808  50.800  1.00  0.00    -0.237 NA
HETATM    4  C4  UNL     1      20.752   2.673  50.520  1.00  0.00     0.236 C 
HETATM    5  N2  UNL     1      21.471   2.653  51.600  1.00  0.00    -0.225 NA
HETATM    6  C5  UNL     1      22.411   1.556  51.597  1.00  0.00     0.126 C 
HETATM    7  C14 UNL     1      21.658   0.483  51.556  1.00  0.00     0.052 C 
HETATM    8  C15 UNL     1      20.237   0.372  51.525  1.00  0.00     0.025 C 
HETATM    9  C16 UNL     1      19.160   1.099  51.532  1.00  0.00     0.036 C 
ENDROOT
BRANCH   6  10
HETATM   10  N3  UNL     1      23.673   2.182  51.643  1.00  0.00    -0.366 N 
HETATM   11  C6  UNL     1      24.040   2.756  50.361  1.00  0.00     0.151 C 
BRANCH  10  12
HETATM   12  C7  UNL     1      24.327   2.117  52.959  1.00  0.00     0.159 C 
BRANCH  12  13
HETATM   13  C8  UNL     1      25.568   1.336  52.894  1.00  0.00    -0.048 C 
HETATM   14  C9  UNL     1      25.547   0.089  53.310  1.00  0.00    -0.056 C 
HETATM   15  C10 UNL     1      24.295  -0.527  53.836  1.00  0.00     0.048 C 
HETATM   16  C11 UNL     1      26.761  -0.713  53.264  1.00  0.00     0.026 C 
HETATM   17  C12 UNL     1      27.960  -0.271  53.490  1.00  0.00     0.005 C 
HETATM   18  S1  UNL     1      28.172   1.295  53.187  1.00  0.00    -0.191 SA
HETATM   19  C13 UNL     1      26.735   2.073  52.346  1.00  0.00     0.102 C 
HETATM   20  H14 UNL     1      29.526   1.714  53.008  1.00  0.00     0.096 HD
ENDBRANCH  12  13
ENDBRANCH  10  12
ENDBRANCH   6  10
BRANCH   9  21
HETATM   21  S2  UNL     1      17.890  -0.143  51.388  1.00  0.00    -0.132 SA
HETATM   22  C17 UNL     1      17.598  -1.164  52.797  1.00  0.00     0.095 C 
ENDBRANCH   9  21
BRANCH   1  23
HETATM   23  O1  UNL     1      17.206   2.790  51.567  1.00  0.00    -0.352 OA
HETATM   24  C1  UNL     1      16.587   3.381  50.431  1.00  0.00     0.210 C 
ENDBRANCH   1  23
TORSDOF 5
ENDMDL
MODEL 9
REMARK VINA RESULT:      -6.0      2.942      7.408
REMARK  5 active torsions:
REMARK  status: ('A' for Active; 'I' for Inactive)
REMARK    1  A    between atoms: O1_2  and  C2_3 
REMARK    2  A    between atoms: C5_8  and  N3_9 
REMARK    3  A    between atoms: N3_9  and  C7_11 
REMARK    4  A    between atoms: C7_11  and  C8_12 
REMARK    5  A    between atoms: C16_21  and  S2_22 
ROOT
HETATM    1  C2  UNL     1      23.509   6.816  49.408  1.00  0.00     0.116 C 
HETATM    2  C3  UNL     1      24.637   6.145  49.195  1.00  0.00     0.124 C 
HETATM    3  N1  UNL     1      24.492   4.880  49.081  1.00  0.00    -0.237 NA
HETATM    4  C4  UNL     1      23.425   4.347  49.836  1.00  0.00     0.236 C 
HETATM    5  N2  UNL     1      23.988   4.335  51.005  1.00  0.00    -0.225 NA
HETATM    6  C5  UNL     1      23.100   3.817  52.021  1.00  0.00     0.126 C 
HETATM    7  C14 UNL     1      22.093   4.658  52.031  1.00  0.00     0.052 C 
HETATM    8  C15 UNL     1      21.880   5.828  51.246  1.00  0.00     0.025 C 
HETATM    9  C16 UNL     1      22.438   6.545  50.317  1.00  0.00     0.036 C 
ENDROOT
BRANCH   6  10
HETATM   10  N3  UNL     1      23.757   2.666  52.500  1.00  0.00    -0.366 N 
HETATM   11  C6  UNL     1      24.791   2.994  53.466  1.00  0.00     0.151 C 
BRANCH  10  12
HETATM   12  C7  UNL     1      23.259   1.408  51.924  1.00  0.00     0.159 C 
BRANCH  12  13
HETATM   13  C8  UNL     1      22.505   0.634  52.917  1.00  0.00    -0.048 C 
HETATM   14  C9  UNL     1      23.125  -0.324  53.569  1.00  0.00    -0.056 C 
HETATM   15  C10 UNL     1      24.562  -0.626  53.312  1.00  0.00     0.048 C 
HETATM   16  C11 UNL     1      22.406  -1.115  54.558  1.00  0.00     0.026 C 
HETATM   17  C12 UNL     1      21.164  -1.476  54.468  1.00  0.00     0.005 C 
HETATM   18  S1  UNL     1      20.240  -0.509  53.573  1.00  0.00    -0.191 SA
HETATM   19  C13 UNL     1      21.086   1.044  53.073  1.00  0.00     0.102 C 
HETATM   20  H14 UNL     1      18.833  -0.617  53.795  1.00  0.00     0.096 HD
ENDBRANCH  12  13
ENDBRANCH  10  12
ENDBRANCH   6  10
BRANCH   9  21
HETATM   21  S2  UNL     1      21.197   7.793  50.036  1.00  0.00    -0.132 SA
HETATM   22  C17 UNL     1      19.674   7.268  49.317  1.00  0.00     0.095 C 
ENDBRANCH   9  21
BRANCH   1  23
HETATM   23  O1  UNL     1      23.784   7.773  48.484  1.00  0.00    -0.352 OA
HETATM   24  C1  UNL     1      23.566   7.588  47.091  1.00  0.00     0.210 C 
ENDBRANCH   1  23
TORSDOF 5
ENDMDL
