MODEL 1
REMARK VINA RESULT:      -6.9      0.000      0.000
REMARK  4 active torsions:
REMARK  status: ('A' for Active; 'I' for Inactive)
REMARK    1  A    between atoms: C5_6  and  N1_7 
REMARK    2  A    between atoms: N1_7  and  C6_8 
REMARK    3  A    between atoms: C6_8  and  C7_9 
REMARK    4  A    between atoms: C16_20  and  O2_21 
ROOT
HETATM    1  C1  UNL     1      21.549   4.897  49.245  1.00  0.00     0.000 C 
HETATM    2  O1  UNL     1      22.784   4.177  49.762  1.00  0.00     0.000 OA
HETATM    3  C2  UNL     1      22.381   3.596  51.017  1.00  0.00     0.056 C 
HETATM    4  C3  UNL     1      22.106   2.630  51.905  1.00  0.00    -0.021 C 
HETATM    5  C4  UNL     1      23.291   2.425  52.525  1.00  0.00     0.032 C 
HETATM    6  C5  UNL     1      24.059   3.527  52.279  1.00  0.00     0.137 C 
HETATM    7  N2  UNL     1      23.588   4.845  52.502  1.00  0.00    -0.224 NA
HETATM    8  C13 UNL     1      23.714   5.852  51.733  1.00  0.00     0.234 C 
HETATM    9  N3  UNL     1      24.298   6.155  50.446  1.00  0.00    -0.258 NA
HETATM   10  C14 UNL     1      24.200   5.295  49.499  1.00  0.00     0.099 C 
HETATM   11  C15 UNL     1      23.579   3.927  49.319  1.00  0.00     0.077 C 
HETATM   12  C16 UNL     1      22.774   2.927  49.815  1.00  0.00     0.116 C 
ENDROOT
BRANCH   6  13
HETATM   13  N1  UNL     1      25.390   3.161  51.829  1.00  0.00    -0.370 N 
HETATM   14  H4  UNL     1      25.750   3.985  52.389  1.00  0.00     0.161 HD
BRANCH  13  15
HETATM   15  C6  UNL     1      26.322   2.359  51.109  1.00  0.00     0.160 C 
BRANCH  15  16
HETATM   16  C7  UNL     1      26.940   1.368  52.022  1.00  0.00    -0.041 A 
HETATM   17  C8  UNL     1      26.641   0.026  52.013  1.00  0.00     0.009 A 
HETATM   18  C9  UNL     1      27.219  -0.896  52.865  1.00  0.00     0.001 A 
HETATM   19  C10 UNL     1      28.156  -0.471  53.793  1.00  0.00     0.000 A 
HETATM   20  C11 UNL     1      28.468   0.894  53.810  1.00  0.00     0.001 A 
HETATM   21  C12 UNL     1      27.878   1.798  52.948  1.00  0.00     0.009 A 
ENDBRANCH  15  16
ENDBRANCH  13  15
ENDBRANCH   6  13
BRANCH  12  22
HETATM   22  O2  UNL     1      22.536   1.718  49.213  1.00  0.00    -0.380 OA
HETATM   23  C17 UNL     1      21.349   1.347  48.577  1.00  0.00     0.202 C 
ENDBRANCH  12  22
TORSDOF 4
ENDMDL
MODEL 2
REMARK VINA RESULT:      -6.8      1.762      3.372
REMARK  4 active torsions:
REMARK  status: ('A' for Active; 'I' for Inactive)
REMARK    1  A    between atoms: C5_6  and  N1_7 
REMARK    2  A    between atoms: N1_7  and  C6_8 
REMARK    3  A    between atoms: C6_8  and  C7_9 
REMARK    4  A    between atoms: C16_20  and  O2_21 
ROOT
HETATM    1  C1  UNL     1      21.906   5.520  50.194  1.00  0.00     0.000 C 
HETATM    2  O1  UNL     1      23.109   5.014  50.973  1.00  0.00     0.000 OA
HETATM    3  C2  UNL     1      24.059   4.603  49.971  1.00  0.00     0.056 C 
HETATM    4  C3  UNL     1      25.198   4.611  49.265  1.00  0.00    -0.021 C 
HETATM    5  C4  UNL     1      26.003   3.770  49.955  1.00  0.00     0.032 C 
HETATM    6  C5  UNL     1      25.193   3.015  50.752  1.00  0.00     0.137 C 
HETATM    7  N2  UNL     1      24.056   2.334  50.250  1.00  0.00    -0.224 NA
HETATM    8  C13 UNL     1      22.893   2.281  50.768  1.00  0.00     0.234 C 
HETATM    9  N3  UNL     1      22.214   2.791  51.937  1.00  0.00    -0.258 NA
HETATM   10  C14 UNL     1      22.466   3.985  52.334  1.00  0.00     0.099 C 
HETATM   11  C15 UNL     1      23.345   5.129  51.880  1.00  0.00     0.077 C 
HETATM   12  C16 UNL     1      24.176   5.665  50.923  1.00  0.00     0.116 C 
ENDROOT
BRANCH   6  13
HETATM   13  N1  UNL     1      25.678   2.970  52.120  1.00  0.00    -0.370 N 
HETATM   14  H4  UNL     1      26.175   3.885  51.920  1.00  0.00     0.161 HD
BRANCH  13  15
HETATM   15  C6  UNL     1      25.803   2.390  53.415  1.00  0.00     0.160 C 
BRANCH  15  16
HETATM   16  C7  UNL     1      26.902   1.395  53.414  1.00  0.00    -0.041 A 
HETATM   17  C8  UNL     1      28.207   1.692  53.731  1.00  0.00     0.009 A 
HETATM   18  C9  UNL     1      29.229   0.762  53.730  1.00  0.00     0.001 A 
HETATM   19  C10 UNL     1      28.952  -0.554  53.393  1.00  0.00     0.000 A 
HETATM   20  C11 UNL     1      27.626  -0.867  53.069  1.00  0.00     0.001 A 
HETATM   21  C12 UNL     1      26.620   0.079  53.077  1.00  0.00     0.009 A 
ENDBRANCH  15  16
ENDBRANCH  13  15
ENDBRANCH   6  13
BRANCH  12  22
HETATM   22  O2  UNL     1      24.838   6.862  51.017  1.00  0.00    -0.380 OA
HETATM   23  C17 UNL     1      24.466   8.049  50.382  1.00  0.00     0.202 C 
ENDBRANCH  12  22
TORSDOF 4
ENDMDL
MODEL 3
REMARK VINA RESULT:      -6.8      2.284      3.860
REMARK  4 active torsions:
REMARK  status: ('A' for Active; 'I' for Inactive)
REMARK    1  A    between atoms: C5_6  and  N1_7 
REMARK    2  A    between atoms: N1_7  and  C6_8 
REMARK    3  A    between atoms: C6_8  and  C7_9 
REMARK    4  A    between atoms: C16_20  and  O2_21 
ROOT
HETATM    1  C1  UNL     1      23.626   6.999  48.214  1.00  0.00     0.000 C 
HETATM    2  O1  UNL     1      24.070   6.244  49.456  1.00  0.00     0.000 OA
HETATM    3  C2  UNL     1      25.188   5.442  49.029  1.00  0.00     0.056 C 
HETATM    4  C3  UNL     1      26.457   5.014  48.973  1.00  0.00    -0.021 C 
HETATM    5  C4  UNL     1      26.508   4.054  49.926  1.00  0.00     0.032 C 
HETATM    6  C5  UNL     1      25.219   3.688  50.184  1.00  0.00     0.137 C 
HETATM    7  N2  UNL     1      24.310   3.336  49.156  1.00  0.00    -0.224 NA
HETATM    8  C13 UNL     1      23.097   3.706  49.035  1.00  0.00     0.234 C 
HETATM    9  N3  UNL     1      22.152   4.537  49.745  1.00  0.00    -0.258 NA
HETATM   10  C14 UNL     1      22.558   5.634  50.273  1.00  0.00     0.099 C 
HETATM   11  C15 UNL     1      23.866   6.388  50.366  1.00  0.00     0.077 C 
HETATM   12  C16 UNL     1      25.176   6.522  49.967  1.00  0.00     0.116 C 
ENDROOT
BRANCH   6  13
HETATM   13  N1  UNL     1      24.948   3.659  51.610  1.00  0.00    -0.370 N 
HETATM   14  H4  UNL     1      25.786   4.295  51.731  1.00  0.00     0.161 HD
BRANCH  13  15
HETATM   15  C6  UNL     1      24.218   3.257  52.766  1.00  0.00     0.160 C 
BRANCH  15  16
HETATM   16  C7  UNL     1      24.696   1.930  53.224  1.00  0.00    -0.041 A 
HETATM   17  C8  UNL     1      23.981   0.765  53.080  1.00  0.00     0.009 A 
HETATM   18  C9  UNL     1      24.429  -0.470  53.508  1.00  0.00     0.001 A 
HETATM   19  C10 UNL     1      25.669  -0.569  54.121  1.00  0.00     0.000 A 
HETATM   20  C11 UNL     1      26.405   0.612  54.271  1.00  0.00     0.001 A 
HETATM   21  C12 UNL     1      25.937   1.836  53.836  1.00  0.00     0.009 A 
ENDBRANCH  15  16
ENDBRANCH  13  15
ENDBRANCH   6  13
BRANCH  12  22
HETATM   22  O2  UNL     1      26.063   7.459  50.434  1.00  0.00    -0.380 OA
HETATM   23  C17 UNL     1      26.717   8.417  49.656  1.00  0.00     0.202 C 
ENDBRANCH  12  22
TORSDOF 4
ENDMDL
MODEL 4
REMARK VINA RESULT:      -6.6      1.833      3.184
REMARK  4 active torsions:
REMARK  status: ('A' for Active; 'I' for Inactive)
REMARK    1  A    between atoms: C5_6  and  N1_7 
REMARK    2  A    between atoms: N1_7  and  C6_8 
REMARK    3  A    between atoms: C6_8  and  C7_9 
REMARK    4  A    between atoms: C16_20  and  O2_21 
ROOT
HETATM    1  C1  UNL     1      23.810   6.406  50.346  1.00  0.00     0.000 C 
HETATM    2  O1  UNL     1      23.809   4.917  50.651  1.00  0.00     0.000 OA
HETATM    3  C2  UNL     1      23.171   4.302  49.515  1.00  0.00     0.056 C 
HETATM    4  C3  UNL     1      23.055   3.530  48.425  1.00  0.00    -0.021 C 
HETATM    5  C4  UNL     1      22.661   2.336  48.924  1.00  0.00     0.032 C 
HETATM    6  C5  UNL     1      22.174   2.575  50.177  1.00  0.00     0.137 C 
HETATM    7  N2  UNL     1      21.208   3.579  50.436  1.00  0.00    -0.224 NA
HETATM    8  C13 UNL     1      21.206   4.424  51.389  1.00  0.00     0.234 C 
HETATM    9  N3  UNL     1      22.035   4.766  52.523  1.00  0.00    -0.258 NA
HETATM   10  C14 UNL     1      23.311   4.733  52.396  1.00  0.00     0.099 C 
HETATM   11  C15 UNL     1      24.296   4.422  51.290  1.00  0.00     0.077 C 
HETATM   12  C16 UNL     1      24.523   4.160  49.958  1.00  0.00     0.116 C 
ENDROOT
BRANCH   6  13
HETATM   13  N1  UNL     1      22.726   1.650  51.151  1.00  0.00    -0.370 N 
HETATM   14  H4  UNL     1      23.195   1.156  50.339  1.00  0.00     0.161 HD
BRANCH  13  15
HETATM   15  C6  UNL     1      22.923   1.147  52.469  1.00  0.00     0.160 C 
BRANCH  15  16
HETATM   16  C7  UNL     1      24.307   0.635  52.607  1.00  0.00    -0.041 A 
HETATM   17  C8  UNL     1      25.373   1.095  51.871  1.00  0.00     0.009 A 
HETATM   18  C9  UNL     1      26.663   0.615  52.003  1.00  0.00     0.001 A 
HETATM   19  C10 UNL     1      26.925  -0.388  52.923  1.00  0.00     0.000 A 
HETATM   20  C11 UNL     1      25.846  -0.863  53.678  1.00  0.00     0.001 A 
HETATM   21  C12 UNL     1      24.565  -0.368  53.529  1.00  0.00     0.009 A 
ENDBRANCH  15  16
ENDBRANCH  13  15
ENDBRANCH   6  13
BRANCH  12  22
HETATM   22  O2  UNL     1      25.740   3.866  49.397  1.00  0.00    -0.380 OA
HETATM   23  C17 UNL     1      26.692   4.802  48.986  1.00  0.00     0.202 C 
ENDBRANCH  12  22
TORSDOF 4
ENDMDL
MODEL 5
REMARK VINA RESULT:      -6.5      2.287      4.925
REMARK  4 active torsions:
REMARK  status: ('A' for Active; 'I' for Inactive)
REMARK    1  A    between atoms: C5_6  and  N1_7 
REMARK    2  A    between atoms: N1_7  and  C6_8 
REMARK    3  A    between atoms: C6_8  and  C7_9 
REMARK    4  A    between atoms: C16_20  and  O2_21 
ROOT
HETATM    1  C1  UNL     1      22.932   0.686  52.733  1.00  0.00     0.000 C 
HETATM    2  O1  UNL     1      23.285   1.838  51.806  1.00  0.00     0.000 OA
HETATM    3  C2  UNL     1      23.284   3.009  52.646  1.00  0.00     0.056 C 
HETATM    4  C3  UNL     1      23.781   4.078  53.282  1.00  0.00    -0.021 C 
HETATM    5  C4  UNL     1      23.629   5.079  52.385  1.00  0.00     0.032 C 
HETATM    6  C5  UNL     1      22.703   4.655  51.477  1.00  0.00     0.137 C 
HETATM    7  N2  UNL     1      21.447   4.124  51.865  1.00  0.00    -0.224 NA
HETATM    8  C13 UNL     1      20.869   3.088  51.402  1.00  0.00     0.234 C 
HETATM    9  N3  UNL     1      21.124   2.068  50.409  1.00  0.00    -0.258 NA
HETATM   10  C14 UNL     1      22.314   1.607  50.280  1.00  0.00     0.099 C 
HETATM   11  C15 UNL     1      23.657   1.835  50.939  1.00  0.00     0.077 C 
HETATM   12  C16 UNL     1      24.385   2.414  51.953  1.00  0.00     0.116 C 
ENDROOT
BRANCH   6  13
HETATM   13  N1  UNL     1      23.152   4.873  50.114  1.00  0.00    -0.370 N 
HETATM   14  H4  UNL     1      23.113   3.821  49.987  1.00  0.00     0.161 HD
BRANCH  13  15
HETATM   15  C6  UNL     1      23.562   5.682  49.015  1.00  0.00     0.160 C 
BRANCH  15  16
HETATM   16  C7  UNL     1      25.032   5.593  48.848  1.00  0.00    -0.041 A 
HETATM   17  C8  UNL     1      25.811   6.610  48.349  1.00  0.00     0.009 A 
HETATM   18  C9  UNL     1      27.182   6.524  48.195  1.00  0.00     0.001 A 
HETATM   19  C10 UNL     1      27.835   5.356  48.557  1.00  0.00     0.000 A 
HETATM   20  C11 UNL     1      27.051   4.314  49.067  1.00  0.00     0.001 A 
HETATM   21  C12 UNL     1      25.682   4.423  49.212  1.00  0.00     0.009 A 
ENDBRANCH  15  16
ENDBRANCH  13  15
ENDBRANCH   6  13
BRANCH  12  22
HETATM   22  O2  UNL     1      25.747   2.345  52.100  1.00  0.00    -0.380 OA
HETATM   23  C17 UNL     1      26.420   1.892  53.237  1.00  0.00     0.202 C 
ENDBRANCH  12  22
TORSDOF 4
ENDMDL
MODEL 6
REMARK VINA RESULT:      -6.4      2.411      3.458
REMARK  4 active torsions:
REMARK  status: ('A' for Active; 'I' for Inactive)
REMARK    1  A    between atoms: C5_6  and  N1_7 
REMARK    2  A    between atoms: N1_7  and  C6_8 
REMARK    3  A    between atoms: C6_8  and  C7_9 
REMARK    4  A    between atoms: C16_20  and  O2_21 
ROOT
HETATM    1  C1  UNL     1      19.044   0.963  50.043  1.00  0.00     0.000 C 
HETATM    2  O1  UNL     1      20.485   1.251  50.435  1.00  0.00     0.000 OA
HETATM    3  C2  UNL     1      20.423   2.446  51.237  1.00  0.00     0.056 C 
HETATM    4  C3  UNL     1      20.539   3.213  52.331  1.00  0.00    -0.021 C 
HETATM    5  C4  UNL     1      21.807   3.680  52.256  1.00  0.00     0.032 C 
HETATM    6  C5  UNL     1      22.211   3.516  50.962  1.00  0.00     0.137 C 
HETATM    7  N2  UNL     1      21.437   3.966  49.863  1.00  0.00    -0.224 NA
HETATM    8  C13 UNL     1      21.184   3.337  48.785  1.00  0.00     0.234 C 
HETATM    9  N3  UNL     1      21.488   2.053  48.194  1.00  0.00    -0.258 NA
HETATM   10  C14 UNL     1      21.500   1.010  48.940  1.00  0.00     0.099 C 
HETATM   11  C15 UNL     1      21.251   0.702  50.400  1.00  0.00     0.077 C 
HETATM   12  C16 UNL     1      20.818   1.130  51.634  1.00  0.00     0.116 C 
ENDROOT
BRANCH   6  13
HETATM   13  N1  UNL     1      23.518   2.890  50.885  1.00  0.00    -0.370 N 
HETATM   14  H4  UNL     1      23.044   2.077  50.398  1.00  0.00     0.161 HD
BRANCH  13  15
HETATM   15  C6  UNL     1      24.924   2.833  51.107  1.00  0.00     0.160 C 
BRANCH  15  16
HETATM   16  C7  UNL     1      25.272   1.564  51.792  1.00  0.00    -0.041 A 
HETATM   17  C8  UNL     1      26.490   0.937  51.675  1.00  0.00     0.009 A 
HETATM   18  C9  UNL     1      26.811  -0.245  52.315  1.00  0.00     0.001 A 
HETATM   19  C10 UNL     1      25.869  -0.855  53.129  1.00  0.00     0.000 A 
HETATM   20  C11 UNL     1      24.625  -0.224  53.255  1.00  0.00     0.001 A 
HETATM   21  C12 UNL     1      24.327   0.957  52.606  1.00  0.00     0.009 A 
ENDBRANCH  15  16
ENDBRANCH  13  15
ENDBRANCH   6  13
BRANCH  12  22
HETATM   22  O2  UNL     1      20.836   0.391  52.790  1.00  0.00    -0.380 OA
HETATM   23  C17 UNL     1      19.745  -0.289  53.336  1.00  0.00     0.202 C 
ENDBRANCH  12  22
TORSDOF 4
ENDMDL
MODEL 7
REMARK VINA RESULT:      -6.4      2.164      3.652
REMARK  4 active torsions:
REMARK  status: ('A' for Active; 'I' for Inactive)
REMARK    1  A    between atoms: C5_6  and  N1_7 
REMARK    2  A    between atoms: N1_7  and  C6_8 
REMARK    3  A    between atoms: C6_8  and  C7_9 
REMARK    4  A    between atoms: C16_20  and  O2_21 
ROOT
HETATM    1  C1  UNL     1      19.272   3.711  50.980  1.00  0.00     0.000 C 
HETATM    2  O1  UNL     1      20.674   3.354  51.446  1.00  0.00     0.000 OA
HETATM    3  C2  UNL     1      21.467   3.307  50.244  1.00  0.00     0.056 C 
HETATM    4  C3  UNL     1      22.427   3.659  49.377  1.00  0.00    -0.021 C 
HETATM    5  C4  UNL     1      23.487   2.909  49.758  1.00  0.00     0.032 C 
HETATM    6  C5  UNL     1      22.994   1.889  50.520  1.00  0.00     0.137 C 
HETATM    7  N2  UNL     1      21.919   1.071  50.089  1.00  0.00    -0.224 NA
HETATM    8  C13 UNL     1      20.909   0.700  50.769  1.00  0.00     0.234 C 
HETATM    9  N3  UNL     1      20.392   0.873  52.108  1.00  0.00    -0.258 NA
HETATM   10  C14 UNL     1      20.501   2.019  52.675  1.00  0.00     0.099 C 
HETATM   11  C15 UNL     1      21.058   3.376  52.307  1.00  0.00     0.077 C 
HETATM   12  C16 UNL     1      21.578   4.212  51.346  1.00  0.00     0.116 C 
ENDROOT
BRANCH   6  13
HETATM   13  N1  UNL     1      23.737   1.738  51.757  1.00  0.00    -0.370 N 
HETATM   14  H4  UNL     1      23.514   0.703  51.705  1.00  0.00     0.161 HD
BRANCH  13  15
HETATM   15  C6  UNL     1      24.509   2.220  52.853  1.00  0.00     0.160 C 
BRANCH  15  16
HETATM   16  C7  UNL     1      25.734   1.399  53.003  1.00  0.00    -0.041 A 
HETATM   17  C8  UNL     1      26.845   1.798  53.708  1.00  0.00     0.009 A 
HETATM   18  C9  UNL     1      27.985   1.029  53.847  1.00  0.00     0.001 A 
HETATM   19  C10 UNL     1      28.040  -0.220  53.249  1.00  0.00     0.000 A 
HETATM   20  C11 UNL     1      26.914  -0.636  52.529  1.00  0.00     0.001 A 
HETATM   21  C12 UNL     1      25.785   0.149  52.405  1.00  0.00     0.009 A 
ENDBRANCH  15  16
ENDBRANCH  13  15
ENDBRANCH   6  13
BRANCH  12  22
HETATM   22  O2  UNL     1      22.024   5.493  51.555  1.00  0.00    -0.380 OA
HETATM   23  C17 UNL     1      21.568   6.631  50.886  1.00  0.00     0.202 C 
ENDBRANCH  12  22
TORSDOF 4
ENDMDL
MODEL 8
REMARK VINA RESULT:      -6.4      1.850      2.507
REMARK  4 active torsions:
REMARK  status: ('A' for Active; 'I' for Inactive)
REMARK    1  A    between atoms: C5_6  and  N1_7 
REMARK    2  A    between atoms: N1_7  and  C6_8 
REMARK    3  A    between atoms: C6_8  and  C7_9 
REMARK    4  A    between atoms: C16_20  and  O2_21 
ROOT
HETATM    1  C1  UNL     1      22.881   5.459  47.983  1.00  0.00     0.000 C 
HETATM    2  O1  UNL     1      23.355   4.642  49.174  1.00  0.00     0.000 OA
HETATM    3  C2  UNL     1      22.469   5.002  50.252  1.00  0.00     0.056 C 
HETATM    4  C3  UNL     1      21.531   4.834  51.195  1.00  0.00    -0.021 C 
HETATM    5  C4  UNL     1      22.243   4.477  52.288  1.00  0.00     0.032 C 
HETATM    6  C5  UNL     1      23.535   4.853  52.056  1.00  0.00     0.137 C 
HETATM    7  N2  UNL     1      23.879   6.160  51.628  1.00  0.00    -0.224 NA
HETATM    8  C13 UNL     1      24.701   6.482  50.710  1.00  0.00     0.234 C 
HETATM    9  N3  UNL     1      25.575   5.819  49.770  1.00  0.00    -0.258 NA
HETATM   10  C14 UNL     1      25.175   4.743  49.197  1.00  0.00     0.099 C 
HETATM   11  C15 UNL     1      23.925   3.891  49.215  1.00  0.00     0.077 C 
HETATM   12  C16 UNL     1      22.617   3.732  49.611  1.00  0.00     0.116 C 
ENDROOT
BRANCH   6  13
HETATM   13  N1  UNL     1      24.466   3.781  52.355  1.00  0.00    -0.370 N 
HETATM   14  H4  UNL     1      24.641   4.260  53.284  1.00  0.00     0.161 HD
BRANCH  13  15
HETATM   15  C6  UNL     1      25.165   2.574  52.062  1.00  0.00     0.160 C 
BRANCH  15  16
HETATM   16  C7  UNL     1      24.392   1.413  52.563  1.00  0.00    -0.041 A 
HETATM   17  C8  UNL     1      23.102   1.127  52.182  1.00  0.00     0.009 A 
HETATM   18  C9  UNL     1      22.384   0.044  52.651  1.00  0.00     0.001 A 
HETATM   19  C10 UNL     1      22.973  -0.821  53.560  1.00  0.00     0.000 A 
HETATM   20  C11 UNL     1      24.287  -0.540  53.954  1.00  0.00     0.001 A 
HETATM   21  C12 UNL     1      24.985   0.550  53.471  1.00  0.00     0.009 A 
ENDBRANCH  15  16
ENDBRANCH  13  15
ENDBRANCH   6  13
BRANCH  12  22
HETATM   22  O2  UNL     1      21.840   2.624  49.382  1.00  0.00    -0.380 OA
HETATM   23  C17 UNL     1      20.765   2.555  48.493  1.00  0.00     0.202 C 
ENDBRANCH  12  22
TORSDOF 4
ENDMDL
MODEL 9
REMARK VINA RESULT:      -6.4      2.750      4.125
REMARK  4 active torsions:
REMARK  status: ('A' for Active; 'I' for Inactive)
REMARK    1  A    between atoms: C5_6  and  N1_7 
REMARK    2  A    between atoms: N1_7  and  C6_8 
REMARK    3  A    between atoms: C6_8  and  C7_9 
REMARK    4  A    between atoms: C16_20  and  O2_21 
ROOT
HETATM    1  C1  UNL     1      21.020   5.229  50.284  1.00  0.00     0.000 C 
HETATM    2  O1  UNL     1      21.368   3.817  50.726  1.00  0.00     0.000 OA
HETATM    3  C2  UNL     1      21.250   3.012  49.537  1.00  0.00     0.056 C 
HETATM    4  C3  UNL     1      21.646   2.217  48.533  1.00  0.00    -0.021 C 
HETATM    5  C4  UNL     1      21.496   0.971  49.039  1.00  0.00     0.032 C 
HETATM    6  C5  UNL     1      20.655   1.079  50.108  1.00  0.00     0.137 C 
HETATM    7  N2  UNL     1      19.408   1.749  50.028  1.00  0.00    -0.224 NA
HETATM    8  C13 UNL     1      18.918   2.575  50.864  1.00  0.00     0.234 C 
HETATM    9  N3  UNL     1      19.291   3.178  52.124  1.00  0.00    -0.258 NA
HETATM   10  C14 UNL     1      20.511   3.530  52.310  1.00  0.00     0.099 C 
HETATM   11  C15 UNL     1      21.794   3.507  51.509  1.00  0.00     0.077 C 
HETATM   12  C16 UNL     1      22.423   3.296  50.303  1.00  0.00     0.116 C 
ENDROOT
BRANCH   6  13
HETATM   13  N1  UNL     1      21.178   0.388  51.273  1.00  0.00    -0.370 N 
HETATM   14  H4  UNL     1      21.880  -0.068  50.623  1.00  0.00     0.161 HD
BRANCH  13  15
HETATM   15  C6  UNL     1      21.212   0.062  52.659  1.00  0.00     0.160 C 
BRANCH  15  16
HETATM   16  C7  UNL     1      22.620  -0.043  53.114  1.00  0.00    -0.041 A 
HETATM   17  C8  UNL     1      23.022  -0.787  54.198  1.00  0.00     0.009 A 
HETATM   18  C9  UNL     1      24.335  -0.884  54.619  1.00  0.00     0.001 A 
HETATM   19  C10 UNL     1      25.323  -0.202  53.927  1.00  0.00     0.000 A 
HETATM   20  C11 UNL     1      24.924   0.558  52.821  1.00  0.00     0.001 A 
HETATM   21  C12 UNL     1      23.606   0.640  52.418  1.00  0.00     0.009 A 
ENDBRANCH  15  16
ENDBRANCH  13  15
ENDBRANCH   6  13
BRANCH  12  22
HETATM   22  O2  UNL     1      23.775   3.372  50.082  1.00  0.00    -0.380 OA
HETATM   23  C17 UNL     1      24.416   4.323  49.284  1.00  0.00     0.202 C 
ENDBRANCH  12  22
TORSDOF 4
ENDMDL
