MODEL 1
REMARK VINA RESULT:      -7.9      0.000      0.000
REMARK  7 active torsions:
REMARK  status: ('A' for Active; 'I' for Inactive)
REMARK    1  A    between atoms: C5_6  and  C6_7 
REMARK    2  A    between atoms: C6_7  and  O1_8 
REMARK    3  A    between atoms: O1_8  and  C7_9 
REMARK    4  A    between atoms: C7_9  and  C8_10 
REMARK    5  A    between atoms: C9_12  and  C10_13 
REMARK    6  A    between atoms: C10_13  and  N1_15 
REMARK    7  A    between atoms: N1_15  and  C11_16 
ROOT
HETATM    1  C8  UNL     1      25.650   3.234  50.803  1.00  0.00     0.036 C 
HETATM    2 CL1  UNL     1      26.382   3.764  49.315  1.00  0.00    -0.087 Cl
HETATM    3  C9  UNL     1      24.602   3.834  51.350  1.00  0.00     0.052 C 
ENDROOT
BRANCH   1   4
HETATM    4  C7  UNL     1      26.439   2.069  51.228  1.00  0.00     0.219 C 
BRANCH   4   5
HETATM    5  O1  UNL     1      27.533   2.521  51.966  1.00  0.00    -0.381 OA
BRANCH   5   6
HETATM    6  C6  UNL     1      27.461   1.930  53.218  1.00  0.00     0.206 C 
BRANCH   6   7
HETATM    7  C5  UNL     1      28.073   0.578  53.238  1.00  0.00    -0.032 A 
HETATM    8  C4  UNL     1      29.394   0.434  53.658  1.00  0.00     0.009 A 
HETATM    9  C3  UNL     1      30.001  -0.818  53.690  1.00  0.00     0.004 A 
HETATM   10  C2  UNL     1      29.313  -1.956  53.308  1.00  0.00     0.042 A 
HETATM   11  C1  UNL     1      27.996  -1.803  52.892  1.00  0.00     0.117 A 
HETATM   12  F1  UNL     1      27.212  -2.843  52.491  1.00  0.00    -0.206 F 
HETATM   13  C16 UNL     1      27.402  -0.575  52.860  1.00  0.00     0.051 A 
ENDBRANCH   6   7
ENDBRANCH   5   6
ENDBRANCH   4   5
ENDBRANCH   1   4
BRANCH   3  14
HETATM   14  C10 UNL     1      23.986   3.377  52.622  1.00  0.00     0.295 C 
HETATM   15  F2  UNL     1      23.777   4.467  53.418  1.00  0.00    -0.222 F 
BRANCH  14  16
HETATM   16  N1  UNL     1      22.775   2.597  52.421  1.00  0.00    -0.342 N 
HETATM   17  H10 UNL     1      21.946   2.916  51.849  1.00  0.00     0.164 HD
BRANCH  16  18
HETATM   18  C11 UNL     1      22.656   1.325  53.011  1.00  0.00     0.123 C 
HETATM   19  C12 UNL     1      23.671   0.517  53.279  1.00  0.00     0.028 C 
HETATM   20  C13 UNL     1      23.875  -0.835  53.874  1.00  0.00     0.077 C 
HETATM   21  C14 UNL     1      22.829  -1.109  54.881  1.00  0.00     0.095 C 
HETATM   22  N2  UNL     1      21.609  -0.747  55.001  1.00  0.00    -0.258 NA
HETATM   23  C15 UNL     1      20.812   0.094  54.141  1.00  0.00     0.234 C 
HETATM   24  N3  UNL     1      21.293   0.959  53.312  1.00  0.00    -0.225 NA
ENDBRANCH  16  18
ENDBRANCH  14  16
ENDBRANCH   3  14
TORSDOF 7
ENDMDL
MODEL 2
REMARK VINA RESULT:      -7.9      3.167      5.637
REMARK  7 active torsions:
REMARK  status: ('A' for Active; 'I' for Inactive)
REMARK    1  A    between atoms: C5_6  and  C6_7 
REMARK    2  A    between atoms: C6_7  and  O1_8 
REMARK    3  A    between atoms: O1_8  and  C7_9 
REMARK    4  A    between atoms: C7_9  and  C8_10 
REMARK    5  A    between atoms: C9_12  and  C10_13 
REMARK    6  A    between atoms: C10_13  and  N1_15 
REMARK    7  A    between atoms: N1_15  and  C11_16 
ROOT
HETATM    1  C8  UNL     1      24.077   4.211  51.282  1.00  0.00     0.036 C 
HETATM    2 CL1  UNL     1      22.948   5.536  51.292  1.00  0.00    -0.087 Cl
HETATM    3  C9  UNL     1      25.106   4.142  50.449  1.00  0.00     0.052 C 
ENDROOT
BRANCH   1   4
HETATM    4  C7  UNL     1      23.612   3.298  52.337  1.00  0.00     0.219 C 
BRANCH   4   5
HETATM    5  O1  UNL     1      22.550   2.546  51.835  1.00  0.00    -0.381 OA
BRANCH   5   6
HETATM    6  C6  UNL     1      23.000   1.242  51.691  1.00  0.00     0.206 C 
BRANCH   6   7
HETATM    7  C5  UNL     1      22.414   0.329  52.704  1.00  0.00    -0.032 A 
HETATM    8  C4  UNL     1      21.056   0.025  52.643  1.00  0.00     0.009 A 
HETATM    9  C3  UNL     1      20.472  -0.827  53.576  1.00  0.00     0.004 A 
HETATM   10  C2  UNL     1      21.220  -1.397  54.591  1.00  0.00     0.042 A 
HETATM   11  C1  UNL     1      22.574  -1.088  54.643  1.00  0.00     0.117 A 
HETATM   12  F1  UNL     1      23.418  -1.583  55.591  1.00  0.00    -0.206 F 
HETATM   13  C16 UNL     1      23.146  -0.252  53.728  1.00  0.00     0.051 A 
ENDBRANCH   6   7
ENDBRANCH   5   6
ENDBRANCH   4   5
ENDBRANCH   1   4
BRANCH   3  14
HETATM   14  C10 UNL     1      26.063   3.005  50.445  1.00  0.00     0.295 C 
HETATM   15  F2  UNL     1      26.678   2.962  49.226  1.00  0.00    -0.222 F 
BRANCH  14  16
HETATM   16  N1  UNL     1      27.013   3.056  51.544  1.00  0.00    -0.342 N 
HETATM   17  H10 UNL     1      27.526   3.927  51.852  1.00  0.00     0.164 HD
BRANCH  16  18
HETATM   18  C11 UNL     1      27.300   1.888  52.276  1.00  0.00     0.123 C 
HETATM   19  C12 UNL     1      26.654   0.739  52.151  1.00  0.00     0.028 C 
HETATM   20  C13 UNL     1      26.707  -0.626  52.749  1.00  0.00     0.077 C 
HETATM   21  C14 UNL     1      28.094  -0.951  53.145  1.00  0.00     0.095 C 
HETATM   22  N2  UNL     1      29.080  -0.246  53.550  1.00  0.00    -0.258 NA
HETATM   23  C15 UNL     1      29.164   1.179  53.763  1.00  0.00     0.234 C 
HETATM   24  N3  UNL     1      28.392   2.049  53.206  1.00  0.00    -0.225 NA
ENDBRANCH  16  18
ENDBRANCH  14  16
ENDBRANCH   3  14
TORSDOF 7
ENDMDL
MODEL 3
REMARK VINA RESULT:      -7.3      3.042      4.840
REMARK  7 active torsions:
REMARK  status: ('A' for Active; 'I' for Inactive)
REMARK    1  A    between atoms: C5_6  and  C6_7 
REMARK    2  A    between atoms: C6_7  and  O1_8 
REMARK    3  A    between atoms: O1_8  and  C7_9 
REMARK    4  A    between atoms: C7_9  and  C8_10 
REMARK    5  A    between atoms: C9_12  and  C10_13 
REMARK    6  A    between atoms: C10_13  and  N1_15 
REMARK    7  A    between atoms: N1_15  and  C11_16 
ROOT
HETATM    1  C8  UNL     1      22.584  -0.351  53.315  1.00  0.00     0.036 C 
HETATM    2 CL1  UNL     1      22.024  -1.449  54.545  1.00  0.00    -0.087 Cl
HETATM    3  C9  UNL     1      21.859  -0.016  52.257  1.00  0.00     0.052 C 
ENDROOT
BRANCH   1   4
HETATM    4  C7  UNL     1      23.935   0.047  53.738  1.00  0.00     0.219 C 
BRANCH   4   5
HETATM    5  O1  UNL     1      24.851  -0.857  53.199  1.00  0.00    -0.381 OA
BRANCH   5   6
HETATM    6  C6  UNL     1      25.634  -0.159  52.291  1.00  0.00     0.206 C 
BRANCH   6   7
HETATM    7  C5  UNL     1      27.001   0.101  52.811  1.00  0.00    -0.032 A 
HETATM    8  C4  UNL     1      27.847  -0.975  53.069  1.00  0.00     0.009 A 
HETATM    9  C3  UNL     1      29.135  -0.770  53.556  1.00  0.00     0.004 A 
HETATM   10  C2  UNL     1      29.613   0.506  53.798  1.00  0.00     0.042 A 
HETATM   11  C1  UNL     1      28.762   1.572  53.536  1.00  0.00     0.117 A 
HETATM   12  F1  UNL     1      29.112   2.875  53.732  1.00  0.00    -0.206 F 
HETATM   13  C16 UNL     1      27.499   1.371  53.059  1.00  0.00     0.051 A 
ENDBRANCH   6   7
ENDBRANCH   5   6
ENDBRANCH   4   5
ENDBRANCH   1   4
BRANCH   3  14
HETATM   14  C10 UNL     1      22.346   0.918  51.210  1.00  0.00     0.295 C 
HETATM   15  F2  UNL     1      21.643   0.688  50.062  1.00  0.00    -0.222 F 
BRANCH  14  16
HETATM   16  N1  UNL     1      22.295   2.312  51.621  1.00  0.00    -0.342 N 
HETATM   17  H10 UNL     1      21.484   2.755  52.133  1.00  0.00     0.164 HD
BRANCH  16  18
HETATM   18  C11 UNL     1      23.378   3.166  51.339  1.00  0.00     0.123 C 
HETATM   19  C12 UNL     1      24.474   2.807  50.689  1.00  0.00     0.028 C 
HETATM   20  C13 UNL     1      25.749   3.441  50.245  1.00  0.00     0.077 C 
HETATM   21  C14 UNL     1      25.530   4.876  49.965  1.00  0.00     0.095 C 
HETATM   22  N2  UNL     1      24.738   5.755  50.449  1.00  0.00    -0.258 NA
HETATM   23  C15 UNL     1      23.743   5.623  51.485  1.00  0.00     0.234 C 
HETATM   24  N3  UNL     1      23.191   4.509  51.833  1.00  0.00    -0.225 NA
ENDBRANCH  16  18
ENDBRANCH  14  16
ENDBRANCH   3  14
TORSDOF 7
ENDMDL
MODEL 4
REMARK VINA RESULT:      -7.0      2.934      5.361
REMARK  7 active torsions:
REMARK  status: ('A' for Active; 'I' for Inactive)
REMARK    1  A    between atoms: C5_6  and  C6_7 
REMARK    2  A    between atoms: C6_7  and  O1_8 
REMARK    3  A    between atoms: O1_8  and  C7_9 
REMARK    4  A    between atoms: C7_9  and  C8_10 
REMARK    5  A    between atoms: C9_12  and  C10_13 
REMARK    6  A    between atoms: C10_13  and  N1_15 
REMARK    7  A    between atoms: N1_15  and  C11_16 
ROOT
HETATM    1  C8  UNL     1      24.284   3.441  49.602  1.00  0.00     0.036 C 
HETATM    2 CL1  UNL     1      22.912   3.015  48.619  1.00  0.00    -0.087 Cl
HETATM    3  C9  UNL     1      25.457   2.829  49.514  1.00  0.00     0.052 C 
ENDROOT
BRANCH   1   4
HETATM    4  C7  UNL     1      23.819   4.541  50.459  1.00  0.00     0.219 C 
BRANCH   4   5
HETATM    5  O1  UNL     1      22.600   4.173  51.029  1.00  0.00    -0.381 OA
BRANCH   5   6
HETATM    6  C6  UNL     1      22.867   3.701  52.305  1.00  0.00     0.206 C 
BRANCH   6   7
HETATM    7  C5  UNL     1      22.608   2.244  52.431  1.00  0.00    -0.032 A 
HETATM    8  C4  UNL     1      21.471   1.700  51.840  1.00  0.00     0.009 A 
HETATM    9  C3  UNL     1      21.196   0.339  51.937  1.00  0.00     0.004 A 
HETATM   10  C2  UNL     1      22.043  -0.514  52.622  1.00  0.00     0.042 A 
HETATM   11  C1  UNL     1      23.176   0.038  53.208  1.00  0.00     0.117 A 
HETATM   12  F1  UNL     1      24.088  -0.694  53.908  1.00  0.00    -0.206 F 
HETATM   13  C16 UNL     1      23.445   1.372  53.112  1.00  0.00     0.051 A 
ENDBRANCH   6   7
ENDBRANCH   5   6
ENDBRANCH   4   5
ENDBRANCH   1   4
BRANCH   3  14
HETATM   14  C10 UNL     1      26.621   3.197  50.361  1.00  0.00     0.295 C 
HETATM   15  F2  UNL     1      26.942   4.501  50.113  1.00  0.00    -0.222 F 
BRANCH  14  16
HETATM   16  N1  UNL     1      26.402   2.940  51.775  1.00  0.00    -0.342 N 
HETATM   17  H10 UNL     1      25.674   3.427  52.366  1.00  0.00     0.164 HD
BRANCH  16  18
HETATM   18  C11 UNL     1      27.189   1.984  52.443  1.00  0.00     0.123 C 
HETATM   19  C12 UNL     1      28.131   2.267  53.330  1.00  0.00     0.028 C 
HETATM   20  C13 UNL     1      29.102   1.521  54.181  1.00  0.00     0.077 C 
HETATM   21  C14 UNL     1      28.545   0.203  54.550  1.00  0.00     0.095 C 
HETATM   22  N2  UNL     1      27.746  -0.608  53.967  1.00  0.00    -0.258 NA
HETATM   23  C15 UNL     1      27.094  -0.491  52.685  1.00  0.00     0.234 C 
HETATM   24  N3  UNL     1      26.877   0.624  52.073  1.00  0.00    -0.225 NA
ENDBRANCH  16  18
ENDBRANCH  14  16
ENDBRANCH   3  14
TORSDOF 7
ENDMDL
MODEL 5
REMARK VINA RESULT:      -7.0      3.507      6.158
REMARK  7 active torsions:
REMARK  status: ('A' for Active; 'I' for Inactive)
REMARK    1  A    between atoms: C5_6  and  C6_7 
REMARK    2  A    between atoms: C6_7  and  O1_8 
REMARK    3  A    between atoms: O1_8  and  C7_9 
REMARK    4  A    between atoms: C7_9  and  C8_10 
REMARK    5  A    between atoms: C9_12  and  C10_13 
REMARK    6  A    between atoms: C10_13  and  N1_15 
REMARK    7  A    between atoms: N1_15  and  C11_16 
ROOT
HETATM    1  C8  UNL     1      23.541   1.757  52.145  1.00  0.00     0.036 C 
HETATM    2 CL1  UNL     1      21.817   1.635  51.941  1.00  0.00    -0.087 Cl
HETATM    3  C9  UNL     1      24.149   1.574  53.309  1.00  0.00     0.052 C 
ENDROOT
BRANCH   1   4
HETATM    4  C7  UNL     1      24.066   2.085  50.811  1.00  0.00     0.219 C 
BRANCH   4   5
HETATM    5  O1  UNL     1      23.571   3.335  50.436  1.00  0.00    -0.381 OA
BRANCH   5   6
HETATM    6  C6  UNL     1      24.344   4.293  51.074  1.00  0.00     0.206 C 
BRANCH   6   7
HETATM    7  C5  UNL     1      25.244   5.007  50.133  1.00  0.00    -0.032 A 
HETATM    8  C4  UNL     1      24.950   6.321  49.774  1.00  0.00     0.009 A 
HETATM    9  C3  UNL     1      25.771   7.022  48.895  1.00  0.00     0.004 A 
HETATM   10  C2  UNL     1      26.901   6.437  48.352  1.00  0.00     0.042 A 
HETATM   11  C1  UNL     1      27.185   5.126  48.715  1.00  0.00     0.117 A 
HETATM   12  F1  UNL     1      28.266   4.438  48.251  1.00  0.00    -0.206 F 
HETATM   13  C16 UNL     1      26.380   4.439  49.577  1.00  0.00     0.051 A 
ENDBRANCH   6   7
ENDBRANCH   5   6
ENDBRANCH   4   5
ENDBRANCH   1   4
BRANCH   3  14
HETATM   14  C10 UNL     1      25.621   1.684  53.474  1.00  0.00     0.295 C 
HETATM   15  F2  UNL     1      25.911   2.929  53.954  1.00  0.00    -0.222 F 
BRANCH  14  16
HETATM   16  N1  UNL     1      26.183   0.627  54.300  1.00  0.00    -0.342 N 
HETATM   17  H10 UNL     1      25.926   0.458  55.311  1.00  0.00     0.164 HD
BRANCH  16  18
HETATM   18  C11 UNL     1      27.137  -0.254  53.757  1.00  0.00     0.123 C 
HETATM   19  C12 UNL     1      28.433  -0.225  54.027  1.00  0.00     0.028 C 
HETATM   20  C13 UNL     1      29.656  -0.983  53.637  1.00  0.00     0.077 C 
HETATM   21  C14 UNL     1      29.309  -2.388  53.341  1.00  0.00     0.095 C 
HETATM   22  N2  UNL     1      28.263  -2.955  52.872  1.00  0.00    -0.258 NA
HETATM   23  C15 UNL     1      27.011  -2.371  52.456  1.00  0.00     0.234 C 
HETATM   24  N3  UNL     1      26.570  -1.225  52.852  1.00  0.00    -0.225 NA
ENDBRANCH  16  18
ENDBRANCH  14  16
ENDBRANCH   3  14
TORSDOF 7
ENDMDL
MODEL 6
REMARK VINA RESULT:      -7.0      3.393      6.596
REMARK  7 active torsions:
REMARK  status: ('A' for Active; 'I' for Inactive)
REMARK    1  A    between atoms: C5_6  and  C6_7 
REMARK    2  A    between atoms: C6_7  and  O1_8 
REMARK    3  A    between atoms: O1_8  and  C7_9 
REMARK    4  A    between atoms: C7_9  and  C8_10 
REMARK    5  A    between atoms: C9_12  and  C10_13 
REMARK    6  A    between atoms: C10_13  and  N1_15 
REMARK    7  A    between atoms: N1_15  and  C11_16 
ROOT
HETATM    1  C8  UNL     1      23.870   3.480  51.199  1.00  0.00     0.036 C 
HETATM    2 CL1  UNL     1      22.436   4.448  51.002  1.00  0.00    -0.087 Cl
HETATM    3  C9  UNL     1      24.898   3.528  50.363  1.00  0.00     0.052 C 
ENDROOT
BRANCH   1   4
HETATM    4  C7  UNL     1      23.636   2.686  52.414  1.00  0.00     0.219 C 
BRANCH   4   5
HETATM    5  O1  UNL     1      22.295   2.300  52.439  1.00  0.00    -0.381 OA
BRANCH   5   6
HETATM    6  C6  UNL     1      22.249   0.949  52.131  1.00  0.00     0.206 C 
BRANCH   6   7
HETATM    7  C5  UNL     1      20.865   0.411  52.166  1.00  0.00    -0.032 A 
HETATM    8  C4  UNL     1      20.424  -0.263  53.302  1.00  0.00     0.009 A 
HETATM    9  C3  UNL     1      19.134  -0.780  53.370  1.00  0.00     0.004 A 
HETATM   10  C2  UNL     1      18.251  -0.640  52.315  1.00  0.00     0.042 A 
HETATM   11  C1  UNL     1      18.699   0.035  51.186  1.00  0.00     0.117 A 
HETATM   12  F1  UNL     1      17.929   0.239  50.080  1.00  0.00    -0.206 F 
HETATM   13  C16 UNL     1      19.965   0.541  51.119  1.00  0.00     0.051 A 
ENDBRANCH   6   7
ENDBRANCH   5   6
ENDBRANCH   4   5
ENDBRANCH   1   4
BRANCH   3  14
HETATM   14  C10 UNL     1      26.116   2.695  50.537  1.00  0.00     0.295 C 
HETATM   15  F2  UNL     1      26.864   2.778  49.398  1.00  0.00    -0.222 F 
BRANCH  14  16
HETATM   16  N1  UNL     1      26.878   3.041  51.727  1.00  0.00    -0.342 N 
HETATM   17  H10 UNL     1      27.035   4.027  52.071  1.00  0.00     0.164 HD
BRANCH  16  18
HETATM   18  C11 UNL     1      27.464   2.023  52.503  1.00  0.00     0.123 C 
HETATM   19  C12 UNL     1      28.377   2.219  53.441  1.00  0.00     0.028 C 
HETATM   20  C13 UNL     1      29.164   1.394  54.402  1.00  0.00     0.077 C 
HETATM   21  C14 UNL     1      28.389   0.200  54.798  1.00  0.00     0.095 C 
HETATM   22  N2  UNL     1      27.516  -0.519  54.201  1.00  0.00    -0.258 NA
HETATM   23  C15 UNL     1      26.975  -0.389  52.870  1.00  0.00     0.234 C 
HETATM   24  N3  UNL     1      26.972   0.704  52.184  1.00  0.00    -0.225 NA
ENDBRANCH  16  18
ENDBRANCH  14  16
ENDBRANCH   3  14
TORSDOF 7
ENDMDL
MODEL 7
REMARK VINA RESULT:      -7.0      3.205      5.881
REMARK  7 active torsions:
REMARK  status: ('A' for Active; 'I' for Inactive)
REMARK    1  A    between atoms: C5_6  and  C6_7 
REMARK    2  A    between atoms: C6_7  and  O1_8 
REMARK    3  A    between atoms: O1_8  and  C7_9 
REMARK    4  A    between atoms: C7_9  and  C8_10 
REMARK    5  A    between atoms: C9_12  and  C10_13 
REMARK    6  A    between atoms: C10_13  and  N1_15 
REMARK    7  A    between atoms: N1_15  and  C11_16 
ROOT
HETATM    1  C8  UNL     1      23.163   4.421  51.473  1.00  0.00     0.036 C 
HETATM    2 CL1  UNL     1      22.422   5.843  50.795  1.00  0.00    -0.087 Cl
HETATM    3  C9  UNL     1      24.396   4.034  51.176  1.00  0.00     0.052 C 
ENDROOT
BRANCH   1   4
HETATM    4  C7  UNL     1      22.145   3.841  52.361  1.00  0.00     0.219 C 
BRANCH   4   5
HETATM    5  O1  UNL     1      21.653   2.677  51.769  1.00  0.00    -0.381 OA
BRANCH   5   6
HETATM    6  C6  UNL     1      20.609   2.222  52.560  1.00  0.00     0.206 C 
BRANCH   6   7
HETATM    7  C5  UNL     1      20.890   0.888  53.149  1.00  0.00    -0.032 A 
HETATM    8  C4  UNL     1      22.179   0.596  53.590  1.00  0.00     0.009 A 
HETATM    9  C3  UNL     1      22.479  -0.643  54.148  1.00  0.00     0.004 A 
HETATM   10  C2  UNL     1      21.510  -1.621  54.283  1.00  0.00     0.042 A 
HETATM   11  C1  UNL     1      20.227  -1.320  53.841  1.00  0.00     0.117 A 
HETATM   12  F1  UNL     1      19.185  -2.194  53.917  1.00  0.00    -0.206 F 
HETATM   13  C16 UNL     1      19.933  -0.105  53.293  1.00  0.00     0.051 A 
ENDBRANCH   6   7
ENDBRANCH   5   6
ENDBRANCH   4   5
ENDBRANCH   1   4
BRANCH   3  14
HETATM   14  C10 UNL     1      25.019   2.817  51.757  1.00  0.00     0.295 C 
HETATM   15  F2  UNL     1      24.462   1.721  51.164  1.00  0.00    -0.222 F 
BRANCH  14  16
HETATM   16  N1  UNL     1      26.470   2.820  51.664  1.00  0.00    -0.342 N 
HETATM   17  H10 UNL     1      27.029   3.464  51.041  1.00  0.00     0.164 HD
BRANCH  16  18
HETATM   18  C11 UNL     1      27.223   1.919  52.440  1.00  0.00     0.123 C 
HETATM   19  C12 UNL     1      28.142   2.269  53.327  1.00  0.00     0.028 C 
HETATM   20  C13 UNL     1      29.075   1.591  54.273  1.00  0.00     0.077 C 
HETATM   21  C14 UNL     1      28.488   0.318  54.740  1.00  0.00     0.095 C 
HETATM   22  N2  UNL     1      27.696  -0.532  54.206  1.00  0.00    -0.258 NA
HETATM   23  C15 UNL     1      27.085  -0.523  52.900  1.00  0.00     0.234 C 
HETATM   24  N3  UNL     1      26.902   0.535  52.184  1.00  0.00    -0.225 NA
ENDBRANCH  16  18
ENDBRANCH  14  16
ENDBRANCH   3  14
TORSDOF 7
ENDMDL
MODEL 8
REMARK VINA RESULT:      -6.9      1.828      2.285
REMARK  7 active torsions:
REMARK  status: ('A' for Active; 'I' for Inactive)
REMARK    1  A    between atoms: C5_6  and  C6_7 
REMARK    2  A    between atoms: C6_7  and  O1_8 
REMARK    3  A    between atoms: O1_8  and  C7_9 
REMARK    4  A    between atoms: C7_9  and  C8_10 
REMARK    5  A    between atoms: C9_12  and  C10_13 
REMARK    6  A    between atoms: C10_13  and  N1_15 
REMARK    7  A    between atoms: N1_15  and  C11_16 
ROOT
HETATM    1  C8  UNL     1      24.992   4.721  50.271  1.00  0.00     0.036 C 
HETATM    2 CL1  UNL     1      25.550   5.806  49.029  1.00  0.00    -0.087 Cl
HETATM    3  C9  UNL     1      24.201   5.101  51.264  1.00  0.00     0.052 C 
ENDROOT
BRANCH   1   4
HETATM    4  C7  UNL     1      25.585   3.417  49.939  1.00  0.00     0.219 C 
BRANCH   4   5
HETATM    5  O1  UNL     1      26.502   3.082  50.936  1.00  0.00    -0.381 OA
BRANCH   5   6
HETATM    6  C6  UNL     1      26.345   1.731  51.204  1.00  0.00     0.206 C 
BRANCH   6   7
HETATM    7  C5  UNL     1      27.231   1.268  52.302  1.00  0.00    -0.032 A 
HETATM    8  C4  UNL     1      27.223  -0.077  52.664  1.00  0.00     0.009 A 
HETATM    9  C3  UNL     1      28.041  -0.546  53.688  1.00  0.00     0.004 A 
HETATM   10  C2  UNL     1      28.885   0.306  54.376  1.00  0.00     0.042 A 
HETATM   11  C1  UNL     1      28.887   1.646  54.007  1.00  0.00     0.117 A 
HETATM   12  F1  UNL     1      29.672   2.586  54.605  1.00  0.00    -0.206 F 
HETATM   13  C16 UNL     1      28.085   2.106  53.003  1.00  0.00     0.051 A 
ENDBRANCH   6   7
ENDBRANCH   5   6
ENDBRANCH   4   5
ENDBRANCH   1   4
BRANCH   3  14
HETATM   14  C10 UNL     1      23.733   4.169  52.322  1.00  0.00     0.295 C 
HETATM   15  F2  UNL     1      23.573   4.874  53.480  1.00  0.00    -0.222 F 
BRANCH  14  16
HETATM   16  N1  UNL     1      22.532   3.439  51.948  1.00  0.00    -0.342 N 
HETATM   17  H10 UNL     1      21.702   3.866  51.454  1.00  0.00     0.164 HD
BRANCH  16  18
HETATM   18  C11 UNL     1      22.427   2.067  52.244  1.00  0.00     0.123 C 
HETATM   19  C12 UNL     1      23.319   1.370  52.930  1.00  0.00     0.028 C 
HETATM   20  C13 UNL     1      23.498  -0.035  53.397  1.00  0.00     0.077 C 
HETATM   21  C14 UNL     1      22.181  -0.658  53.645  1.00  0.00     0.095 C 
HETATM   22  N2  UNL     1      21.024  -0.503  53.124  1.00  0.00    -0.258 NA
HETATM   23  C15 UNL     1      20.605   0.381  52.064  1.00  0.00     0.234 C 
HETATM   24  N3  UNL     1      21.226   1.459  51.721  1.00  0.00    -0.225 NA
ENDBRANCH  16  18
ENDBRANCH  14  16
ENDBRANCH   3  14
TORSDOF 7
ENDMDL
MODEL 9
REMARK VINA RESULT:      -6.9      4.801      6.717
REMARK  7 active torsions:
REMARK  status: ('A' for Active; 'I' for Inactive)
REMARK    1  A    between atoms: C5_6  and  C6_7 
REMARK    2  A    between atoms: C6_7  and  O1_8 
REMARK    3  A    between atoms: O1_8  and  C7_9 
REMARK    4  A    between atoms: C7_9  and  C8_10 
REMARK    5  A    between atoms: C9_12  and  C10_13 
REMARK    6  A    between atoms: C10_13  and  N1_15 
REMARK    7  A    between atoms: N1_15  and  C11_16 
ROOT
HETATM    1  C8  UNL     1      24.758   4.959  49.550  1.00  0.00     0.036 C 
HETATM    2 CL1  UNL     1      23.187   5.668  49.303  1.00  0.00    -0.087 Cl
HETATM    3  C9  UNL     1      24.958   3.651  49.637  1.00  0.00     0.052 C 
ENDROOT
BRANCH   1   4
HETATM    4  C7  UNL     1      25.687   6.096  49.628  1.00  0.00     0.219 C 
BRANCH   4   5
HETATM    5  O1  UNL     1      26.133   6.392  48.340  1.00  0.00    -0.381 OA
BRANCH   5   6
HETATM    6  C6  UNL     1      26.905   7.541  48.424  1.00  0.00     0.206 C 
BRANCH   6   7
HETATM    7  C5  UNL     1      28.360   7.246  48.389  1.00  0.00    -0.032 A 
HETATM    8  C4  UNL     1      29.264   8.233  48.770  1.00  0.00     0.009 A 
HETATM    9  C3  UNL     1      30.635   7.992  48.751  1.00  0.00     0.004 A 
HETATM   10  C2  UNL     1      31.140   6.767  48.352  1.00  0.00     0.042 A 
HETATM   11  C1  UNL     1      30.229   5.788  47.974  1.00  0.00     0.117 A 
HETATM   12  F1  UNL     1      30.598   4.543  47.562  1.00  0.00    -0.206 F 
HETATM   13  C16 UNL     1      28.886   6.025  47.993  1.00  0.00     0.051 A 
ENDBRANCH   6   7
ENDBRANCH   5   6
ENDBRANCH   4   5
ENDBRANCH   1   4
BRANCH   3  14
HETATM   14  C10 UNL     1      26.302   3.055  49.851  1.00  0.00     0.295 C 
HETATM   15  F2  UNL     1      27.156   3.565  48.916  1.00  0.00    -0.222 F 
BRANCH  14  16
HETATM   16  N1  UNL     1      26.795   3.235  51.207  1.00  0.00    -0.342 N 
HETATM   17  H10 UNL     1      26.961   4.172  51.664  1.00  0.00     0.164 HD
BRANCH  16  18
HETATM   18  C11 UNL     1      27.083   2.109  52.002  1.00  0.00     0.123 C 
HETATM   19  C12 UNL     1      26.499   0.927  51.879  1.00  0.00     0.028 C 
HETATM   20  C13 UNL     1      26.573  -0.411  52.533  1.00  0.00     0.077 C 
HETATM   21  C14 UNL     1      27.943  -0.656  53.032  1.00  0.00     0.095 C 
HETATM   22  N2  UNL     1      28.868   0.109  53.473  1.00  0.00    -0.258 NA
HETATM   23  C15 UNL     1      28.873   1.543  53.635  1.00  0.00     0.234 C 
HETATM   24  N3  UNL     1      28.102   2.355  52.994  1.00  0.00    -0.225 NA
ENDBRANCH  16  18
ENDBRANCH  14  16
ENDBRANCH   3  14
TORSDOF 7
ENDMDL
