MODEL 1
REMARK VINA RESULT:      -8.7      0.000      0.000
REMARK  7 active torsions:
REMARK  status: ('A' for Active; 'I' for Inactive)
REMARK    1  A    between atoms: C2_2  and  C3_3 
REMARK    2  A    between atoms: C4_4  and  C5_5 
REMARK    3  A    between atoms: C6_6  and  C7_7 
REMARK    4  A    between atoms: C7_7  and  C8_8 
REMARK    5  A    between atoms: C7_7  and  C9_10 
REMARK    6  A    between atoms: C8_8  and  O1_9 
REMARK    7  A    between atoms: C10_11  and  C11_12 
ROOT
HETATM    1  C9  UNL     1      22.737   1.989  52.573  1.00  0.00    -0.002 C 
HETATM    2  C10 UNL     1      23.859   2.776  52.615  1.00  0.00     0.096 C 
HETATM    3  O2  UNL     1      25.091   2.659  53.290  1.00  0.00    -0.290 OA
HETATM    4  C17 UNL     1      25.728   1.456  53.636  1.00  0.00     0.183 A 
HETATM    5  N1  UNL     1      27.085   1.492  53.682  1.00  0.00    -0.217 NA
HETATM    6  C18 UNL     1      27.798   0.401  53.995  1.00  0.00     0.235 A 
HETATM    7  N2  UNL     1      27.208  -0.797  54.282  1.00  0.00    -0.253 NA
HETATM    8  C19 UNL     1      25.842  -0.876  54.247  1.00  0.00     0.134 A 
HETATM    9  C20 UNL     1      25.144   0.263  53.925  1.00  0.00     0.046 A 
HETATM   10  C21 UNL     1      23.737  -0.008  53.953  1.00  0.00    -0.009 A 
HETATM   11  C22 UNL     1      23.435  -1.154  54.643  1.00  0.00     0.013 A 
HETATM   12  C23 UNL     1      22.123  -1.634  54.741  1.00  0.00     0.001 A 
HETATM   13  C24 UNL     1      21.141  -0.877  54.093  1.00  0.00     0.001 A 
HETATM   14  C25 UNL     1      21.491   0.263  53.415  1.00  0.00     0.013 A 
HETATM   15  C26 UNL     1      22.768   0.733  53.323  1.00  0.00    -0.015 A 
ENDROOT
BRANCH   1  16
HETATM   16  C7  UNL     1      21.639   2.453  51.759  1.00  0.00     0.068 C 
BRANCH  16  17
HETATM   17  C6  UNL     1      21.756   2.222  50.270  1.00  0.00    -0.015 C 
HETATM   18  C5  UNL     1      22.354   2.287  49.121  1.00  0.00    -0.003 C 
BRANCH  18  19
HETATM   19  C4  UNL     1      21.896   1.818  47.821  1.00  0.00    -0.001 C 
HETATM   20  C3  UNL     1      22.054   2.913  47.107  1.00  0.00    -0.004 C 
BRANCH  20  21
HETATM   21  C2  UNL     1      22.577   4.051  47.836  1.00  0.00    -0.026 C 
HETATM   22  C1  UNL     1      22.498   5.269  47.331  1.00  0.00     0.031 C 
ENDBRANCH  20  21
ENDBRANCH  18  19
ENDBRANCH  16  17
BRANCH  16  23
HETATM   23  C8  UNL     1      20.248   2.505  52.242  1.00  0.00     0.177 C 
BRANCH  23  24
HETATM   24  O1  UNL     1      19.645   3.763  52.232  1.00  0.00    -0.400 OA
HETATM   25  H11 UNL     1      20.253   4.446  51.889  1.00  0.00     0.209 HD
ENDBRANCH  23  24
ENDBRANCH  16  23
ENDBRANCH   1  16
BRANCH   2  26
HETATM   26  C11 UNL     1      24.001   4.059  51.868  1.00  0.00    -0.002 A 
HETATM   27  C12 UNL     1      23.394   5.318  51.967  1.00  0.00     0.014 A 
HETATM   28  C13 UNL     1      23.772   6.344  51.143  1.00  0.00     0.001 A 
HETATM   29  C14 UNL     1      24.749   6.213  50.184  1.00  0.00     0.000 A 
HETATM   30  C15 UNL     1      25.392   5.008  50.022  1.00  0.00     0.001 A 
HETATM   31  C16 UNL     1      24.994   3.976  50.870  1.00  0.00     0.014 A 
ENDBRANCH   2  26
TORSDOF 7
ENDMDL
MODEL 2
REMARK VINA RESULT:      -8.7      2.737      6.554
REMARK  7 active torsions:
REMARK  status: ('A' for Active; 'I' for Inactive)
REMARK    1  A    between atoms: C2_2  and  C3_3 
REMARK    2  A    between atoms: C4_4  and  C5_5 
REMARK    3  A    between atoms: C6_6  and  C7_7 
REMARK    4  A    between atoms: C7_7  and  C8_8 
REMARK    5  A    between atoms: C7_7  and  C9_10 
REMARK    6  A    between atoms: C8_8  and  O1_9 
REMARK    7  A    between atoms: C10_11  and  C11_12 
ROOT
HETATM    1  C9  UNL     1      24.396   3.959  51.065  1.00  0.00    -0.002 C 
HETATM    2  C10 UNL     1      25.605   3.318  50.957  1.00  0.00     0.096 C 
HETATM    3  O2  UNL     1      26.651   3.393  50.017  1.00  0.00    -0.290 OA
HETATM    4  C17 UNL     1      27.006   4.527  49.269  1.00  0.00     0.183 A 
HETATM    5  N1  UNL     1      28.317   4.633  48.930  1.00  0.00    -0.217 NA
HETATM    6  C18 UNL     1      28.770   5.678  48.222  1.00  0.00     0.235 A 
HETATM    7  N2  UNL     1      27.947   6.685  47.805  1.00  0.00    -0.253 NA
HETATM    8  C19 UNL     1      26.618   6.617  48.124  1.00  0.00     0.134 A 
HETATM    9  C20 UNL     1      26.190   5.531  48.849  1.00  0.00     0.046 A 
HETATM   10  C21 UNL     1      24.778   5.626  49.073  1.00  0.00    -0.009 A 
HETATM   11  C22 UNL     1      24.167   6.511  48.222  1.00  0.00     0.013 A 
HETATM   12  C23 UNL     1      22.800   6.799  48.311  1.00  0.00     0.001 A 
HETATM   13  C24 UNL     1      22.095   6.132  49.318  1.00  0.00     0.001 A 
HETATM   14  C25 UNL     1      22.748   5.255  50.146  1.00  0.00     0.013 A 
HETATM   15  C26 UNL     1      24.080   4.971  50.058  1.00  0.00    -0.015 A 
ENDROOT
BRANCH   1  16
HETATM   16  C7  UNL     1      23.563   3.604  52.189  1.00  0.00     0.068 C 
BRANCH  16  17
HETATM   17  C6  UNL     1      23.019   2.194  52.210  1.00  0.00    -0.015 C 
HETATM   18  C5  UNL     1      22.748   1.055  52.767  1.00  0.00    -0.003 C 
BRANCH  18  19
HETATM   19  C4  UNL     1      22.111  -0.119  52.189  1.00  0.00    -0.001 C 
HETATM   20  C3  UNL     1      22.471  -1.036  53.063  1.00  0.00    -0.004 C 
BRANCH  20  21
HETATM   21  C2  UNL     1      23.288  -0.552  54.158  1.00  0.00    -0.026 C 
HETATM   22  C1  UNL     1      23.422  -1.264  55.264  1.00  0.00     0.031 C 
ENDBRANCH  20  21
ENDBRANCH  18  19
ENDBRANCH  16  17
BRANCH  16  23
HETATM   23  C8  UNL     1      23.728   4.194  53.529  1.00  0.00     0.177 C 
BRANCH  23  24
HETATM   24  O1  UNL     1      24.061   5.548  53.562  1.00  0.00    -0.400 OA
HETATM   25  H11 UNL     1      23.621   6.005  54.305  1.00  0.00     0.209 HD
ENDBRANCH  23  24
ENDBRANCH  16  23
ENDBRANCH   1  16
BRANCH   2  26
HETATM   26  C11 UNL     1      26.093   2.299  51.930  1.00  0.00    -0.002 A 
HETATM   27  C12 UNL     1      26.456   2.337  53.283  1.00  0.00     0.014 A 
HETATM   28  C13 UNL     1      26.836   1.197  53.938  1.00  0.00     0.001 A 
HETATM   29  C14 UNL     1      26.887  -0.035  53.328  1.00  0.00     0.000 A 
HETATM   30  C15 UNL     1      26.547  -0.156  52.001  1.00  0.00     0.001 A 
HETATM   31  C16 UNL     1      26.162   1.016  51.352  1.00  0.00     0.014 A 
ENDBRANCH   2  26
TORSDOF 7
ENDMDL
MODEL 3
REMARK VINA RESULT:      -8.7      2.882      5.865
REMARK  7 active torsions:
REMARK  status: ('A' for Active; 'I' for Inactive)
REMARK    1  A    between atoms: C2_2  and  C3_3 
REMARK    2  A    between atoms: C4_4  and  C5_5 
REMARK    3  A    between atoms: C6_6  and  C7_7 
REMARK    4  A    between atoms: C7_7  and  C8_8 
REMARK    5  A    between atoms: C7_7  and  C9_10 
REMARK    6  A    between atoms: C8_8  and  O1_9 
REMARK    7  A    between atoms: C10_11  and  C11_12 
ROOT
HETATM    1  C9  UNL     1      23.461   1.143  52.424  1.00  0.00    -0.002 C 
HETATM    2  C10 UNL     1      23.370   1.827  51.238  1.00  0.00     0.096 C 
HETATM    3  O2  UNL     1      22.336   1.978  50.293  1.00  0.00    -0.290 OA
HETATM    4  C17 UNL     1      20.960   1.957  50.569  1.00  0.00     0.183 A 
HETATM    5  N1  UNL     1      20.174   2.705  49.751  1.00  0.00    -0.217 NA
HETATM    6  C18 UNL     1      18.847   2.763  49.925  1.00  0.00     0.235 A 
HETATM    7  N2  UNL     1      18.213   2.082  50.925  1.00  0.00    -0.253 NA
HETATM    8  C19 UNL     1      18.967   1.316  51.772  1.00  0.00     0.134 A 
HETATM    9  C20 UNL     1      20.325   1.278  51.562  1.00  0.00     0.046 A 
HETATM   10  C21 UNL     1      20.940   0.420  52.531  1.00  0.00    -0.009 A 
HETATM   11  C22 UNL     1      20.041  -0.418  53.139  1.00  0.00     0.013 A 
HETATM   12  C23 UNL     1      20.423  -1.297  54.161  1.00  0.00     0.001 A 
HETATM   13  C24 UNL     1      21.774  -1.269  54.523  1.00  0.00     0.001 A 
HETATM   14  C25 UNL     1      22.636  -0.414  53.885  1.00  0.00     0.013 A 
HETATM   15  C26 UNL     1      22.266   0.440  52.887  1.00  0.00    -0.015 A 
ENDROOT
BRANCH   1  16
HETATM   16  C7  UNL     1      24.719   1.214  53.128  1.00  0.00     0.068 C 
BRANCH  16  17
HETATM   17  C6  UNL     1      25.684   0.072  52.906  1.00  0.00    -0.015 C 
HETATM   18  C5  UNL     1      26.851  -0.441  52.666  1.00  0.00    -0.003 C 
BRANCH  18  19
HETATM   19  C4  UNL     1      27.228  -1.842  52.548  1.00  0.00    -0.001 C 
HETATM   20  C3  UNL     1      28.444  -1.801  53.053  1.00  0.00    -0.004 C 
BRANCH  20  21
HETATM   21  C2  UNL     1      28.884  -0.490  53.488  1.00  0.00    -0.026 C 
HETATM   22  C1  UNL     1      30.171  -0.217  53.608  1.00  0.00     0.031 C 
ENDBRANCH  20  21
ENDBRANCH  18  19
ENDBRANCH  16  17
BRANCH  16  23
HETATM   23  C8  UNL     1      25.378   2.487  53.469  1.00  0.00     0.177 C 
BRANCH  23  24
HETATM   24  O1  UNL     1      26.558   2.386  54.205  1.00  0.00    -0.400 OA
HETATM   25  H11 UNL     1      27.248   2.983  53.855  1.00  0.00     0.209 HD
ENDBRANCH  23  24
ENDBRANCH  16  23
ENDBRANCH   1  16
BRANCH   2  26
HETATM   26  C11 UNL     1      24.484   2.631  50.657  1.00  0.00    -0.002 A 
HETATM   27  C12 UNL     1      25.759   2.320  50.167  1.00  0.00     0.014 A 
HETATM   28  C13 UNL     1      26.564   3.295  49.642  1.00  0.00     0.001 A 
HETATM   29  C14 UNL     1      26.186   4.615  49.563  1.00  0.00     0.000 A 
HETATM   30  C15 UNL     1      24.950   5.002  50.024  1.00  0.00     0.001 A 
HETATM   31  C16 UNL     1      24.145   3.996  50.554  1.00  0.00     0.014 A 
ENDBRANCH   2  26
TORSDOF 7
ENDMDL
MODEL 4
REMARK VINA RESULT:      -8.6      1.975      2.868
REMARK  7 active torsions:
REMARK  status: ('A' for Active; 'I' for Inactive)
REMARK    1  A    between atoms: C2_2  and  C3_3 
REMARK    2  A    between atoms: C4_4  and  C5_5 
REMARK    3  A    between atoms: C6_6  and  C7_7 
REMARK    4  A    between atoms: C7_7  and  C8_8 
REMARK    5  A    between atoms: C7_7  and  C9_10 
REMARK    6  A    between atoms: C8_8  and  O1_9 
REMARK    7  A    between atoms: C10_11  and  C11_12 
ROOT
HETATM    1  C9  UNL     1      23.783   2.476  50.910  1.00  0.00    -0.002 C 
HETATM    2  C10 UNL     1      25.036   2.999  51.103  1.00  0.00     0.096 C 
HETATM    3  O2  UNL     1      26.079   2.689  51.999  1.00  0.00    -0.290 OA
HETATM    4  C17 UNL     1      26.352   1.420  52.535  1.00  0.00     0.183 A 
HETATM    5  N1  UNL     1      27.654   1.163  52.827  1.00  0.00    -0.217 NA
HETATM    6  C18 UNL     1      28.031  -0.018  53.338  1.00  0.00     0.235 A 
HETATM    7  N2  UNL     1      27.138  -1.020  53.592  1.00  0.00    -0.253 NA
HETATM    8  C19 UNL     1      25.816  -0.802  53.313  1.00  0.00     0.134 A 
HETATM    9  C20 UNL     1      25.466   0.421  52.792  1.00  0.00     0.046 A 
HETATM   10  C21 UNL     1      24.049   0.468  52.580  1.00  0.00    -0.009 A 
HETATM   11  C22 UNL     1      23.379  -0.503  53.279  1.00  0.00     0.013 A 
HETATM   12  C23 UNL     1      21.993  -0.672  53.167  1.00  0.00     0.001 A 
HETATM   13  C24 UNL     1      21.335   0.208  52.300  1.00  0.00     0.001 A 
HETATM   14  C25 UNL     1      22.048   1.164  51.624  1.00  0.00     0.013 A 
HETATM   15  C26 UNL     1      23.397   1.332  51.735  1.00  0.00    -0.015 A 
ENDROOT
BRANCH   1  16
HETATM   16  C7  UNL     1      22.972   3.078  49.878  1.00  0.00     0.068 C 
BRANCH  16  17
HETATM   17  C6  UNL     1      22.292   4.382  50.227  1.00  0.00    -0.015 C 
HETATM   18  C5  UNL     1      21.906   5.597  49.991  1.00  0.00    -0.003 C 
BRANCH  18  19
HETATM   19  C4  UNL     1      21.160   6.505  50.851  1.00  0.00    -0.001 C 
HETATM   20  C3  UNL     1      21.527   7.663  50.344  1.00  0.00    -0.004 C 
BRANCH  20  21
HETATM   21  C2  UNL     1      22.448   7.581  49.227  1.00  0.00    -0.026 C 
HETATM   22  C1  UNL     1      23.152   8.635  48.856  1.00  0.00     0.031 C 
ENDBRANCH  20  21
ENDBRANCH  18  19
ENDBRANCH  16  17
BRANCH  16  23
HETATM   23  C8  UNL     1      23.259   2.926  48.441  1.00  0.00     0.177 C 
BRANCH  23  24
HETATM   24  O1  UNL     1      22.539   1.932  47.777  1.00  0.00    -0.400 OA
HETATM   25  H11 UNL     1      22.966   1.687  46.934  1.00  0.00     0.209 HD
ENDBRANCH  23  24
ENDBRANCH  16  23
ENDBRANCH   1  16
BRANCH   2  26
HETATM   26  C11 UNL     1      25.594   4.132  50.310  1.00  0.00    -0.002 A 
HETATM   27  C12 UNL     1      25.293   5.497  50.214  1.00  0.00     0.014 A 
HETATM   28  C13 UNL     1      26.029   6.321  49.406  1.00  0.00     0.001 A 
HETATM   29  C14 UNL     1      27.087   5.876  48.649  1.00  0.00     0.000 A 
HETATM   30  C15 UNL     1      27.445   4.549  48.686  1.00  0.00     0.001 A 
HETATM   31  C16 UNL     1      26.685   3.726  49.515  1.00  0.00     0.014 A 
ENDBRANCH   2  26
TORSDOF 7
ENDMDL
MODEL 5
REMARK VINA RESULT:      -8.3      2.239      4.378
REMARK  7 active torsions:
REMARK  status: ('A' for Active; 'I' for Inactive)
REMARK    1  A    between atoms: C2_2  and  C3_3 
REMARK    2  A    between atoms: C4_4  and  C5_5 
REMARK    3  A    between atoms: C6_6  and  C7_7 
REMARK    4  A    between atoms: C7_7  and  C8_8 
REMARK    5  A    between atoms: C7_7  and  C9_10 
REMARK    6  A    between atoms: C8_8  and  O1_9 
REMARK    7  A    between atoms: C10_11  and  C11_12 
ROOT
HETATM    1  C9  UNL     1      24.016   2.383  52.358  1.00  0.00    -0.002 C 
HETATM    2  C10 UNL     1      22.805   2.006  51.834  1.00  0.00     0.096 C 
HETATM    3  O2  UNL     1      22.054   0.817  51.910  1.00  0.00    -0.290 OA
HETATM    4  C17 UNL     1      22.048  -0.085  52.986  1.00  0.00     0.183 A 
HETATM    5  N1  UNL     1      20.891  -0.770  53.185  1.00  0.00    -0.217 NA
HETATM    6  C18 UNL     1      20.770  -1.653  54.186  1.00  0.00     0.235 A 
HETATM    7  N2  UNL     1      21.792  -1.913  55.055  1.00  0.00    -0.253 NA
HETATM    8  C19 UNL     1      22.975  -1.245  54.890  1.00  0.00     0.134 A 
HETATM    9  C20 UNL     1      23.063  -0.349  53.851  1.00  0.00     0.046 A 
HETATM   10  C21 UNL     1      24.371   0.237  53.829  1.00  0.00    -0.009 A 
HETATM   11  C22 UNL     1      25.286  -0.487  54.550  1.00  0.00     0.013 A 
HETATM   12  C23 UNL     1      26.609  -0.058  54.708  1.00  0.00     0.001 A 
HETATM   13  C24 UNL     1      26.942   1.151  54.087  1.00  0.00     0.001 A 
HETATM   14  C25 UNL     1      25.994   1.839  53.375  1.00  0.00     0.013 A 
HETATM   15  C26 UNL     1      24.705   1.421  53.218  1.00  0.00    -0.015 A 
ENDROOT
BRANCH   1  16
HETATM   16  C7  UNL     1      24.482   3.713  52.046  1.00  0.00     0.068 C 
BRANCH  16  17
HETATM   17  C6  UNL     1      25.434   3.840  50.879  1.00  0.00    -0.015 C 
HETATM   18  C5  UNL     1      25.853   4.352  49.764  1.00  0.00    -0.003 C 
BRANCH  18  19
HETATM   19  C4  UNL     1      27.032   4.007  48.983  1.00  0.00    -0.001 C 
HETATM   20  C3  UNL     1      27.374   5.198  48.535  1.00  0.00    -0.004 C 
BRANCH  20  21
HETATM   21  C2  UNL     1      26.514   6.284  48.963  1.00  0.00    -0.026 C 
HETATM   22  C1  UNL     1      26.631   7.486  48.427  1.00  0.00     0.031 C 
ENDBRANCH  20  21
ENDBRANCH  18  19
ENDBRANCH  16  17
BRANCH  16  23
HETATM   23  C8  UNL     1      23.675   4.923  52.286  1.00  0.00     0.177 C 
BRANCH  23  24
HETATM   24  O1  UNL     1      23.741   5.454  53.573  1.00  0.00    -0.400 OA
HETATM   25  H11 UNL     1      24.508   6.051  53.673  1.00  0.00     0.209 HD
ENDBRANCH  23  24
ENDBRANCH  16  23
ENDBRANCH   1  16
BRANCH   2  26
HETATM   26  C11 UNL     1      21.961   2.890  50.981  1.00  0.00    -0.002 A 
HETATM   27  C12 UNL     1      22.024   3.307  49.644  1.00  0.00     0.014 A 
HETATM   28  C13 UNL     1      21.051   4.111  49.115  1.00  0.00     0.001 A 
HETATM   29  C14 UNL     1      19.971   4.557  49.841  1.00  0.00     0.000 A 
HETATM   30  C15 UNL     1      19.837   4.194  51.161  1.00  0.00     0.001 A 
HETATM   31  C16 UNL     1      20.837   3.374  51.681  1.00  0.00     0.014 A 
ENDBRANCH   2  26
TORSDOF 7
ENDMDL
MODEL 6
REMARK VINA RESULT:      -8.2      2.396      4.769
REMARK  7 active torsions:
REMARK  status: ('A' for Active; 'I' for Inactive)
REMARK    1  A    between atoms: C2_2  and  C3_3 
REMARK    2  A    between atoms: C4_4  and  C5_5 
REMARK    3  A    between atoms: C6_6  and  C7_7 
REMARK    4  A    between atoms: C7_7  and  C8_8 
REMARK    5  A    between atoms: C7_7  and  C9_10 
REMARK    6  A    between atoms: C8_8  and  O1_9 
REMARK    7  A    between atoms: C10_11  and  C11_12 
ROOT
HETATM    1  C9  UNL     1      24.256   2.020  50.934  1.00  0.00    -0.002 C 
HETATM    2  C10 UNL     1      22.990   1.786  50.458  1.00  0.00     0.096 C 
HETATM    3  O2  UNL     1      21.986   0.863  50.812  1.00  0.00    -0.290 OA
HETATM    4  C17 UNL     1      21.775   0.328  52.093  1.00  0.00     0.183 A 
HETATM    5  N1  UNL     1      20.493   0.000  52.400  1.00  0.00    -0.217 NA
HETATM    6  C18 UNL     1      20.174  -0.513  53.596  1.00  0.00     0.235 A 
HETATM    7  N2  UNL     1      21.110  -0.734  54.567  1.00  0.00    -0.253 NA
HETATM    8  C19 UNL     1      22.415  -0.418  54.298  1.00  0.00     0.134 A 
HETATM    9  C20 UNL     1      22.705   0.104  53.060  1.00  0.00     0.046 A 
HETATM   10  C21 UNL     1      24.111   0.357  52.960  1.00  0.00    -0.009 A 
HETATM   11  C22 UNL     1      24.837  -0.315  53.910  1.00  0.00     0.013 A 
HETATM   12  C23 UNL     1      26.224  -0.162  54.027  1.00  0.00     0.001 A 
HETATM   13  C24 UNL     1      26.824   0.717  53.119  1.00  0.00     0.001 A 
HETATM   14  C25 UNL     1      26.057   1.366  52.185  1.00  0.00     0.013 A 
HETATM   15  C26 UNL     1      24.707   1.214  52.068  1.00  0.00    -0.015 A 
ENDROOT
BRANCH   1  16
HETATM   16  C7  UNL     1      25.014   3.070  50.296  1.00  0.00     0.068 C 
BRANCH  16  17
HETATM   17  C6  UNL     1      24.671   4.488  50.690  1.00  0.00    -0.015 C 
HETATM   18  C5  UNL     1      24.025   5.607  50.582  1.00  0.00    -0.003 C 
BRANCH  18  19
HETATM   19  C4  UNL     1      24.147   6.817  51.381  1.00  0.00    -0.001 C 
HETATM   20  C3  UNL     1      23.346   7.621  50.714  1.00  0.00    -0.004 C 
BRANCH  20  21
HETATM   21  C2  UNL     1      22.714   7.031  49.550  1.00  0.00    -0.026 C 
HETATM   22  C1  UNL     1      21.816   7.708  48.856  1.00  0.00     0.031 C 
ENDBRANCH  20  21
ENDBRANCH  18  19
ENDBRANCH  16  17
BRANCH  16  23
HETATM   23  C8  UNL     1      26.410   2.898  49.858  1.00  0.00     0.177 C 
BRANCH  23  24
HETATM   24  O1  UNL     1      27.251   3.993  50.059  1.00  0.00    -0.400 OA
HETATM   25  H11 UNL     1      28.027   3.751  50.601  1.00  0.00     0.209 HD
ENDBRANCH  23  24
ENDBRANCH  16  23
ENDBRANCH   1  16
BRANCH   2  26
HETATM   26  C11 UNL     1      22.369   2.555  49.342  1.00  0.00    -0.002 A 
HETATM   27  C12 UNL     1      22.610   2.641  47.964  1.00  0.00     0.014 A 
HETATM   28  C13 UNL     1      21.823   3.425  47.164  1.00  0.00     0.001 A 
HETATM   29  C14 UNL     1      20.768   4.165  47.645  1.00  0.00     0.000 A 
HETATM   30  C15 UNL     1      20.467   4.136  48.987  1.00  0.00     0.001 A 
HETATM   31  C16 UNL     1      21.279   3.331  49.785  1.00  0.00     0.014 A 
ENDBRANCH   2  26
TORSDOF 7
ENDMDL
MODEL 7
REMARK VINA RESULT:      -8.2      1.564      2.177
REMARK  7 active torsions:
REMARK  status: ('A' for Active; 'I' for Inactive)
REMARK    1  A    between atoms: C2_2  and  C3_3 
REMARK    2  A    between atoms: C4_4  and  C5_5 
REMARK    3  A    between atoms: C6_6  and  C7_7 
REMARK    4  A    between atoms: C7_7  and  C8_8 
REMARK    5  A    between atoms: C7_7  and  C9_10 
REMARK    6  A    between atoms: C8_8  and  O1_9 
REMARK    7  A    between atoms: C10_11  and  C11_12 
ROOT
HETATM    1  C9  UNL     1      22.863   1.927  51.486  1.00  0.00    -0.002 C 
HETATM    2  C10 UNL     1      23.967   2.712  51.707  1.00  0.00     0.096 C 
HETATM    3  O2  UNL     1      24.958   2.716  52.708  1.00  0.00    -0.290 OA
HETATM    4  C17 UNL     1      25.419   1.593  53.414  1.00  0.00     0.183 A 
HETATM    5  N1  UNL     1      26.711   1.637  53.830  1.00  0.00    -0.217 NA
HETATM    6  C18 UNL     1      27.258   0.619  54.508  1.00  0.00     0.235 A 
HETATM    7  N2  UNL     1      26.556  -0.512  54.816  1.00  0.00    -0.253 NA
HETATM    8  C19 UNL     1      25.250  -0.597  54.416  1.00  0.00     0.134 A 
HETATM    9  C20 UNL     1      24.722   0.467  53.725  1.00  0.00     0.046 A 
HETATM   10  C21 UNL     1      23.350   0.203  53.405  1.00  0.00    -0.009 A 
HETATM   11  C22 UNL     1      22.816  -0.805  54.166  1.00  0.00     0.013 A 
HETATM   12  C23 UNL     1      21.507  -1.263  53.974  1.00  0.00     0.001 A 
HETATM   13  C24 UNL     1      20.777  -0.631  52.960  1.00  0.00     0.001 A 
HETATM   14  C25 UNL     1      21.354   0.373  52.226  1.00  0.00     0.013 A 
HETATM   15  C26 UNL     1      22.628   0.822  52.415  1.00  0.00    -0.015 A 
ENDROOT
BRANCH   1  16
HETATM   16  C7  UNL     1      22.054   2.240  50.332  1.00  0.00     0.068 C 
BRANCH  16  17
HETATM   17  C6  UNL     1      21.473   3.634  50.271  1.00  0.00    -0.015 C 
HETATM   18  C5  UNL     1      20.961   4.660  49.666  1.00  0.00    -0.003 C 
BRANCH  18  19
HETATM   19  C4  UNL     1      20.524   5.931  50.226  1.00  0.00    -0.001 C 
HETATM   20  C3  UNL     1      20.872   6.748  49.254  1.00  0.00    -0.004 C 
BRANCH  20  21
HETATM   21  C2  UNL     1      21.498   6.112  48.111  1.00  0.00    -0.026 C 
HETATM   22  C1  UNL     1      22.089   6.837  47.177  1.00  0.00     0.031 C 
ENDBRANCH  20  21
ENDBRANCH  18  19
ENDBRANCH  16  17
BRANCH  16  23
HETATM   23  C8  UNL     1      22.277   1.633  49.008  1.00  0.00     0.177 C 
BRANCH  23  24
HETATM   24  O1  UNL     1      21.168   1.022  48.424  1.00  0.00    -0.400 OA
HETATM   25  H11 UNL     1      21.397   0.614  47.566  1.00  0.00     0.209 HD
ENDBRANCH  23  24
ENDBRANCH  16  23
ENDBRANCH   1  16
BRANCH   2  26
HETATM   26  C11 UNL     1      24.368   3.845  50.824  1.00  0.00    -0.002 A 
HETATM   27  C12 UNL     1      24.918   3.933  49.538  1.00  0.00     0.014 A 
HETATM   28  C13 UNL     1      25.145   5.150  48.955  1.00  0.00     0.001 A 
HETATM   29  C14 UNL     1      24.859   6.343  49.578  1.00  0.00     0.000 A 
HETATM   30  C15 UNL     1      24.318   6.342  50.843  1.00  0.00     0.001 A 
HETATM   31  C16 UNL     1      24.093   5.093  51.418  1.00  0.00     0.014 A 
ENDBRANCH   2  26
TORSDOF 7
ENDMDL
MODEL 8
REMARK VINA RESULT:      -8.0      3.145      4.998
REMARK  7 active torsions:
REMARK  status: ('A' for Active; 'I' for Inactive)
REMARK    1  A    between atoms: C2_2  and  C3_3 
REMARK    2  A    between atoms: C4_4  and  C5_5 
REMARK    3  A    between atoms: C6_6  and  C7_7 
REMARK    4  A    between atoms: C7_7  and  C8_8 
REMARK    5  A    between atoms: C7_7  and  C9_10 
REMARK    6  A    between atoms: C8_8  and  O1_9 
REMARK    7  A    between atoms: C10_11  and  C11_12 
ROOT
HETATM    1  C9  UNL     1      22.196   2.300  51.676  1.00  0.00    -0.002 C 
HETATM    2  C10 UNL     1      21.471   2.574  50.544  1.00  0.00     0.096 C 
HETATM    3  O2  UNL     1      20.424   1.898  49.887  1.00  0.00    -0.290 OA
HETATM    4  C17 UNL     1      19.458   1.083  50.500  1.00  0.00     0.183 A 
HETATM    5  N1  UNL     1      18.241   1.042  49.897  1.00  0.00    -0.217 NA
HETATM    6  C18 UNL     1      17.242   0.302  50.398  1.00  0.00     0.235 A 
HETATM    7  N2  UNL     1      17.388  -0.446  51.532  1.00  0.00    -0.253 NA
HETATM    8  C19 UNL     1      18.599  -0.433  52.171  1.00  0.00     0.134 A 
HETATM    9  C20 UNL     1      19.600   0.335  51.627  1.00  0.00     0.046 A 
HETATM   10  C21 UNL     1      20.788   0.212  52.419  1.00  0.00    -0.009 A 
HETATM   11  C22 UNL     1      20.761  -0.884  53.242  1.00  0.00     0.013 A 
HETATM   12  C23 UNL     1      21.797  -1.158  54.144  1.00  0.00     0.001 A 
HETATM   13  C24 UNL     1      22.859  -0.246  54.155  1.00  0.00     0.001 A 
HETATM   14  C25 UNL     1      22.842   0.836  53.313  1.00  0.00     0.013 A 
HETATM   15  C26 UNL     1      21.835   1.101  52.432  1.00  0.00    -0.015 A 
ENDROOT
BRANCH   1  16
HETATM   16  C7  UNL     1      23.225   3.244  52.041  1.00  0.00     0.068 C 
BRANCH  16  17
HETATM   17  C6  UNL     1      24.470   3.253  51.185  1.00  0.00    -0.015 C 
HETATM   18  C5  UNL     1      25.157   3.547  50.125  1.00  0.00    -0.003 C 
BRANCH  18  19
HETATM   19  C4  UNL     1      26.546   3.238  49.818  1.00  0.00    -0.001 C 
HETATM   20  C3  UNL     1      26.886   4.323  49.152  1.00  0.00    -0.004 C 
BRANCH  20  21
HETATM   21  C2  UNL     1      25.832   5.307  49.004  1.00  0.00    -0.026 C 
HETATM   22  C1  UNL     1      26.095   6.507  48.517  1.00  0.00     0.031 C 
ENDBRANCH  20  21
ENDBRANCH  18  19
ENDBRANCH  16  17
BRANCH  16  23
HETATM   23  C8  UNL     1      22.935   4.541  52.677  1.00  0.00     0.177 C 
BRANCH  23  24
HETATM   24  O1  UNL     1      24.004   5.433  52.758  1.00  0.00    -0.400 OA
HETATM   25  H11 UNL     1      24.827   5.034  52.417  1.00  0.00     0.209 HD
ENDBRANCH  23  24
ENDBRANCH  16  23
ENDBRANCH   1  16
BRANCH   2  26
HETATM   26  C11 UNL     1      21.685   3.780  49.694  1.00  0.00    -0.002 A 
HETATM   27  C12 UNL     1      21.562   5.159  49.908  1.00  0.00     0.014 A 
HETATM   28  C13 UNL     1      21.878   6.052  48.921  1.00  0.00     0.001 A 
HETATM   29  C14 UNL     1      22.326   5.667  47.678  1.00  0.00     0.000 A 
HETATM   30  C15 UNL     1      22.472   4.330  47.388  1.00  0.00     0.001 A 
HETATM   31  C16 UNL     1      22.146   3.437  48.406  1.00  0.00     0.014 A 
ENDBRANCH   2  26
TORSDOF 7
ENDMDL
MODEL 9
REMARK VINA RESULT:      -8.0      2.766      7.165
REMARK  7 active torsions:
REMARK  status: ('A' for Active; 'I' for Inactive)
REMARK    1  A    between atoms: C2_2  and  C3_3 
REMARK    2  A    between atoms: C4_4  and  C5_5 
REMARK    3  A    between atoms: C6_6  and  C7_7 
REMARK    4  A    between atoms: C7_7  and  C8_8 
REMARK    5  A    between atoms: C7_7  and  C9_10 
REMARK    6  A    between atoms: C8_8  and  O1_9 
REMARK    7  A    between atoms: C10_11  and  C11_12 
ROOT
HETATM    1  C9  UNL     1      24.195   1.834  52.001  1.00  0.00    -0.002 C 
HETATM    2  C10 UNL     1      22.849   1.570  52.049  1.00  0.00     0.096 C 
HETATM    3  O2  UNL     1      21.763   1.972  51.247  1.00  0.00    -0.290 OA
HETATM    4  C17 UNL     1      21.817   2.268  49.875  1.00  0.00     0.183 A 
HETATM    5  N1  UNL     1      20.686   2.019  49.165  1.00  0.00    -0.217 NA
HETATM    6  C18 UNL     1      20.627   2.259  47.848  1.00  0.00     0.235 A 
HETATM    7  N2  UNL     1      21.688   2.761  47.150  1.00  0.00    -0.253 NA
HETATM    8  C19 UNL     1      22.847   3.027  47.828  1.00  0.00     0.134 A 
HETATM    9  C20 UNL     1      22.871   2.771  49.178  1.00  0.00     0.046 A 
HETATM   10  C21 UNL     1      24.153   3.122  49.714  1.00  0.00    -0.009 A 
HETATM   11  C22 UNL     1      24.862   3.952  48.883  1.00  0.00     0.013 A 
HETATM   12  C23 UNL     1      26.164   4.367  49.189  1.00  0.00     0.001 A 
HETATM   13  C24 UNL     1      26.697   3.886  50.390  1.00  0.00     0.001 A 
HETATM   14  C25 UNL     1      25.949   3.060  51.189  1.00  0.00     0.013 A 
HETATM   15  C26 UNL     1      24.679   2.657  50.894  1.00  0.00    -0.015 A 
ENDROOT
BRANCH   1  16
HETATM   16  C7  UNL     1      25.018   1.239  53.027  1.00  0.00     0.068 C 
BRANCH  16  17
HETATM   17  C6  UNL     1      25.716  -0.053  52.671  1.00  0.00    -0.015 C 
HETATM   18  C5  UNL     1      26.695  -0.759  52.198  1.00  0.00    -0.003 C 
BRANCH  18  19
HETATM   19  C4  UNL     1      26.820  -2.207  52.107  1.00  0.00    -0.001 C 
HETATM   20  C3  UNL     1      27.967  -2.383  52.731  1.00  0.00    -0.004 C 
BRANCH  20  21
HETATM   21  C2  UNL     1      28.593  -1.170  53.219  1.00  0.00    -0.026 C 
HETATM   22  C1  UNL     1      29.831  -1.189  53.680  1.00  0.00     0.031 C 
ENDBRANCH  20  21
ENDBRANCH  18  19
ENDBRANCH  16  17
BRANCH  16  23
HETATM   23  C8  UNL     1      25.725   2.033  54.048  1.00  0.00     0.177 C 
BRANCH  23  24
HETATM   24  O1  UNL     1      26.624   1.331  54.851  1.00  0.00    -0.400 OA
HETATM   25  H11 UNL     1      26.758   0.421  54.524  1.00  0.00     0.209 HD
ENDBRANCH  23  24
ENDBRANCH  16  23
ENDBRANCH   1  16
BRANCH   2  26
HETATM   26  C11 UNL     1      22.210   0.709  53.084  1.00  0.00    -0.002 A 
HETATM   27  C12 UNL     1      21.412   0.963  54.208  1.00  0.00     0.014 A 
HETATM   28  C13 UNL     1      20.923  -0.065  54.967  1.00  0.00     0.001 A 
HETATM   29  C14 UNL     1      21.177  -1.388  54.687  1.00  0.00     0.000 A 
HETATM   30  C15 UNL     1      21.952  -1.722  53.601  1.00  0.00     0.001 A 
HETATM   31  C16 UNL     1      22.440  -0.660  52.841  1.00  0.00     0.014 A 
ENDBRANCH   2  26
TORSDOF 7
ENDMDL
