MODEL 1
REMARK VINA RESULT:      -8.8      0.000      0.000
REMARK  3 active torsions:
REMARK  status: ('A' for Active; 'I' for Inactive)
REMARK    1  A    between atoms: N2_3  and  C2_4 
REMARK    2  A    between atoms: C4_8  and  C5_9 
REMARK    3  A    between atoms: C11_15  and  C12_16 
ROOT
HETATM    1  C1  UNL     1      27.638   2.141  52.480  1.00  0.00     0.114 C 
HETATM    2  N1  UNL     1      26.784   1.627  51.661  1.00  0.00    -0.190 NA
HETATM    3  N2  UNL     1      25.545   1.334  52.265  1.00  0.00    -0.262 N 
HETATM    4  C11 UNL     1      26.102   0.911  53.562  1.00  0.00     0.145 C 
HETATM    5  C18 UNL     1      26.906   2.211  53.797  1.00  0.00     0.080 C 
ENDROOT
BRANCH   3   6
HETATM    6  C2  UNL     1      24.295   1.513  51.574  1.00  0.00     0.297 C 
HETATM    7  O1  UNL     1      24.243   2.679  50.836  1.00  0.00    -0.339 OA
HETATM    8  C3  UNL     1      23.712   3.612  51.716  1.00  0.00     0.320 C 
HETATM    9  N3  UNL     1      22.779   2.824  52.494  1.00  0.00    -0.263 NA
HETATM   10  C4  UNL     1      23.103   1.578  52.424  1.00  0.00     0.091 C 
BRANCH  10  11
HETATM   11  C5  UNL     1      22.352   0.529  53.086  1.00  0.00    -0.007 A 
HETATM   12  C6  UNL     1      22.928  -0.423  53.915  1.00  0.00     0.013 A 
HETATM   13  C7  UNL     1      22.254  -1.429  54.559  1.00  0.00     0.001 A 
HETATM   14  C8  UNL     1      20.877  -1.519  54.378  1.00  0.00     0.000 A 
HETATM   15  C9  UNL     1      20.248  -0.600  53.564  1.00  0.00     0.001 A 
HETATM   16  C10 UNL     1      20.989   0.387  52.947  1.00  0.00     0.013 A 
ENDBRANCH  10  11
ENDBRANCH   3   6
BRANCH   4  17
HETATM   17  C12 UNL     1      27.080  -0.189  53.404  1.00  0.00    -0.033 A 
HETATM   18  C13 UNL     1      26.758  -1.393  52.780  1.00  0.00     0.009 A 
HETATM   19  C14 UNL     1      27.610  -2.461  52.592  1.00  0.00     0.001 A 
HETATM   20  C15 UNL     1      28.903  -2.351  53.056  1.00  0.00     0.000 A 
HETATM   21  C16 UNL     1      29.291  -1.198  53.680  1.00  0.00     0.001 A 
HETATM   22  C17 UNL     1      28.384  -0.172  53.832  1.00  0.00     0.009 A 
ENDBRANCH   4  17
TORSDOF 3
ENDMDL
MODEL 2
REMARK VINA RESULT:      -8.6      1.322      5.417
REMARK  3 active torsions:
REMARK  status: ('A' for Active; 'I' for Inactive)
REMARK    1  A    between atoms: N2_3  and  C2_4 
REMARK    2  A    between atoms: C4_8  and  C5_9 
REMARK    3  A    between atoms: C11_15  and  C12_16 
ROOT
HETATM    1  C1  UNL     1      21.706   2.686  51.997  1.00  0.00     0.114 C 
HETATM    2  N1  UNL     1      22.832   2.904  52.589  1.00  0.00    -0.190 NA
HETATM    3  N2  UNL     1      23.940   2.421  51.864  1.00  0.00    -0.262 N 
HETATM    4  C11 UNL     1      23.273   1.212  51.349  1.00  0.00     0.145 C 
HETATM    5  C18 UNL     1      22.080   1.971  50.722  1.00  0.00     0.080 C 
ENDROOT
BRANCH   3   6
HETATM    6  C2  UNL     1      25.194   3.126  51.823  1.00  0.00     0.297 C 
HETATM    7  O1  UNL     1      25.215   4.146  50.892  1.00  0.00    -0.339 OA
HETATM    8  C3  UNL     1      25.694   3.541  49.739  1.00  0.00     0.320 C 
HETATM    9  N3  UNL     1      26.643   2.575  50.254  1.00  0.00    -0.263 NA
HETATM   10  C4  UNL     1      26.368   2.315  51.487  1.00  0.00     0.091 C 
BRANCH  10  11
HETATM   11  C5  UNL     1      27.147   1.394  52.290  1.00  0.00    -0.007 A 
HETATM   12  C6  UNL     1      28.166   1.790  53.144  1.00  0.00     0.013 A 
HETATM   13  C7  UNL     1      28.925   0.953  53.920  1.00  0.00     0.001 A 
HETATM   14  C8  UNL     1      28.668  -0.415  53.858  1.00  0.00     0.000 A 
HETATM   15  C9  UNL     1      27.667  -0.869  53.025  1.00  0.00     0.001 A 
HETATM   16  C10 UNL     1      26.942   0.032  52.272  1.00  0.00     0.013 A 
ENDBRANCH  10  11
ENDBRANCH   3   6
BRANCH   4  17
HETATM   17  C12 UNL     1      22.736   0.375  52.445  1.00  0.00    -0.033 A 
HETATM   18  C13 UNL     1      23.516  -0.038  53.523  1.00  0.00     0.009 A 
HETATM   19  C14 UNL     1      23.090  -0.813  54.581  1.00  0.00     0.001 A 
HETATM   20  C15 UNL     1      21.777  -1.230  54.595  1.00  0.00     0.000 A 
HETATM   21  C16 UNL     1      20.951  -0.864  53.568  1.00  0.00     0.001 A 
HETATM   22  C17 UNL     1      21.447  -0.087  52.544  1.00  0.00     0.009 A 
ENDBRANCH   4  17
TORSDOF 3
ENDMDL
MODEL 3
REMARK VINA RESULT:      -8.4      2.284      4.858
REMARK  3 active torsions:
REMARK  status: ('A' for Active; 'I' for Inactive)
REMARK    1  A    between atoms: N2_3  and  C2_4 
REMARK    2  A    between atoms: C4_8  and  C5_9 
REMARK    3  A    between atoms: C11_15  and  C12_16 
ROOT
HETATM    1  C1  UNL     1      25.170  -0.155  54.064  1.00  0.00     0.114 C 
HETATM    2  N1  UNL     1      24.885   1.087  53.864  1.00  0.00    -0.190 NA
HETATM    3  N2  UNL     1      24.812   1.425  52.498  1.00  0.00    -0.262 N 
HETATM    4  C11 UNL     1      25.910   0.545  52.061  1.00  0.00     0.145 C 
HETATM    5  C18 UNL     1      25.310  -0.740  52.680  1.00  0.00     0.080 C 
ENDROOT
BRANCH   3   6
HETATM    6  C2  UNL     1      23.843   2.362  51.992  1.00  0.00     0.297 C 
HETATM    7  O1  UNL     1      22.545   1.896  52.066  1.00  0.00    -0.339 OA
HETATM    8  C3  UNL     1      22.343   1.265  50.846  1.00  0.00     0.320 C 
HETATM    9  N3  UNL     1      23.109   2.084  49.930  1.00  0.00    -0.263 NA
HETATM   10  C4  UNL     1      24.003   2.744  50.586  1.00  0.00     0.091 C 
BRANCH  10  11
HETATM   11  C5  UNL     1      24.923   3.667  49.952  1.00  0.00    -0.007 A 
HETATM   12  C6  UNL     1      26.264   3.386  49.733  1.00  0.00     0.013 A 
HETATM   13  C7  UNL     1      27.167   4.230  49.138  1.00  0.00     0.001 A 
HETATM   14  C8  UNL     1      26.720   5.478  48.713  1.00  0.00     0.000 A 
HETATM   15  C9  UNL     1      25.396   5.814  48.905  1.00  0.00     0.001 A 
HETATM   16  C10 UNL     1      24.542   4.915  49.511  1.00  0.00     0.013 A 
ENDBRANCH  10  11
ENDBRANCH   3   6
BRANCH   4  17
HETATM   17  C12 UNL     1      27.166   0.838  52.788  1.00  0.00    -0.033 A 
HETATM   18  C13 UNL     1      28.037  -0.163  53.212  1.00  0.00     0.009 A 
HETATM   19  C14 UNL     1      29.223   0.028  53.889  1.00  0.00     0.001 A 
HETATM   20  C15 UNL     1      29.602   1.320  54.185  1.00  0.00     0.000 A 
HETATM   21  C16 UNL     1      28.796   2.355  53.799  1.00  0.00     0.001 A 
HETATM   22  C17 UNL     1      27.625   2.087  53.126  1.00  0.00     0.009 A 
ENDBRANCH   4  17
TORSDOF 3
ENDMDL
MODEL 4
REMARK VINA RESULT:      -8.3      2.985      5.806
REMARK  3 active torsions:
REMARK  status: ('A' for Active; 'I' for Inactive)
REMARK    1  A    between atoms: N2_3  and  C2_4 
REMARK    2  A    between atoms: C4_8  and  C5_9 
REMARK    3  A    between atoms: C11_15  and  C12_16 
ROOT
HETATM    1  C1  UNL     1      23.786   1.728  53.138  1.00  0.00     0.114 C 
HETATM    2  N1  UNL     1      24.215   2.939  53.022  1.00  0.00    -0.190 NA
HETATM    3  N2  UNL     1      24.357   3.350  51.682  1.00  0.00    -0.262 N 
HETATM    4  C11 UNL     1      24.818   2.048  51.168  1.00  0.00     0.145 C 
HETATM    5  C18 UNL     1      23.612   1.250  51.717  1.00  0.00     0.080 C 
ENDROOT
BRANCH   3   6
HETATM    6  C2  UNL     1      24.051   4.691  51.256  1.00  0.00     0.297 C 
HETATM    7  O1  UNL     1      22.703   4.985  51.309  1.00  0.00    -0.339 OA
HETATM    8  C3  UNL     1      22.233   4.642  50.048  1.00  0.00     0.320 C 
HETATM    9  N3  UNL     1      23.345   4.986  49.187  1.00  0.00    -0.263 NA
HETATM   10  C4  UNL     1      24.432   5.022  49.880  1.00  0.00     0.091 C 
BRANCH  10  11
HETATM   11  C5  UNL     1      25.722   5.353  49.306  1.00  0.00    -0.007 A 
HETATM   12  C6  UNL     1      26.754   4.438  49.155  1.00  0.00     0.013 A 
HETATM   13  C7  UNL     1      27.986   4.710  48.618  1.00  0.00     0.001 A 
HETATM   14  C8  UNL     1      28.243   6.007  48.183  1.00  0.00     0.000 A 
HETATM   15  C9  UNL     1      27.255   6.962  48.309  1.00  0.00     0.001 A 
HETATM   16  C10 UNL     1      26.037   6.617  48.859  1.00  0.00     0.013 A 
ENDBRANCH  10  11
ENDBRANCH   3   6
BRANCH   4  17
HETATM   17  C12 UNL     1      26.023   1.574  51.885  1.00  0.00    -0.033 A 
HETATM   18  C13 UNL     1      26.260   0.225  52.142  1.00  0.00     0.009 A 
HETATM   19  C14 UNL     1      27.356  -0.294  52.799  1.00  0.00     0.001 A 
HETATM   20  C15 UNL     1      28.318   0.582  53.253  1.00  0.00     0.000 A 
HETATM   21  C16 UNL     1      28.152   1.922  53.038  1.00  0.00     0.001 A 
HETATM   22  C17 UNL     1      27.031   2.368  52.373  1.00  0.00     0.009 A 
ENDBRANCH   4  17
TORSDOF 3
ENDMDL
MODEL 5
REMARK VINA RESULT:      -8.1      1.152      2.289
REMARK  3 active torsions:
REMARK  status: ('A' for Active; 'I' for Inactive)
REMARK    1  A    between atoms: N2_3  and  C2_4 
REMARK    2  A    between atoms: C4_8  and  C5_9 
REMARK    3  A    between atoms: C11_15  and  C12_16 
ROOT
HETATM    1  C1  UNL     1      25.547  -0.548  54.085  1.00  0.00     0.114 C 
HETATM    2  N1  UNL     1      25.094   0.589  53.676  1.00  0.00    -0.190 NA
HETATM    3  N2  UNL     1      25.109   0.717  52.273  1.00  0.00    -0.262 N 
HETATM    4  C11 UNL     1      26.370  -0.017  52.063  1.00  0.00     0.145 C 
HETATM    5  C18 UNL     1      25.916  -1.286  52.822  1.00  0.00     0.080 C 
ENDROOT
BRANCH   3   6
HETATM    6  C2  UNL     1      24.063   1.398  51.555  1.00  0.00     0.297 C 
HETATM    7  O1  UNL     1      24.447   2.636  51.077  1.00  0.00    -0.339 OA
HETATM    8  C3  UNL     1      24.106   3.512  52.098  1.00  0.00     0.320 C 
HETATM    9  N3  UNL     1      22.894   2.928  52.632  1.00  0.00    -0.263 NA
HETATM   10  C4  UNL     1      22.845   1.677  52.321  1.00  0.00     0.091 C 
BRANCH  10  11
HETATM   11  C5  UNL     1      21.743   0.814  52.699  1.00  0.00    -0.007 A 
HETATM   12  C6  UNL     1      21.812  -0.115  53.727  1.00  0.00     0.013 A 
HETATM   13  C7  UNL     1      20.795  -0.949  54.115  1.00  0.00     0.001 A 
HETATM   14  C8  UNL     1      19.584  -0.872  53.432  1.00  0.00     0.000 A 
HETATM   15  C9  UNL     1      19.456   0.033  52.399  1.00  0.00     0.001 A 
HETATM   16  C10 UNL     1      20.522   0.842  52.062  1.00  0.00     0.013 A 
ENDBRANCH  10  11
ENDBRANCH   3   6
BRANCH   4  17
HETATM   17  C12 UNL     1      27.484   0.582  52.831  1.00  0.00    -0.033 A 
HETATM   18  C13 UNL     1      27.664   1.959  52.940  1.00  0.00     0.009 A 
HETATM   19  C14 UNL     1      28.672   2.592  53.637  1.00  0.00     0.001 A 
HETATM   20  C15 UNL     1      29.598   1.811  54.293  1.00  0.00     0.000 A 
HETATM   21  C16 UNL     1      29.486   0.450  54.231  1.00  0.00     0.001 A 
HETATM   22  C17 UNL     1      28.452  -0.112  53.515  1.00  0.00     0.009 A 
ENDBRANCH   4  17
TORSDOF 3
ENDMDL
MODEL 6
REMARK VINA RESULT:      -8.0      2.403      6.383
REMARK  3 active torsions:
REMARK  status: ('A' for Active; 'I' for Inactive)
REMARK    1  A    between atoms: N2_3  and  C2_4 
REMARK    2  A    between atoms: C4_8  and  C5_9 
REMARK    3  A    between atoms: C11_15  and  C12_16 
ROOT
HETATM    1  C1  UNL     1      21.767  -1.752  54.108  1.00  0.00     0.114 C 
HETATM    2  N1  UNL     1      22.690  -1.640  53.213  1.00  0.00    -0.190 NA
HETATM    3  N2  UNL     1      23.451  -0.462  53.348  1.00  0.00    -0.262 N 
HETATM    4  C11 UNL     1      22.333   0.397  53.778  1.00  0.00     0.145 C 
HETATM    5  C18 UNL     1      21.908  -0.512  54.955  1.00  0.00     0.080 C 
ENDROOT
BRANCH   3   6
HETATM    6  C2  UNL     1      24.866  -0.431  53.088  1.00  0.00     0.297 C 
HETATM    7  O1  UNL     1      25.616  -1.028  54.083  1.00  0.00    -0.339 OA
HETATM    8  C3  UNL     1      25.909   0.012  54.954  1.00  0.00     0.320 C 
HETATM    9  N3  UNL     1      26.066   1.143  54.064  1.00  0.00    -0.263 NA
HETATM   10  C4  UNL     1      25.458   0.903  52.952  1.00  0.00     0.091 C 
BRANCH  10  11
HETATM   11  C5  UNL     1      25.442   1.840  51.845  1.00  0.00    -0.007 A 
HETATM   12  C6  UNL     1      24.312   2.538  51.445  1.00  0.00     0.013 A 
HETATM   13  C7  UNL     1      24.254   3.430  50.406  1.00  0.00     0.001 A 
HETATM   14  C8  UNL     1      25.417   3.670  49.678  1.00  0.00     0.000 A 
HETATM   15  C9  UNL     1      26.573   3.003  50.029  1.00  0.00     0.001 A 
HETATM   16  C10 UNL     1      26.558   2.118  51.088  1.00  0.00     0.013 A 
ENDBRANCH  10  11
ENDBRANCH   3   6
BRANCH   4  17
HETATM   17  C12 UNL     1      21.227   0.388  52.794  1.00  0.00    -0.033 A 
HETATM   18  C13 UNL     1      21.433   0.614  51.434  1.00  0.00     0.009 A 
HETATM   19  C14 UNL     1      20.460   0.620  50.458  1.00  0.00     0.001 A 
HETATM   20  C15 UNL     1      19.157   0.382  50.837  1.00  0.00     0.000 A 
HETATM   21  C16 UNL     1      18.878   0.152  52.155  1.00  0.00     0.001 A 
HETATM   22  C17 UNL     1      19.903   0.162  53.076  1.00  0.00     0.009 A 
ENDBRANCH   4  17
TORSDOF 3
ENDMDL
MODEL 7
REMARK VINA RESULT:      -7.8      1.661      6.320
REMARK  3 active torsions:
REMARK  status: ('A' for Active; 'I' for Inactive)
REMARK    1  A    between atoms: N2_3  and  C2_4 
REMARK    2  A    between atoms: C4_8  and  C5_9 
REMARK    3  A    between atoms: C11_15  and  C12_16 
ROOT
HETATM    1  C1  UNL     1      22.140  -1.347  53.433  1.00  0.00     0.114 C 
HETATM    2  N1  UNL     1      22.473  -0.370  52.659  1.00  0.00    -0.190 NA
HETATM    3  N2  UNL     1      22.405   0.886  53.294  1.00  0.00    -0.262 N 
HETATM    4  C11 UNL     1      21.213   0.585  54.106  1.00  0.00     0.145 C 
HETATM    5  C18 UNL     1      21.804  -0.691  54.749  1.00  0.00     0.080 C 
ENDROOT
BRANCH   3   6
HETATM    6  C2  UNL     1      23.362   1.929  53.032  1.00  0.00     0.297 C 
HETATM    7  O1  UNL     1      22.856   2.946  52.245  1.00  0.00    -0.339 OA
HETATM    8  C3  UNL     1      23.161   2.552  50.949  1.00  0.00     0.320 C 
HETATM    9  N3  UNL     1      24.439   1.889  51.107  1.00  0.00    -0.263 NA
HETATM   10  C4  UNL     1      24.580   1.512  52.333  1.00  0.00     0.091 C 
BRANCH  10  11
HETATM   11  C5  UNL     1      25.765   0.829  52.815  1.00  0.00    -0.007 A 
HETATM   12  C6  UNL     1      26.585   1.328  53.816  1.00  0.00     0.013 A 
HETATM   13  C7  UNL     1      27.712   0.715  54.300  1.00  0.00     0.001 A 
HETATM   14  C8  UNL     1      28.082  -0.510  53.753  1.00  0.00     0.000 A 
HETATM   15  C9  UNL     1      27.305  -1.056  52.752  1.00  0.00     0.001 A 
HETATM   16  C10 UNL     1      26.183  -0.383  52.313  1.00  0.00     0.013 A 
ENDBRANCH  10  11
ENDBRANCH   3   6
BRANCH   4  17
HETATM   17  C12 UNL     1      20.071   0.165  53.263  1.00  0.00    -0.033 A 
HETATM   18  C13 UNL     1      19.790   0.756  52.033  1.00  0.00     0.009 A 
HETATM   19  C14 UNL     1      18.751   0.421  51.191  1.00  0.00     0.001 A 
HETATM   20  C15 UNL     1      17.897  -0.588  51.581  1.00  0.00     0.000 A 
HETATM   21  C16 UNL     1      18.110  -1.215  52.778  1.00  0.00     0.001 A 
HETATM   22  C17 UNL     1      19.170  -0.826  53.567  1.00  0.00     0.009 A 
ENDBRANCH   4  17
TORSDOF 3
ENDMDL
MODEL 8
REMARK VINA RESULT:      -7.8      2.329      5.749
REMARK  3 active torsions:
REMARK  status: ('A' for Active; 'I' for Inactive)
REMARK    1  A    between atoms: N2_3  and  C2_4 
REMARK    2  A    between atoms: C4_8  and  C5_9 
REMARK    3  A    between atoms: C11_15  and  C12_16 
ROOT
HETATM    1  C1  UNL     1      22.823   3.858  49.990  1.00  0.00     0.114 C 
HETATM    2  N1  UNL     1      23.416   2.712  49.942  1.00  0.00    -0.190 NA
HETATM    3  N2  UNL     1      23.976   2.328  51.177  1.00  0.00    -0.262 N 
HETATM    4  C11 UNL     1      24.395   3.681  51.585  1.00  0.00     0.145 C 
HETATM    5  C18 UNL     1      22.994   4.314  51.417  1.00  0.00     0.080 C 
ENDROOT
BRANCH   3   6
HETATM    6  C2  UNL     1      23.971   0.961  51.627  1.00  0.00     0.297 C 
HETATM    7  O1  UNL     1      22.707   0.491  51.926  1.00  0.00    -0.339 OA
HETATM    8  C3  UNL     1      22.552   0.774  53.276  1.00  0.00     0.320 C 
HETATM    9  N3  UNL     1      23.889   0.585  53.799  1.00  0.00    -0.263 NA
HETATM   10  C4  UNL     1      24.746   0.689  52.841  1.00  0.00     0.091 C 
BRANCH  10  11
HETATM   11  C5  UNL     1      26.173   0.535  53.041  1.00  0.00    -0.007 A 
HETATM   12  C6  UNL     1      26.827  -0.688  53.001  1.00  0.00     0.013 A 
HETATM   13  C7  UNL     1      28.173  -0.877  53.185  1.00  0.00     0.001 A 
HETATM   14  C8  UNL     1      28.966   0.239  53.435  1.00  0.00     0.000 A 
HETATM   15  C9  UNL     1      28.371   1.483  53.488  1.00  0.00     0.001 A 
HETATM   16  C10 UNL     1      27.010   1.599  53.293  1.00  0.00     0.013 A 
ENDBRANCH  10  11
ENDBRANCH   3   6
BRANCH   4  17
HETATM   17  C12 UNL     1      25.284   4.304  50.578  1.00  0.00    -0.033 A 
HETATM   18  C13 UNL     1      25.130   5.623  50.157  1.00  0.00     0.009 A 
HETATM   19  C14 UNL     1      25.915   6.274  49.229  1.00  0.00     0.001 A 
HETATM   20  C15 UNL     1      26.953   5.576  48.651  1.00  0.00     0.000 A 
HETATM   21  C16 UNL     1      27.165   4.275  49.015  1.00  0.00     0.001 A 
HETATM   22  C17 UNL     1      26.339   3.690  49.950  1.00  0.00     0.009 A 
ENDBRANCH   4  17
TORSDOF 3
ENDMDL
MODEL 9
REMARK VINA RESULT:      -7.8      2.758      4.585
REMARK  3 active torsions:
REMARK  status: ('A' for Active; 'I' for Inactive)
REMARK    1  A    between atoms: N2_3  and  C2_4 
REMARK    2  A    between atoms: C4_8  and  C5_9 
REMARK    3  A    between atoms: C11_15  and  C12_16 
ROOT
HETATM    1  C1  UNL     1      22.353   1.184  50.760  1.00  0.00     0.114 C 
HETATM    2  N1  UNL     1      22.039   0.362  51.703  1.00  0.00    -0.190 NA
HETATM    3  N2  UNL     1      21.825   0.998  52.942  1.00  0.00    -0.262 N 
HETATM    4  C11 UNL     1      22.881   2.013  52.780  1.00  0.00     0.145 C 
HETATM    5  C18 UNL     1      22.357   2.539  51.423  1.00  0.00     0.080 C 
ENDROOT
BRANCH   3   6
HETATM    6  C2  UNL     1      20.803   0.566  53.859  1.00  0.00     0.297 C 
HETATM    7  O1  UNL     1      21.309   0.053  55.037  1.00  0.00    -0.339 OA
HETATM    8  C3  UNL     1      21.441  -1.306  54.784  1.00  0.00     0.320 C 
HETATM    9  N3  UNL     1      20.310  -1.583  53.924  1.00  0.00    -0.263 NA
HETATM   10  C4  UNL     1      19.914  -0.490  53.366  1.00  0.00     0.091 C 
BRANCH  10  11
HETATM   11  C5  UNL     1      18.786  -0.434  52.456  1.00  0.00    -0.007 A 
HETATM   12  C6  UNL     1      18.806   0.252  51.250  1.00  0.00     0.013 A 
HETATM   13  C7  UNL     1      17.763   0.330  50.363  1.00  0.00     0.001 A 
HETATM   14  C8  UNL     1      16.577  -0.326  50.681  1.00  0.00     0.000 A 
HETATM   15  C9  UNL     1      16.498  -1.024  51.868  1.00  0.00     0.001 A 
HETATM   16  C10 UNL     1      17.588  -1.061  52.715  1.00  0.00     0.013 A 
ENDBRANCH  10  11
ENDBRANCH   3   6
BRANCH   4  17
HETATM   17  C12 UNL     1      24.202   1.392  52.531  1.00  0.00    -0.033 A 
HETATM   18  C13 UNL     1      24.583   0.185  53.113  1.00  0.00     0.009 A 
HETATM   19  C14 UNL     1      25.790  -0.457  52.930  1.00  0.00     0.001 A 
HETATM   20  C15 UNL     1      26.720   0.130  52.100  1.00  0.00     0.000 A 
HETATM   21  C16 UNL     1      26.416   1.317  51.494  1.00  0.00     0.001 A 
HETATM   22  C17 UNL     1      25.189   1.900  51.724  1.00  0.00     0.009 A 
ENDBRANCH   4  17
TORSDOF 3
ENDMDL
