MODEL 1
REMARK VINA RESULT:      -9.7      0.000      0.000
REMARK  0 active torsions:
REMARK  status: ('A' for Active; 'I' for Inactive)
ROOT
HETATM    1  C1  UNL     1      24.334  -0.879  54.571  1.00  0.00     0.118 C 
HETATM    2  C2  UNL     1      23.293  -0.542  53.923  1.00  0.00     0.048 C 
HETATM    3  C3  UNL     1      22.128  -0.289  53.281  1.00  0.00     0.053 A 
HETATM    4  C4  UNL     1      20.920  -0.028  52.616  1.00  0.00     0.133 A 
HETATM    5  C5  UNL     1      20.260  -0.977  53.499  1.00  0.00     0.018 A 
HETATM    6  C6  UNL     1      18.878  -1.314  53.467  1.00  0.00     0.018 A 
HETATM    7  C7  UNL     1      18.136  -0.648  52.483  1.00  0.00     0.116 A 
HETATM    8  N1  UNL     1      18.761   0.220  51.682  1.00  0.00    -0.274 NA
HETATM    9  C8  UNL     1      20.040   0.482  51.767  1.00  0.00     0.131 A 
HETATM   10  N2  UNL     1      22.346   0.618  52.358  1.00  0.00    -0.323 N 
HETATM   11  C9  UNL     1      23.484   1.275  52.002  1.00  0.00     0.039 A 
HETATM   12  C10 UNL     1      23.080   2.569  51.597  1.00  0.00     0.030 A 
HETATM   13  C11 UNL     1      23.846   3.659  51.160  1.00  0.00     0.005 A 
HETATM   14  C12 UNL     1      25.218   3.573  51.073  1.00  0.00     0.037 A 
HETATM   15  C13 UNL     1      25.756   2.368  51.440  1.00  0.00     0.070 A 
HETATM   16  C14 UNL     1      24.847   1.384  51.847  1.00  0.00     0.066 A 
HETATM   17  O1  UNL     1      26.864   1.485  51.665  1.00  0.00    -0.349 OA
HETATM   18  C15 UNL     1      27.384   1.759  52.991  1.00  0.00     0.203 C 
HETATM   19  C16 UNL     1      28.394   0.864  53.518  1.00  0.00     0.136 C 
HETATM   20  N3  UNL     1      29.671   0.703  52.928  1.00  0.00    -0.376 N 
HETATM   21  C17 UNL     1      30.072  -0.466  53.739  1.00  0.00     0.197 C 
HETATM   22  N4  UNL     1      29.005  -1.253  53.993  1.00  0.00    -0.273 NA
HETATM   23  C18 UNL     1      27.897  -0.631  53.361  1.00  0.00     0.174 C 
HETATM   24  C19 UNL     1      26.550  -0.713  53.834  1.00  0.00     0.118 C 
HETATM   25  N5  UNL     1      25.619  -0.196  54.630  1.00  0.00    -0.275 NA
HETATM   26  H14 UNL     1      30.447   0.946  52.267  1.00  0.00     0.160 HD
ENDROOT
TORSDOF 0
ENDMDL
MODEL 2
REMARK VINA RESULT:      -9.7      2.374      7.665
REMARK  0 active torsions:
REMARK  status: ('A' for Active; 'I' for Inactive)
ROOT
HETATM    1  C1  UNL     1      23.728   3.735  52.371  1.00  0.00     0.118 C 
HETATM    2  C2  UNL     1      24.499   2.814  52.787  1.00  0.00     0.048 C 
HETATM    3  C3  UNL     1      25.420   1.909  53.194  1.00  0.00     0.053 A 
HETATM    4  C4  UNL     1      26.375   0.970  53.616  1.00  0.00     0.133 A 
HETATM    5  C5  UNL     1      27.386   2.015  53.560  1.00  0.00     0.018 A 
HETATM    6  C6  UNL     1      28.763   1.851  53.877  1.00  0.00     0.018 A 
HETATM    7  C7  UNL     1      29.124   0.555  54.270  1.00  0.00     0.116 A 
HETATM    8  N1  UNL     1      28.180  -0.390  54.314  1.00  0.00    -0.274 NA
HETATM    9  C8  UNL     1      26.927  -0.169  54.007  1.00  0.00     0.131 A 
HETATM   10  N2  UNL     1      24.819   0.758  53.390  1.00  0.00    -0.323 N 
HETATM   11  C9  UNL     1      23.514   0.398  53.251  1.00  0.00     0.039 A 
HETATM   12  C10 UNL     1      23.266  -0.573  54.250  1.00  0.00     0.030 A 
HETATM   13  C11 UNL     1      22.085  -1.257  54.572  1.00  0.00     0.005 A 
HETATM   14  C12 UNL     1      20.920  -1.028  53.876  1.00  0.00     0.037 A 
HETATM   15  C13 UNL     1      21.007  -0.101  52.871  1.00  0.00     0.070 A 
HETATM   16  C14 UNL     1      22.265   0.484  52.679  1.00  0.00     0.066 A 
HETATM   17  O1  UNL     1      20.445   0.680  51.807  1.00  0.00    -0.349 OA
HETATM   18  C15 UNL     1      19.828   1.851  52.399  1.00  0.00     0.203 C 
HETATM   19  C16 UNL     1      19.350   2.887  51.505  1.00  0.00     0.136 C 
HETATM   20  N3  UNL     1      18.315   2.679  50.563  1.00  0.00    -0.376 N 
HETATM   21  C17 UNL     1      18.497   3.960  49.846  1.00  0.00     0.197 C 
HETATM   22  N4  UNL     1      19.803   4.297  49.807  1.00  0.00    -0.273 NA
HETATM   23  C18 UNL     1      20.499   3.260  50.482  1.00  0.00     0.174 C 
HETATM   24  C19 UNL     1      21.713   3.449  51.212  1.00  0.00     0.118 C 
HETATM   25  N5  UNL     1      22.272   3.762  52.378  1.00  0.00    -0.275 NA
HETATM   26  H14 UNL     1      17.530   2.145  50.119  1.00  0.00     0.160 HD
ENDROOT
TORSDOF 0
ENDMDL
MODEL 3
REMARK VINA RESULT:      -9.6      2.677      5.038
REMARK  0 active torsions:
REMARK  status: ('A' for Active; 'I' for Inactive)
ROOT
HETATM    1  C1  UNL     1      26.396   3.114  50.426  1.00  0.00     0.118 C 
HETATM    2  C2  UNL     1      25.229   3.459  50.057  1.00  0.00     0.048 C 
HETATM    3  C3  UNL     1      24.041   3.933  49.614  1.00  0.00     0.053 A 
HETATM    4  C4  UNL     1      22.808   4.425  49.154  1.00  0.00     0.133 A 
HETATM    5  C5  UNL     1      23.530   5.344  48.288  1.00  0.00     0.018 A 
HETATM    6  C6  UNL     1      22.935   6.285  47.402  1.00  0.00     0.018 A 
HETATM    7  C7  UNL     1      21.534   6.286  47.403  1.00  0.00     0.116 A 
HETATM    8  N1  UNL     1      20.890   5.433  48.207  1.00  0.00    -0.274 NA
HETATM    9  C8  UNL     1      21.504   4.592  49.000  1.00  0.00     0.131 A 
HETATM   10  N2  UNL     1      23.076   3.265  50.203  1.00  0.00    -0.323 N 
HETATM   11  C9  UNL     1      23.118   2.253  51.113  1.00  0.00     0.039 A 
HETATM   12  C10 UNL     1      22.003   1.427  50.832  1.00  0.00     0.030 A 
HETATM   13  C11 UNL     1      21.584   0.237  51.443  1.00  0.00     0.005 A 
HETATM   14  C12 UNL     1      22.291  -0.311  52.490  1.00  0.00     0.037 A 
HETATM   15  C13 UNL     1      23.408   0.384  52.873  1.00  0.00     0.070 A 
HETATM   16  C14 UNL     1      23.680   1.558  52.159  1.00  0.00     0.066 A 
HETATM   17  O1  UNL     1      24.574   0.571  53.688  1.00  0.00    -0.349 OA
HETATM   18  C15 UNL     1      25.649  -0.208  53.103  1.00  0.00     0.203 C 
HETATM   19  C16 UNL     1      26.981  -0.034  53.648  1.00  0.00     0.136 C 
HETATM   20  N3  UNL     1      27.320  -0.359  54.982  1.00  0.00    -0.376 N 
HETATM   21  C17 UNL     1      28.659   0.269  54.961  1.00  0.00     0.197 C 
HETATM   22  N4  UNL     1      28.646   1.382  54.198  1.00  0.00    -0.273 NA
HETATM   23  C18 UNL     1      27.318   1.511  53.712  1.00  0.00     0.174 C 
HETATM   24  C19 UNL     1      26.976   2.104  52.457  1.00  0.00     0.118 C 
HETATM   25  N5  UNL     1      26.794   1.917  51.153  1.00  0.00    -0.275 NA
HETATM   26  H14 UNL     1      27.153  -0.780  55.928  1.00  0.00     0.160 HD
ENDROOT
TORSDOF 0
ENDMDL
MODEL 4
REMARK VINA RESULT:      -9.4      2.671      7.371
REMARK  0 active torsions:
REMARK  status: ('A' for Active; 'I' for Inactive)
ROOT
HETATM    1  C1  UNL     1      21.467   3.227  51.331  1.00  0.00     0.118 C 
HETATM    2  C2  UNL     1      22.695   3.327  51.021  1.00  0.00     0.048 C 
HETATM    3  C3  UNL     1      23.968   3.519  50.599  1.00  0.00     0.053 A 
HETATM    4  C4  UNL     1      25.287   3.718  50.162  1.00  0.00     0.133 A 
HETATM    5  C5  UNL     1      24.848   4.923  49.477  1.00  0.00     0.018 A 
HETATM    6  C6  UNL     1      25.681   5.792  48.717  1.00  0.00     0.018 A 
HETATM    7  C7  UNL     1      27.027   5.409  48.656  1.00  0.00     0.116 A 
HETATM    8  N1  UNL     1      27.409   4.297  49.292  1.00  0.00    -0.274 NA
HETATM    9  C8  UNL     1      26.586   3.542  49.974  1.00  0.00     0.131 A 
HETATM   10  N2  UNL     1      24.720   2.560  51.087  1.00  0.00    -0.323 N 
HETATM   11  C9  UNL     1      24.412   1.503  51.887  1.00  0.00     0.039 A 
HETATM   12  C10 UNL     1      25.547   1.285  52.704  1.00  0.00     0.030 A 
HETATM   13  C11 UNL     1      25.761   0.344  53.721  1.00  0.00     0.005 A 
HETATM   14  C12 UNL     1      24.783  -0.561  54.068  1.00  0.00     0.037 A 
HETATM   15  C13 UNL     1      23.616  -0.467  53.357  1.00  0.00     0.070 A 
HETATM   16  C14 UNL     1      23.572   0.527  52.371  1.00  0.00     0.066 A 
HETATM   17  O1  UNL     1      22.274  -0.873  53.054  1.00  0.00    -0.349 OA
HETATM   18  C15 UNL     1      21.389  -0.197  53.983  1.00  0.00     0.203 C 
HETATM   19  C16 UNL     1      19.962  -0.307  53.757  1.00  0.00     0.136 C 
HETATM   20  N3  UNL     1      19.262  -1.535  53.810  1.00  0.00    -0.376 N 
HETATM   21  C17 UNL     1      17.992  -1.015  53.259  1.00  0.00     0.197 C 
HETATM   22  N4  UNL     1      18.233  -0.066  52.330  1.00  0.00    -0.273 NA
HETATM   23  C18 UNL     1      19.646   0.055  52.248  1.00  0.00     0.174 C 
HETATM   24  C19 UNL     1      20.331   1.265  51.918  1.00  0.00     0.118 C 
HETATM   25  N5  UNL     1      20.864   2.399  52.366  1.00  0.00    -0.275 NA
HETATM   26  H14 UNL     1      19.154  -2.557  54.016  1.00  0.00     0.160 HD
ENDROOT
TORSDOF 0
ENDMDL
MODEL 5
REMARK VINA RESULT:      -9.2      2.651      4.705
REMARK  0 active torsions:
REMARK  status: ('A' for Active; 'I' for Inactive)
ROOT
HETATM    1  C1  UNL     1      22.425   2.525  49.903  1.00  0.00     0.118 C 
HETATM    2  C2  UNL     1      22.234   1.678  50.832  1.00  0.00     0.048 C 
HETATM    3  C3  UNL     1      21.905   0.803  51.811  1.00  0.00     0.053 A 
HETATM    4  C4  UNL     1      21.562  -0.105  52.826  1.00  0.00     0.133 A 
HETATM    5  C5  UNL     1      20.183  -0.053  52.369  1.00  0.00     0.018 A 
HETATM    6  C6  UNL     1      19.095  -0.772  52.939  1.00  0.00     0.018 A 
HETATM    7  C7  UNL     1      19.437  -1.584  54.029  1.00  0.00     0.116 A 
HETATM    8  N1  UNL     1      20.710  -1.617  54.432  1.00  0.00    -0.274 NA
HETATM    9  C8  UNL     1      21.663  -0.927  53.860  1.00  0.00     0.131 A 
HETATM   10  N2  UNL     1      22.994   0.479  52.468  1.00  0.00    -0.323 N 
HETATM   11  C9  UNL     1      24.286   0.873  52.303  1.00  0.00     0.039 A 
HETATM   12  C10 UNL     1      25.084  -0.241  52.656  1.00  0.00     0.030 A 
HETATM   13  C11 UNL     1      26.478  -0.395  52.643  1.00  0.00     0.005 A 
HETATM   14  C12 UNL     1      27.302   0.633  52.242  1.00  0.00     0.037 A 
HETATM   15  C13 UNL     1      26.663   1.785  51.865  1.00  0.00     0.070 A 
HETATM   16  C14 UNL     1      25.265   1.771  51.944  1.00  0.00     0.066 A 
HETATM   17  O1  UNL     1      26.654   3.133  51.374  1.00  0.00    -0.349 OA
HETATM   18  C15 UNL     1      26.721   3.075  49.927  1.00  0.00     0.203 C 
HETATM   19  C16 UNL     1      26.540   4.311  49.193  1.00  0.00     0.136 C 
HETATM   20  N3  UNL     1      27.423   5.412  49.300  1.00  0.00    -0.376 N 
HETATM   21  C17 UNL     1      26.573   6.367  48.558  1.00  0.00     0.197 C 
HETATM   22  N4  UNL     1      25.268   6.132  48.808  1.00  0.00    -0.273 NA
HETATM   23  C18 UNL     1      25.231   5.036  49.710  1.00  0.00     0.174 C 
HETATM   24  C19 UNL     1      24.173   4.076  49.766  1.00  0.00     0.118 C 
HETATM   25  N5  UNL     1      23.685   2.931  49.298  1.00  0.00    -0.275 NA
HETATM   26  H14 UNL     1      28.303   5.896  49.600  1.00  0.00     0.160 HD
ENDROOT
TORSDOF 0
ENDMDL
MODEL 6
REMARK VINA RESULT:      -9.1      2.933      4.781
REMARK  0 active torsions:
REMARK  status: ('A' for Active; 'I' for Inactive)
ROOT
HETATM    1  C1  UNL     1      21.277   2.047  49.281  1.00  0.00     0.118 C 
HETATM    2  C2  UNL     1      20.698   1.363  50.183  1.00  0.00     0.048 C 
HETATM    3  C3  UNL     1      19.970   0.663  51.084  1.00  0.00     0.053 A 
HETATM    4  C4  UNL     1      19.214  -0.064  52.018  1.00  0.00     0.133 A 
HETATM    5  C5  UNL     1      18.100  -0.053  51.084  1.00  0.00     0.018 A 
HETATM    6  C6  UNL     1      16.826  -0.646  51.308  1.00  0.00     0.018 A 
HETATM    7  C7  UNL     1      16.687  -1.282  52.549  1.00  0.00     0.116 A 
HETATM    8  N1  UNL     1      17.723  -1.281  53.393  1.00  0.00    -0.274 NA
HETATM    9  C8  UNL     1      18.870  -0.713  53.120  1.00  0.00     0.131 A 
HETATM   10  N2  UNL     1      20.720   0.422  52.134  1.00  0.00    -0.323 N 
HETATM   11  C9  UNL     1      22.013   0.754  52.403  1.00  0.00     0.039 A 
HETATM   12  C10 UNL     1      22.538  -0.309  53.175  1.00  0.00     0.030 A 
HETATM   13  C11 UNL     1      23.826  -0.495  53.697  1.00  0.00     0.005 A 
HETATM   14  C12 UNL     1      24.819   0.436  53.488  1.00  0.00     0.037 A 
HETATM   15  C13 UNL     1      24.453   1.529  52.747  1.00  0.00     0.070 A 
HETATM   16  C14 UNL     1      23.124   1.560  52.307  1.00  0.00     0.066 A 
HETATM   17  O1  UNL     1      24.729   2.781  52.104  1.00  0.00    -0.349 OA
HETATM   18  C15 UNL     1      25.307   2.492  50.805  1.00  0.00     0.203 C 
HETATM   19  C16 UNL     1      25.502   3.600  49.892  1.00  0.00     0.136 C 
HETATM   20  N3  UNL     1      26.372   4.682  50.162  1.00  0.00    -0.376 N 
HETATM   21  C17 UNL     1      25.926   5.528  49.034  1.00  0.00     0.197 C 
HETATM   22  N4  UNL     1      24.603   5.366  48.817  1.00  0.00    -0.273 NA
HETATM   23  C18 UNL     1      24.157   4.428  49.785  1.00  0.00     0.174 C 
HETATM   24  C19 UNL     1      23.076   3.515  49.582  1.00  0.00     0.118 C 
HETATM   25  N5  UNL     1      22.699   2.321  49.132  1.00  0.00    -0.275 NA
HETATM   26  H14 UNL     1      27.121   5.187  50.694  1.00  0.00     0.160 HD
ENDROOT
TORSDOF 0
ENDMDL
MODEL 7
REMARK VINA RESULT:      -8.6      3.928      6.131
REMARK  0 active torsions:
REMARK  status: ('A' for Active; 'I' for Inactive)
ROOT
HETATM    1  C1  UNL     1      23.038   4.438  52.415  1.00  0.00     0.118 C 
HETATM    2  C2  UNL     1      22.908   5.319  51.508  1.00  0.00     0.048 C 
HETATM    3  C3  UNL     1      22.647   6.273  50.584  1.00  0.00     0.053 A 
HETATM    4  C4  UNL     1      22.376   7.264  49.626  1.00  0.00     0.133 A 
HETATM    5  C5  UNL     1      21.218   7.665  50.408  1.00  0.00     0.018 A 
HETATM    6  C6  UNL     1      20.319   8.716  50.076  1.00  0.00     0.018 A 
HETATM    7  C7  UNL     1      20.621   9.390  48.885  1.00  0.00     0.116 A 
HETATM    8  N1  UNL     1      21.690   9.006  48.181  1.00  0.00    -0.274 NA
HETATM    9  C8  UNL     1      22.476   8.026  48.547  1.00  0.00     0.131 A 
HETATM   10  N2  UNL     1      23.579   6.229  49.661  1.00  0.00    -0.323 N 
HETATM   11  C9  UNL     1      24.669   5.424  49.530  1.00  0.00     0.039 A 
HETATM   12  C10 UNL     1      25.671   6.216  48.922  1.00  0.00     0.030 A 
HETATM   13  C11 UNL     1      26.994   5.897  48.584  1.00  0.00     0.005 A 
HETATM   14  C12 UNL     1      27.509   4.646  48.837  1.00  0.00     0.037 A 
HETATM   15  C13 UNL     1      26.646   3.764  49.433  1.00  0.00     0.070 A 
HETATM   16  C14 UNL     1      25.358   4.245  49.698  1.00  0.00     0.066 A 
HETATM   17  O1  UNL     1      26.321   2.486  49.999  1.00  0.00    -0.349 OA
HETATM   18  C15 UNL     1      26.765   2.490  51.379  1.00  0.00     0.203 C 
HETATM   19  C16 UNL     1      26.381   1.370  52.214  1.00  0.00     0.136 C 
HETATM   20  N3  UNL     1      26.799   0.040  51.966  1.00  0.00    -0.376 N 
HETATM   21  C17 UNL     1      25.899  -0.593  52.955  1.00  0.00     0.197 C 
HETATM   22  N4  UNL     1      24.724   0.069  53.016  1.00  0.00    -0.273 NA
HETATM   23  C18 UNL     1      24.822   1.132  52.081  1.00  0.00     0.174 C 
HETATM   24  C19 UNL     1      24.158   2.390  52.222  1.00  0.00     0.118 C 
HETATM   25  N5  UNL     1      24.206   3.623  52.719  1.00  0.00    -0.275 NA
HETATM   26  H14 UNL     1      27.366  -0.703  51.493  1.00  0.00     0.160 HD
ENDROOT
TORSDOF 0
ENDMDL
MODEL 8
REMARK VINA RESULT:      -8.5      3.774      8.641
REMARK  0 active torsions:
REMARK  status: ('A' for Active; 'I' for Inactive)
ROOT
HETATM    1  C1  UNL     1      22.801   6.177  50.203  1.00  0.00     0.118 C 
HETATM    2  C2  UNL     1      23.980   5.821  49.889  1.00  0.00     0.048 C 
HETATM    3  C3  UNL     1      25.242   5.548  49.481  1.00  0.00     0.053 A 
HETATM    4  C4  UNL     1      26.551   5.265  49.058  1.00  0.00     0.133 A 
HETATM    5  C5  UNL     1      26.674   6.643  48.611  1.00  0.00     0.018 A 
HETATM    6  C6  UNL     1      27.826   7.215  48.002  1.00  0.00     0.018 A 
HETATM    7  C7  UNL     1      28.904   6.333  47.843  1.00  0.00     0.116 A 
HETATM    8  N1  UNL     1      28.769   5.071  48.261  1.00  0.00    -0.274 NA
HETATM    9  C8  UNL     1      27.676   4.610  48.814  1.00  0.00     0.131 A 
HETATM   10  N2  UNL     1      25.516   4.297  49.772  1.00  0.00    -0.323 N 
HETATM   11  C9  UNL     1      24.764   3.336  50.375  1.00  0.00     0.039 A 
HETATM   12  C10 UNL     1      25.668   2.537  51.115  1.00  0.00     0.030 A 
HETATM   13  C11 UNL     1      25.429   1.430  51.941  1.00  0.00     0.005 A 
HETATM   14  C12 UNL     1      24.151   0.956  52.140  1.00  0.00     0.037 A 
HETATM   15  C13 UNL     1      23.162   1.639  51.483  1.00  0.00     0.070 A 
HETATM   16  C14 UNL     1      23.576   2.719  50.693  1.00  0.00     0.066 A 
HETATM   17  O1  UNL     1      21.788   1.874  51.141  1.00  0.00    -0.349 OA
HETATM   18  C15 UNL     1      21.204   2.679  52.196  1.00  0.00     0.203 C 
HETATM   19  C16 UNL     1      19.868   3.201  51.985  1.00  0.00     0.136 C 
HETATM   20  N3  UNL     1      18.730   2.376  51.831  1.00  0.00    -0.376 N 
HETATM   21  C17 UNL     1      17.810   3.454  51.410  1.00  0.00     0.197 C 
HETATM   22  N4  UNL     1      18.464   4.368  50.663  1.00  0.00    -0.273 NA
HETATM   23  C18 UNL     1      19.807   3.915  50.573  1.00  0.00     0.174 C 
HETATM   24  C19 UNL     1      20.940   4.778  50.451  1.00  0.00     0.118 C 
HETATM   25  N5  UNL     1      21.860   5.501  51.084  1.00  0.00    -0.275 NA
HETATM   26  H14 UNL     1      18.207   1.467  51.852  1.00  0.00     0.160 HD
ENDROOT
TORSDOF 0
ENDMDL
MODEL 9
REMARK VINA RESULT:      -8.5      3.954      7.388
REMARK  0 active torsions:
REMARK  status: ('A' for Active; 'I' for Inactive)
ROOT
HETATM    1  C1  UNL     1      21.757   3.832  51.160  1.00  0.00     0.118 C 
HETATM    2  C2  UNL     1      22.766   3.146  51.515  1.00  0.00     0.048 C 
HETATM    3  C3  UNL     1      23.764   2.356  51.979  1.00  0.00     0.053 A 
HETATM    4  C4  UNL     1      24.797   1.537  52.460  1.00  0.00     0.133 A 
HETATM    5  C5  UNL     1      23.795   0.676  53.067  1.00  0.00     0.018 A 
HETATM    6  C6  UNL     1      24.063  -0.504  53.816  1.00  0.00     0.018 A 
HETATM    7  C7  UNL     1      25.422  -0.816  53.952  1.00  0.00     0.116 A 
HETATM    8  N1  UNL     1      26.327  -0.011  53.387  1.00  0.00    -0.274 NA
HETATM    9  C8  UNL     1      26.009   1.062  52.709  1.00  0.00     0.131 A 
HETATM   10  N2  UNL     1      24.911   2.846  51.570  1.00  0.00    -0.323 N 
HETATM   11  C9  UNL     1      25.195   3.940  50.811  1.00  0.00     0.039 A 
HETATM   12  C10 UNL     1      26.342   3.604  50.053  1.00  0.00     0.030 A 
HETATM   13  C11 UNL     1      27.041   4.349  49.094  1.00  0.00     0.005 A 
HETATM   14  C12 UNL     1      26.639   5.621  48.752  1.00  0.00     0.037 A 
HETATM   15  C13 UNL     1      25.529   6.083  49.409  1.00  0.00     0.070 A 
HETATM   16  C14 UNL     1      24.955   5.211  50.342  1.00  0.00     0.066 A 
HETATM   17  O1  UNL     1      24.530   7.078  49.676  1.00  0.00    -0.349 OA
HETATM   18  C15 UNL     1      23.486   6.932  48.679  1.00  0.00     0.203 C 
HETATM   19  C16 UNL     1      22.275   7.709  48.851  1.00  0.00     0.136 C 
HETATM   20  N3  UNL     1      22.253   9.124  48.830  1.00  0.00    -0.376 N 
HETATM   21  C17 UNL     1      20.859   9.266  49.302  1.00  0.00     0.197 C 
HETATM   22  N4  UNL     1      20.561   8.296  50.192  1.00  0.00    -0.273 NA
HETATM   23  C18 UNL     1      21.735   7.509  50.326  1.00  0.00     0.174 C 
HETATM   24  C19 UNL     1      21.737   6.111  50.624  1.00  0.00     0.118 C 
HETATM   25  N5  UNL     1      21.687   4.872  50.144  1.00  0.00    -0.275 NA
HETATM   26  H14 UNL     1      22.661  10.076  48.670  1.00  0.00     0.160 HD
ENDROOT
TORSDOF 0
ENDMDL
