MODEL 1
REMARK VINA RESULT:      -8.9      0.000      0.000
REMARK  3 active torsions:
REMARK  status: ('A' for Active; 'I' for Inactive)
REMARK    1  A    between atoms: O1_1  and  C1_2 
REMARK    2  A    between atoms: C4_5  and  N1_6 
REMARK    3  A    between atoms: N1_6  and  C5_7 
ROOT
HETATM    1  C1  UNL     1      22.228  -0.432  52.927  1.00  0.00     0.054 C 
HETATM    2  C2  UNL     1      23.336   0.240  53.424  1.00  0.00     0.046 C 
HETATM    3  C3  UNL     1      23.819   1.542  52.802  1.00  0.00     0.013 C 
HETATM    4  C4  UNL     1      25.040   0.997  52.510  1.00  0.00     0.130 C 
HETATM    5  N2  UNL     1      26.092   1.338  51.546  1.00  0.00    -0.263 N 
HETATM    6  N3  UNL     1      26.209   2.431  50.640  1.00  0.00    -0.187 NA
HETATM    7  C11 UNL     1      25.259   3.232  50.199  1.00  0.00     0.143 C 
HETATM    8  C12 UNL     1      23.738   3.048  50.124  1.00  0.00     0.165 C 
HETATM    9  C13 UNL     1      23.268   3.810  48.908  1.00  0.00     0.067 C 
HETATM   10  C14 UNL     1      22.128   3.167  48.202  1.00  0.00     0.273 C 
HETATM   11  N4  UNL     1      20.803   3.479  48.667  1.00  0.00     0.094 N 
HETATM   12  C15 UNL     1      20.017   2.179  48.697  1.00  0.00     0.361 C 
HETATM   13  C16 UNL     1      20.571   1.474  49.789  1.00  0.00    -0.082 C 
HETATM   14  S1  UNL     1      21.042   0.908  50.699  1.00  0.00    -0.084 SA
HETATM   15  C17 UNL     1      21.659   0.210  51.859  1.00  0.00     0.151 C 
HETATM   16  O2  UNL     1      23.102   3.286  51.237  1.00  0.00    -0.376 OA
HETATM   17  C18 UNL     1      23.466   2.950  52.475  1.00  0.00     0.211 C 
HETATM   18  H7  UNL     1      26.912   0.686  51.491  1.00  0.00     0.190 HD
HETATM   19  H14 UNL     1      20.888   3.750  49.682  1.00  0.00     0.317 HD
ENDROOT
BRANCH   4  20
HETATM   20  N1  UNL     1      25.477  -0.145  53.250  1.00  0.00    -0.341 N 
HETATM   21  H3  UNL     1      24.976  -0.946  53.681  1.00  0.00     0.167 HD
BRANCH  20  22
HETATM   22  C5  UNL     1      26.912  -0.188  53.435  1.00  0.00     0.035 A 
HETATM   23  C6  UNL     1      27.641  -1.296  53.058  1.00  0.00     0.032 A 
HETATM   24  C7  UNL     1      29.016  -1.432  53.200  1.00  0.00     0.046 A 
HETATM   25  C8  UNL     1      29.695  -0.373  53.764  1.00  0.00     0.138 A 
HETATM   26  F1  UNL     1      31.051  -0.489  53.909  1.00  0.00    -0.204 F 
HETATM   27  C9  UNL     1      29.019   0.766  54.160  1.00  0.00     0.074 A 
HETATM   28 CL1  UNL     1      29.874   2.114  54.871  1.00  0.00    -0.081 Cl
HETATM   29  C10 UNL     1      27.654   0.834  53.991  1.00  0.00     0.056 A 
ENDBRANCH  20  22
ENDBRANCH   4  20
BRANCH   1  30
HETATM   30  O1  UNL     1      21.836  -1.595  53.514  1.00  0.00    -0.364 OA
HETATM   31  H1  UNL     1      22.006  -1.813  54.507  1.00  0.00     0.217 HD
ENDBRANCH   1  30
TORSDOF 3
ENDMDL
MODEL 2
REMARK VINA RESULT:      -8.8      2.959      4.634
REMARK  3 active torsions:
REMARK  status: ('A' for Active; 'I' for Inactive)
REMARK    1  A    between atoms: O1_1  and  C1_2 
REMARK    2  A    between atoms: C4_5  and  N1_6 
REMARK    3  A    between atoms: N1_6  and  C5_7 
ROOT
HETATM    1  C1  UNL     1      26.423   5.377  48.963  1.00  0.00     0.054 C 
HETATM    2  C2  UNL     1      26.394   4.091  49.483  1.00  0.00     0.046 C 
HETATM    3  C3  UNL     1      25.082   3.411  49.845  1.00  0.00     0.013 C 
HETATM    4  C4  UNL     1      25.464   3.278  51.152  1.00  0.00     0.130 C 
HETATM    5  N2  UNL     1      24.724   3.090  52.406  1.00  0.00    -0.263 N 
HETATM    6  N3  UNL     1      23.334   2.898  52.649  1.00  0.00    -0.187 NA
HETATM    7  C11 UNL     1      22.319   3.169  51.850  1.00  0.00     0.143 C 
HETATM    8  C12 UNL     1      22.203   4.123  50.655  1.00  0.00     0.165 C 
HETATM    9  C13 UNL     1      20.779   4.625  50.638  1.00  0.00     0.067 C 
HETATM   10  C14 UNL     1      20.646   6.034  50.182  1.00  0.00     0.273 C 
HETATM   11  N4  UNL     1      20.537   6.262  48.766  1.00  0.00     0.094 N 
HETATM   12  C15 UNL     1      21.422   7.451  48.430  1.00  0.00     0.361 C 
HETATM   13  C16 UNL     1      22.734   6.943  48.561  1.00  0.00    -0.082 C 
HETATM   14  S1  UNL     1      23.813   6.502  48.673  1.00  0.00    -0.084 SA
HETATM   15  C17 UNL     1      25.172   5.916  48.823  1.00  0.00     0.151 C 
HETATM   16  O2  UNL     1      22.663   3.650  49.530  1.00  0.00    -0.376 OA
HETATM   17  C18 UNL     1      23.768   2.931  49.336  1.00  0.00     0.211 C 
HETATM   18  H7  UNL     1      25.287   3.091  53.291  1.00  0.00     0.190 HD
HETATM   19  H14 UNL     1      21.005   5.449  48.286  1.00  0.00     0.317 HD
ENDROOT
BRANCH   4  20
HETATM   20  N1  UNL     1      26.858   3.307  51.467  1.00  0.00    -0.341 N 
HETATM   21  H3  UNL     1      27.617   3.988  51.266  1.00  0.00     0.167 HD
BRANCH  20  22
HETATM   22  C5  UNL     1      27.297   2.150  52.216  1.00  0.00     0.035 A 
HETATM   23  C6  UNL     1      28.212   2.275  53.239  1.00  0.00     0.032 A 
HETATM   24  C7  UNL     1      28.697   1.225  54.009  1.00  0.00     0.046 A 
HETATM   25  C8  UNL     1      28.221  -0.035  53.719  1.00  0.00     0.138 A 
HETATM   26  F1  UNL     1      28.685  -1.082  54.470  1.00  0.00    -0.204 F 
HETATM   27  C9  UNL     1      27.301  -0.224  52.705  1.00  0.00     0.074 A 
HETATM   28 CL1  UNL     1      26.689  -1.819  52.335  1.00  0.00    -0.081 Cl
HETATM   29  C10 UNL     1      26.863   0.862  51.980  1.00  0.00     0.056 A 
ENDBRANCH  20  22
ENDBRANCH   4  20
BRANCH   1  30
HETATM   30  O1  UNL     1      27.621   5.945  48.657  1.00  0.00    -0.364 OA
HETATM   31  H1  UNL     1      28.315   5.503  48.036  1.00  0.00     0.217 HD
ENDBRANCH   1  30
TORSDOF 3
ENDMDL
MODEL 3
REMARK VINA RESULT:      -8.8      2.313      3.833
REMARK  3 active torsions:
REMARK  status: ('A' for Active; 'I' for Inactive)
REMARK    1  A    between atoms: O1_1  and  C1_2 
REMARK    2  A    between atoms: C4_5  and  N1_6 
REMARK    3  A    between atoms: N1_6  and  C5_7 
ROOT
HETATM    1  C1  UNL     1      23.533   4.826  52.058  1.00  0.00     0.054 C 
HETATM    2  C2  UNL     1      24.348   3.714  51.906  1.00  0.00     0.046 C 
HETATM    3  C3  UNL     1      23.771   2.349  51.559  1.00  0.00     0.013 C 
HETATM    4  C4  UNL     1      24.268   1.801  52.710  1.00  0.00     0.130 C 
HETATM    5  N2  UNL     1      23.916   0.612  53.496  1.00  0.00    -0.263 N 
HETATM    6  N3  UNL     1      22.967  -0.421  53.250  1.00  0.00    -0.187 NA
HETATM    7  C11 UNL     1      21.935  -0.405  52.428  1.00  0.00     0.143 C 
HETATM    8  C12 UNL     1      21.151   0.763  51.816  1.00  0.00     0.165 C 
HETATM    9  C13 UNL     1      19.725   0.290  51.657  1.00  0.00     0.067 C 
HETATM   10  C14 UNL     1      18.713   1.358  51.877  1.00  0.00     0.273 C 
HETATM   11  N4  UNL     1      18.361   2.177  50.749  1.00  0.00     0.094 N 
HETATM   12  C15 UNL     1      18.292   3.614  51.237  1.00  0.00     0.361 C 
HETATM   13  C16 UNL     1      19.644   3.960  51.462  1.00  0.00    -0.082 C 
HETATM   14  S1  UNL     1      20.770   4.227  51.639  1.00  0.00    -0.084 SA
HETATM   15  C17 UNL     1      22.208   4.539  51.857  1.00  0.00     0.151 C 
HETATM   16  O2  UNL     1      21.702   1.301  50.765  1.00  0.00    -0.376 OA
HETATM   17  C18 UNL     1      22.994   1.563  50.562  1.00  0.00     0.211 C 
HETATM   18  H7  UNL     1      24.434   0.471  54.397  1.00  0.00     0.190 HD
HETATM   19  H14 UNL     1      19.186   2.168  50.092  1.00  0.00     0.317 HD
ENDROOT
BRANCH   4  20
HETATM   20  N1  UNL     1      25.369   2.442  53.357  1.00  0.00    -0.341 N 
HETATM   21  H3  UNL     1      25.483   3.369  53.812  1.00  0.00     0.167 HD
BRANCH  20  22
HETATM   22  C5  UNL     1      26.568   1.632  53.378  1.00  0.00     0.035 A 
HETATM   23  C6  UNL     1      27.794   2.192  53.668  1.00  0.00     0.032 A 
HETATM   24  C7  UNL     1      28.998   1.500  53.706  1.00  0.00     0.046 A 
HETATM   25  C8  UNL     1      28.953   0.150  53.429  1.00  0.00     0.138 A 
HETATM   26  F1  UNL     1      30.129  -0.549  53.465  1.00  0.00    -0.204 F 
HETATM   27  C9  UNL     1      27.752  -0.468  53.132  1.00  0.00     0.074 A 
HETATM   28 CL1  UNL     1      27.687  -2.179  52.786  1.00  0.00    -0.081 Cl
HETATM   29  C10 UNL     1      26.596   0.279  53.111  1.00  0.00     0.056 A 
ENDBRANCH  20  22
ENDBRANCH   4  20
BRANCH   1  30
HETATM   30  O1  UNL     1      24.094   6.025  52.372  1.00  0.00    -0.364 OA
HETATM   31  H1  UNL     1      23.980   6.480  53.290  1.00  0.00     0.217 HD
ENDBRANCH   1  30
TORSDOF 3
ENDMDL
MODEL 4
REMARK VINA RESULT:      -8.7      3.885      5.588
REMARK  3 active torsions:
REMARK  status: ('A' for Active; 'I' for Inactive)
REMARK    1  A    between atoms: O1_1  and  C1_2 
REMARK    2  A    between atoms: C4_5  and  N1_6 
REMARK    3  A    between atoms: N1_6  and  C5_7 
ROOT
HETATM    1  C1  UNL     1      26.990   4.890  48.981  1.00  0.00     0.054 C 
HETATM    2  C2  UNL     1      26.249   3.863  49.548  1.00  0.00     0.046 C 
HETATM    3  C3  UNL     1      24.755   4.008  49.798  1.00  0.00     0.013 C 
HETATM    4  C4  UNL     1      24.921   3.811  51.143  1.00  0.00     0.130 C 
HETATM    5  N2  UNL     1      24.112   4.152  52.319  1.00  0.00    -0.263 N 
HETATM    6  N3  UNL     1      22.819   4.741  52.424  1.00  0.00    -0.187 NA
HETATM    7  C11 UNL     1      22.158   5.430  51.514  1.00  0.00     0.143 C 
HETATM    8  C12 UNL     1      22.646   6.192  50.275  1.00  0.00     0.165 C 
HETATM    9  C13 UNL     1      21.709   7.362  50.090  1.00  0.00     0.067 C 
HETATM   10  C14 UNL     1      22.375   8.584  49.566  1.00  0.00     0.273 C 
HETATM   11  N4  UNL     1      22.497   8.708  48.138  1.00  0.00     0.094 N 
HETATM   12  C15 UNL     1      23.898   9.221  47.847  1.00  0.00     0.361 C 
HETATM   13  C16 UNL     1      24.729   8.114  48.135  1.00  0.00    -0.082 C 
HETATM   14  S1  UNL     1      25.399   7.185  48.376  1.00  0.00    -0.084 SA
HETATM   15  C17 UNL     1      26.228   5.991  48.691  1.00  0.00     0.151 C 
HETATM   16  O2  UNL     1      22.858   5.450  49.225  1.00  0.00    -0.376 OA
HETATM   17  C18 UNL     1      23.424   4.244  49.176  1.00  0.00     0.211 C 
HETATM   18  H7  UNL     1      24.529   3.938  53.257  1.00  0.00     0.190 HD
HETATM   19  H14 UNL     1      22.495   7.731  47.742  1.00  0.00     0.317 HD
ENDROOT
BRANCH   4  20
HETATM   20  N1  UNL     1      26.093   3.134  51.599  1.00  0.00    -0.341 N 
HETATM   21  H3  UNL     1      27.107   3.270  51.419  1.00  0.00     0.167 HD
BRANCH  20  22
HETATM   22  C5  UNL     1      25.803   2.033  52.493  1.00  0.00     0.035 A 
HETATM   23  C6  UNL     1      26.638   1.742  53.550  1.00  0.00     0.032 A 
HETATM   24  C7  UNL     1      26.447   0.706  54.456  1.00  0.00     0.046 A 
HETATM   25  C8  UNL     1      25.335  -0.088  54.273  1.00  0.00     0.138 A 
HETATM   26  F1  UNL     1      25.129  -1.112  55.158  1.00  0.00    -0.204 F 
HETATM   27  C9  UNL     1      24.460   0.155  53.231  1.00  0.00     0.074 A 
HETATM   28 CL1  UNL     1      23.046  -0.844  52.996  1.00  0.00    -0.081 Cl
HETATM   29  C10 UNL     1      24.710   1.200  52.369  1.00  0.00     0.056 A 
ENDBRANCH  20  22
ENDBRANCH   4  20
BRANCH   1  30
HETATM   30  O1  UNL     1      28.324   4.716  48.779  1.00  0.00    -0.364 OA
HETATM   31  H1  UNL     1      28.865   5.244  48.078  1.00  0.00     0.217 HD
ENDBRANCH   1  30
TORSDOF 3
ENDMDL
MODEL 5
REMARK VINA RESULT:      -8.3      4.467      8.037
REMARK  3 active torsions:
REMARK  status: ('A' for Active; 'I' for Inactive)
REMARK    1  A    between atoms: O1_1  and  C1_2 
REMARK    2  A    between atoms: C4_5  and  N1_6 
REMARK    3  A    between atoms: N1_6  and  C5_7 
ROOT
HETATM    1  C1  UNL     1      26.497   3.559  50.309  1.00  0.00     0.054 C 
HETATM    2  C2  UNL     1      25.147   3.873  50.241  1.00  0.00     0.046 C 
HETATM    3  C3  UNL     1      24.136   3.238  51.185  1.00  0.00     0.013 C 
HETATM    4  C4  UNL     1      23.440   2.695  50.139  1.00  0.00     0.130 C 
HETATM    5  N2  UNL     1      22.505   1.569  50.026  1.00  0.00    -0.263 N 
HETATM    6  N3  UNL     1      21.950   0.713  51.020  1.00  0.00    -0.187 NA
HETATM    7  C11 UNL     1      22.382   0.498  52.248  1.00  0.00     0.143 C 
HETATM    8  C12 UNL     1      23.765   0.700  52.880  1.00  0.00     0.165 C 
HETATM    9  C13 UNL     1      23.917  -0.367  53.938  1.00  0.00     0.067 C 
HETATM   10  C14 UNL     1      25.307  -0.879  54.076  1.00  0.00     0.273 C 
HETATM   11  N4  UNL     1      26.191  -0.159  54.952  1.00  0.00     0.094 N 
HETATM   12  C15 UNL     1      27.533  -0.048  54.249  1.00  0.00     0.361 C 
HETATM   13  C16 UNL     1      27.296   0.885  53.214  1.00  0.00    -0.082 C 
HETATM   14  S1  UNL     1      27.079   1.662  52.366  1.00  0.00    -0.084 SA
HETATM   15  C17 UNL     1      26.776   2.649  51.295  1.00  0.00     0.151 C 
HETATM   16  O2  UNL     1      24.023   1.923  53.250  1.00  0.00    -0.376 OA
HETATM   17  C18 UNL     1      23.732   3.052  52.605  1.00  0.00     0.211 C 
HETATM   18  H7  UNL     1      22.169   1.330  49.061  1.00  0.00     0.190 HD
HETATM   19  H14 UNL     1      25.841   0.835  54.996  1.00  0.00     0.317 HD
ENDROOT
BRANCH   4  20
HETATM   20  N1  UNL     1      23.578   3.282  48.843  1.00  0.00    -0.341 N 
HETATM   21  H3  UNL     1      24.392   3.433  48.216  1.00  0.00     0.167 HD
BRANCH  20  22
HETATM   22  C5  UNL     1      22.326   3.763  48.300  1.00  0.00     0.035 A 
HETATM   23  C6  UNL     1      21.882   3.339  47.066  1.00  0.00     0.032 A 
HETATM   24  C7  UNL     1      20.700   3.747  46.460  1.00  0.00     0.046 A 
HETATM   25  C8  UNL     1      19.920   4.647  47.154  1.00  0.00     0.138 A 
HETATM   26  F1  UNL     1      18.750   5.059  46.574  1.00  0.00    -0.204 F 
HETATM   27  C9  UNL     1      20.312   5.109  48.397  1.00  0.00     0.074 A 
HETATM   28 CL1  UNL     1      19.326   6.246  49.283  1.00  0.00    -0.081 Cl
HETATM   29  C10 UNL     1      21.497   4.662  48.939  1.00  0.00     0.056 A 
ENDBRANCH  20  22
ENDBRANCH   4  20
BRANCH   1  30
HETATM   30  O1  UNL     1      27.362   4.150  49.442  1.00  0.00    -0.364 OA
HETATM   31  H1  UNL     1      27.882   5.013  49.660  1.00  0.00     0.217 HD
ENDBRANCH   1  30
TORSDOF 3
ENDMDL
MODEL 6
REMARK VINA RESULT:      -8.3      3.758      5.867
REMARK  3 active torsions:
REMARK  status: ('A' for Active; 'I' for Inactive)
REMARK    1  A    between atoms: O1_1  and  C1_2 
REMARK    2  A    between atoms: C4_5  and  N1_6 
REMARK    3  A    between atoms: N1_6  and  C5_7 
ROOT
HETATM    1  C1  UNL     1      26.243   1.138  52.306  1.00  0.00     0.054 C 
HETATM    2  C2  UNL     1      26.009   2.399  51.776  1.00  0.00     0.046 C 
HETATM    3  C3  UNL     1      24.606   2.984  51.711  1.00  0.00     0.013 C 
HETATM    4  C4  UNL     1      24.669   3.090  50.348  1.00  0.00     0.130 C 
HETATM    5  N2  UNL     1      23.650   3.185  49.295  1.00  0.00    -0.263 N 
HETATM    6  N3  UNL     1      22.232   3.283  49.376  1.00  0.00    -0.187 NA
HETATM    7  C11 UNL     1      21.448   2.982  50.393  1.00  0.00     0.143 C 
HETATM    8  C12 UNL     1      21.673   2.069  51.605  1.00  0.00     0.165 C 
HETATM    9  C13 UNL     1      20.328   1.484  51.962  1.00  0.00     0.067 C 
HETATM   10  C14 UNL     1      20.399   0.087  52.470  1.00  0.00     0.273 C 
HETATM   11  N4  UNL     1      20.631  -0.092  53.877  1.00  0.00     0.094 N 
HETATM   12  C15 UNL     1      21.648  -1.212  54.028  1.00  0.00     0.361 C 
HETATM   13  C16 UNL     1      22.858  -0.631  53.585  1.00  0.00    -0.082 C 
HETATM   14  S1  UNL     1      23.850  -0.130  53.217  1.00  0.00    -0.084 SA
HETATM   15  C17 UNL     1      25.096   0.530  52.743  1.00  0.00     0.151 C 
HETATM   16  O2  UNL     1      22.345   2.612  52.581  1.00  0.00    -0.376 OA
HETATM   17  C18 UNL     1      23.414   3.404  52.498  1.00  0.00     0.211 C 
HETATM   18  H7  UNL     1      23.994   3.183  48.305  1.00  0.00     0.190 HD
HETATM   19  H14 UNL     1      21.142   0.765  54.218  1.00  0.00     0.317 HD
ENDROOT
BRANCH   4  20
HETATM   20  N1  UNL     1      25.952   3.132  49.721  1.00  0.00    -0.341 N 
HETATM   21  H3  UNL     1      26.637   2.398  49.456  1.00  0.00     0.167 HD
BRANCH  20  22
HETATM   22  C5  UNL     1      26.380   4.475  49.391  1.00  0.00     0.035 A 
HETATM   23  C6  UNL     1      27.543   4.692  48.683  1.00  0.00     0.032 A 
HETATM   24  C7  UNL     1      28.038   5.940  48.324  1.00  0.00     0.046 A 
HETATM   25  C8  UNL     1      27.303   7.039  48.713  1.00  0.00     0.138 A 
HETATM   26  F1  UNL     1      27.773   8.277  48.366  1.00  0.00    -0.204 F 
HETATM   27  C9  UNL     1      26.127   6.885  49.424  1.00  0.00     0.074 A 
HETATM   28 CL1  UNL     1      25.188   8.274  49.915  1.00  0.00    -0.081 Cl
HETATM   29  C10 UNL     1      25.695   5.618  49.746  1.00  0.00     0.056 A 
ENDBRANCH  20  22
ENDBRANCH   4  20
BRANCH   1  30
HETATM   30  O1  UNL     1      27.515   0.656  52.339  1.00  0.00    -0.364 OA
HETATM   31  H1  UNL     1      28.043   0.393  51.494  1.00  0.00     0.217 HD
ENDBRANCH   1  30
TORSDOF 3
ENDMDL
MODEL 7
REMARK VINA RESULT:      -8.0      2.980      3.834
REMARK  3 active torsions:
REMARK  status: ('A' for Active; 'I' for Inactive)
REMARK    1  A    between atoms: O1_1  and  C1_2 
REMARK    2  A    between atoms: C4_5  and  N1_6 
REMARK    3  A    between atoms: N1_6  and  C5_7 
ROOT
HETATM    1  C1  UNL     1      20.919   3.936  51.967  1.00  0.00     0.054 C 
HETATM    2  C2  UNL     1      22.226   3.787  52.408  1.00  0.00     0.046 C 
HETATM    3  C3  UNL     1      23.372   4.559  51.770  1.00  0.00     0.013 C 
HETATM    4  C4  UNL     1      24.005   3.400  51.410  1.00  0.00     0.130 C 
HETATM    5  N2  UNL     1      25.012   3.075  50.393  1.00  0.00    -0.263 N 
HETATM    6  N3  UNL     1      25.729   3.910  49.489  1.00  0.00    -0.187 NA
HETATM    7  C11 UNL     1      25.438   5.138  49.104  1.00  0.00     0.143 C 
HETATM    8  C12 UNL     1      24.112   5.908  49.110  1.00  0.00     0.165 C 
HETATM    9  C13 UNL     1      24.150   6.844  47.925  1.00  0.00     0.067 C 
HETATM   10  C14 UNL     1      22.827   7.043  47.276  1.00  0.00     0.273 C 
HETATM   11  N4  UNL     1      21.977   8.072  47.813  1.00  0.00     0.094 N 
HETATM   12  C15 UNL     1      20.568   7.507  47.876  1.00  0.00     0.361 C 
HETATM   13  C16 UNL     1      20.626   6.570  48.933  1.00  0.00    -0.082 C 
HETATM   14  S1  UNL     1      20.696   5.802  49.813  1.00  0.00    -0.084 SA
HETATM   15  C17 UNL     1      20.811   4.831  50.934  1.00  0.00     0.151 C 
HETATM   16  O2  UNL     1      23.792   6.439  50.256  1.00  0.00    -0.376 OA
HETATM   17  C18 UNL     1      23.926   5.907  51.471  1.00  0.00     0.211 C 
HETATM   18  H7  UNL     1      25.270   2.063  50.291  1.00  0.00     0.190 HD
HETATM   19  H14 UNL     1      22.248   8.200  48.824  1.00  0.00     0.317 HD
ENDROOT
BRANCH   4  20
HETATM   20  N1  UNL     1      23.693   2.198  52.118  1.00  0.00    -0.341 N 
HETATM   21  H3  UNL     1      22.804   1.700  52.313  1.00  0.00     0.167 HD
BRANCH  20  22
HETATM   22  C5  UNL     1      24.860   1.549  52.677  1.00  0.00     0.035 A 
HETATM   23  C6  UNL     1      25.668   2.204  53.582  1.00  0.00     0.032 A 
HETATM   24  C7  UNL     1      26.807   1.668  54.168  1.00  0.00     0.046 A 
HETATM   25  C8  UNL     1      27.150   0.382  53.809  1.00  0.00     0.138 A 
HETATM   26  F1  UNL     1      28.269  -0.165  54.378  1.00  0.00    -0.204 F 
HETATM   27  C9  UNL     1      26.377  -0.327  52.907  1.00  0.00     0.074 A 
HETATM   28 CL1  UNL     1      26.802  -1.959  52.451  1.00  0.00    -0.081 Cl
HETATM   29  C10 UNL     1      25.260   0.266  52.364  1.00  0.00     0.056 A 
ENDBRANCH  20  22
ENDBRANCH   4  20
BRANCH   1  30
HETATM   30  O1  UNL     1      19.928   3.223  52.566  1.00  0.00    -0.364 OA
HETATM   31  H1  UNL     1      19.010   3.624  52.810  1.00  0.00     0.217 HD
ENDBRANCH   1  30
TORSDOF 3
ENDMDL
MODEL 8
REMARK VINA RESULT:      -7.9      6.347      8.685
REMARK  3 active torsions:
REMARK  status: ('A' for Active; 'I' for Inactive)
REMARK    1  A    between atoms: O1_1  and  C1_2 
REMARK    2  A    between atoms: C4_5  and  N1_6 
REMARK    3  A    between atoms: N1_6  and  C5_7 
ROOT
HETATM    1  C1  UNL     1      29.714   5.843  48.216  1.00  0.00     0.054 C 
HETATM    2  C2  UNL     1      28.386   5.442  48.194  1.00  0.00     0.046 C 
HETATM    3  C3  UNL     1      27.253   6.454  48.112  1.00  0.00     0.013 C 
HETATM    4  C4  UNL     1      26.729   6.025  49.302  1.00  0.00     0.130 C 
HETATM    5  N2  UNL     1      25.837   6.640  50.292  1.00  0.00    -0.263 N 
HETATM    6  N3  UNL     1      25.149   7.887  50.281  1.00  0.00    -0.187 NA
HETATM    7  C11 UNL     1      25.394   8.949  49.537  1.00  0.00     0.143 C 
HETATM    8  C12 UNL     1      26.663   9.392  48.797  1.00  0.00     0.165 C 
HETATM    9  C13 UNL     1      26.668  10.902  48.812  1.00  0.00     0.067 C 
HETATM   10  C14 UNL     1      28.027  11.495  48.922  1.00  0.00     0.273 C 
HETATM   11  N4  UNL     1      28.759  11.699  47.702  1.00  0.00     0.094 N 
HETATM   12  C15 UNL     1      30.191  11.256  47.954  1.00  0.00     0.361 C 
HETATM   13  C16 UNL     1      30.101   9.848  48.029  1.00  0.00    -0.082 C 
HETATM   14  S1  UNL     1      30.004   8.682  48.085  1.00  0.00    -0.084 SA
HETATM   15  C17 UNL     1      29.853   7.204  48.153  1.00  0.00     0.151 C 
HETATM   16  O2  UNL     1      26.847   8.824  47.638  1.00  0.00    -0.376 OA
HETATM   17  C18 UNL     1      26.641   7.548  47.310  1.00  0.00     0.211 C 
HETATM   18  H7  UNL     1      25.654   6.092  51.167  1.00  0.00     0.190 HD
HETATM   19  H14 UNL     1      28.394  11.000  47.002  1.00  0.00     0.317 HD
ENDROOT
BRANCH   4  20
HETATM   20  N1  UNL     1      27.054   4.711  49.761  1.00  0.00    -0.341 N 
HETATM   21  H3  UNL     1      27.953   4.226  49.946  1.00  0.00     0.167 HD
BRANCH  20  22
HETATM   22  C5  UNL     1      25.887   3.893  50.017  1.00  0.00     0.035 A 
HETATM   23  C6  UNL     1      24.818   3.896  49.148  1.00  0.00     0.032 A 
HETATM   24  C7  UNL     1      23.656   3.152  49.310  1.00  0.00     0.046 A 
HETATM   25  C8  UNL     1      23.575   2.354  50.431  1.00  0.00     0.138 A 
HETATM   26  F1  UNL     1      22.439   1.611  50.606  1.00  0.00    -0.204 F 
HETATM   27  C9  UNL     1      24.617   2.308  51.339  1.00  0.00     0.074 A 
HETATM   28 CL1  UNL     1      24.524   1.295  52.760  1.00  0.00    -0.081 Cl
HETATM   29  C10 UNL     1      25.741   3.073  51.117  1.00  0.00     0.056 A 
ENDBRANCH  20  22
ENDBRANCH   4  20
BRANCH   1  30
HETATM   30  O1  UNL     1      30.693   4.901  48.294  1.00  0.00    -0.364 OA
HETATM   31  H1  UNL     1      31.234   4.579  47.478  1.00  0.00     0.217 HD
ENDBRANCH   1  30
TORSDOF 3
ENDMDL
MODEL 9
REMARK VINA RESULT:      -7.9      3.081      4.506
REMARK  3 active torsions:
REMARK  status: ('A' for Active; 'I' for Inactive)
REMARK    1  A    between atoms: O1_1  and  C1_2 
REMARK    2  A    between atoms: C4_5  and  N1_6 
REMARK    3  A    between atoms: N1_6  and  C5_7 
ROOT
HETATM    1  C1  UNL     1      23.840   6.036  51.231  1.00  0.00     0.054 C 
HETATM    2  C2  UNL     1      24.427   4.820  50.914  1.00  0.00     0.046 C 
HETATM    3  C3  UNL     1      23.765   3.846  49.950  1.00  0.00     0.013 C 
HETATM    4  C4  UNL     1      23.702   2.874  50.911  1.00  0.00     0.130 C 
HETATM    5  N2  UNL     1      22.872   1.675  51.080  1.00  0.00    -0.263 N 
HETATM    6  N3  UNL     1      21.897   1.087  50.226  1.00  0.00    -0.187 NA
HETATM    7  C11 UNL     1      21.252   1.642  49.217  1.00  0.00     0.143 C 
HETATM    8  C12 UNL     1      20.977   3.114  48.884  1.00  0.00     0.165 C 
HETATM    9  C13 UNL     1      19.642   3.155  48.180  1.00  0.00     0.067 C 
HETATM   10  C14 UNL     1      18.840   4.370  48.488  1.00  0.00     0.273 C 
HETATM   11  N4  UNL     1      19.080   5.539  47.685  1.00  0.00     0.094 N 
HETATM   12  C15 UNL     1      19.115   6.733  48.625  1.00  0.00     0.361 C 
HETATM   13  C16 UNL     1      20.335   6.580  49.321  1.00  0.00    -0.082 C 
HETATM   14  S1  UNL     1      21.352   6.436  49.883  1.00  0.00    -0.084 SA
HETATM   15  C17 UNL     1      22.647   6.228  50.585  1.00  0.00     0.151 C 
HETATM   16  O2  UNL     1      21.960   3.735  48.295  1.00  0.00    -0.376 OA
HETATM   17  C18 UNL     1      23.263   3.643  48.564  1.00  0.00     0.211 C 
HETATM   18  H7  UNL     1      22.996   1.138  51.973  1.00  0.00     0.190 HD
HETATM   19  H14 UNL     1      20.068   5.469  47.324  1.00  0.00     0.317 HD
ENDROOT
BRANCH   4  20
HETATM   20  N1  UNL     1      24.598   2.947  52.022  1.00  0.00    -0.341 N 
HETATM   21  H3  UNL     1      24.929   3.731  52.616  1.00  0.00     0.167 HD
BRANCH  20  22
HETATM   22  C5  UNL     1      25.157   1.663  52.388  1.00  0.00     0.035 A 
HETATM   23  C6  UNL     1      26.166   1.092  51.641  1.00  0.00     0.032 A 
HETATM   24  C7  UNL     1      26.760  -0.134  51.909  1.00  0.00     0.046 A 
HETATM   25  C8  UNL     1      26.298  -0.828  53.007  1.00  0.00     0.138 A 
HETATM   26  F1  UNL     1      26.874  -2.038  53.288  1.00  0.00    -0.204 F 
HETATM   27  C9  UNL     1      25.289  -0.306  53.795  1.00  0.00     0.074 A 
HETATM   28 CL1  UNL     1      24.701  -1.177  55.191  1.00  0.00    -0.081 Cl
HETATM   29  C10 UNL     1      24.743   0.916  53.472  1.00  0.00     0.056 A 
ENDBRANCH  20  22
ENDBRANCH   4  20
BRANCH   1  30
HETATM   30  O1  UNL     1      24.468   6.872  52.101  1.00  0.00    -0.364 OA
HETATM   31  H1  UNL     1      25.417   6.701  52.465  1.00  0.00     0.217 HD
ENDBRANCH   1  30
TORSDOF 3
ENDMDL
