MODEL 1
REMARK VINA RESULT:      -8.5      0.000      0.000
REMARK  8 active torsions:
REMARK  status: ('A' for Active; 'I' for Inactive)
REMARK    1  A    between atoms: N1_2  and  C3_4 
REMARK    2  A    between atoms: C3_4  and  C4_5 
REMARK    3  A    between atoms: C5_6  and  C6_7 
REMARK    4  A    between atoms: C6_7  and  N3_10 
REMARK    5  A    between atoms: N3_10  and  C8_11 
REMARK    6  A    between atoms: C14_19  and  N5_20 
REMARK    7  A    between atoms: N5_20  and  C15_21 
REMARK    8  A    between atoms: C22_29  and  O1_30 
ROOT
HETATM    1  C6  UNL     1      27.535   1.104  52.313  1.00  0.00     0.270 C 
HETATM    2  C7  UNL     1      28.223   1.892  53.357  1.00  0.00     0.097 C 
HETATM    3  N2  UNL     1      28.759   2.519  54.183  1.00  0.00    -0.194 NA
ENDROOT
BRANCH   1   4
HETATM    4  C5  UNL     1      26.810   1.973  51.396  1.00  0.00    -0.064 C 
HETATM    5  C4  UNL     1      26.200   2.684  50.622  1.00  0.00    -0.073 C 
BRANCH   5   6
HETATM    6  C3  UNL     1      25.462   3.553  49.670  1.00  0.00     0.364 C 
BRANCH   6   7
HETATM    7  N1  UNL     1      26.117   4.850  49.532  1.00  0.00     0.090 N 
HETATM    8  C1  UNL     1      25.248   5.875  49.039  1.00  0.00     0.310 C 
HETATM    9  C2  UNL     1      27.346   4.746  48.798  1.00  0.00     0.310 C 
ENDBRANCH   6   7
ENDBRANCH   5   6
ENDBRANCH   1   4
BRANCH   1  10
HETATM   10  N3  UNL     1      26.633   0.180  52.896  1.00  0.00    -0.360 N 
HETATM   11  H10 UNL     1      26.863  -0.857  52.990  1.00  0.00     0.162 HD
BRANCH  10  12
HETATM   12  C8  UNL     1      25.400  -0.120  53.504  1.00  0.00     0.083 C 
HETATM   13  C9  UNL     1      24.238  -0.035  52.829  1.00  0.00     0.049 C 
HETATM   14  C10 UNL     1      22.878  -0.314  53.329  1.00  0.00     0.021 A 
HETATM   15  C11 UNL     1      22.595  -1.000  54.490  1.00  0.00     0.066 A 
HETATM   16  C14 UNL     1      21.947   0.220  52.467  1.00  0.00     0.064 A 
HETATM   17  N4  UNL     1      21.269  -1.139  54.770  1.00  0.00    -0.261 NA
HETATM   18  C21 UNL     1      23.417  -1.654  55.539  1.00  0.00     0.212 C 
HETATM   19  C12 UNL     1      20.325  -0.620  53.935  1.00  0.00     0.138 A 
HETATM   20  C13 UNL     1      20.621   0.070  52.766  1.00  0.00     0.056 A 
HETATM   21 BR1  UNL     1      19.319   0.787  51.613  1.00  0.00    -0.047 Br
HETATM   22  N6  UNL     1      24.734  -1.129  55.688  1.00  0.00    -0.259 NA
HETATM   23  C22 UNL     1      25.540  -0.522  54.910  1.00  0.00     0.184 C 
BRANCH  23  24
HETATM   24  O1  UNL     1      26.729  -0.211  55.539  1.00  0.00    -0.343 OA
HETATM   25  H21 UNL     1      27.388  -0.911  55.816  1.00  0.00     0.219 HD
ENDBRANCH  23  24
BRANCH  16  26
HETATM   26  N5  UNL     1      22.360   0.907  51.285  1.00  0.00    -0.354 N 
HETATM   27  H13 UNL     1      22.630   0.558  50.338  1.00  0.00     0.166 HD
BRANCH  26  28
HETATM   28  C15 UNL     1      22.405   2.341  51.446  1.00  0.00     0.032 A 
HETATM   29  C16 UNL     1      21.818   3.179  50.501  1.00  0.00     0.029 A 
HETATM   30  C17 UNL     1      21.844   4.572  50.629  1.00  0.00     0.002 A 
HETATM   31  C18 UNL     1      22.469   5.139  51.721  1.00  0.00     0.000 A 
HETATM   32  C19 UNL     1      23.048   4.308  52.653  1.00  0.00     0.002 A 
HETATM   33  C20 UNL     1      23.015   2.959  52.518  1.00  0.00     0.029 A 
ENDBRANCH  26  28
ENDBRANCH  16  26
ENDBRANCH  10  12
ENDBRANCH   1  10
TORSDOF 8
ENDMDL
MODEL 2
REMARK VINA RESULT:      -7.9      1.557      2.100
REMARK  8 active torsions:
REMARK  status: ('A' for Active; 'I' for Inactive)
REMARK    1  A    between atoms: N1_2  and  C3_4 
REMARK    2  A    between atoms: C3_4  and  C4_5 
REMARK    3  A    between atoms: C5_6  and  C6_7 
REMARK    4  A    between atoms: C6_7  and  N3_10 
REMARK    5  A    between atoms: N3_10  and  C8_11 
REMARK    6  A    between atoms: C14_19  and  N5_20 
REMARK    7  A    between atoms: N5_20  and  C15_21 
REMARK    8  A    between atoms: C22_29  and  O1_30 
ROOT
HETATM    1  C6  UNL     1      27.265   1.198  52.291  1.00  0.00     0.270 C 
HETATM    2  C7  UNL     1      27.972   1.941  53.354  1.00  0.00     0.097 C 
HETATM    3  N2  UNL     1      28.525   2.534  54.194  1.00  0.00    -0.194 NA
ENDROOT
BRANCH   1   4
HETATM    4  C5  UNL     1      26.777   2.102  51.257  1.00  0.00    -0.064 C 
HETATM    5  C4  UNL     1      26.384   2.851  50.385  1.00  0.00    -0.073 C 
BRANCH   5   6
HETATM    6  C3  UNL     1      25.908   3.775  49.324  1.00  0.00     0.364 C 
BRANCH   6   7
HETATM    7  N1  UNL     1      26.646   5.033  49.358  1.00  0.00     0.090 N 
HETATM    8  C1  UNL     1      25.831   6.177  49.076  1.00  0.00     0.310 C 
HETATM    9  C2  UNL     1      27.834   4.972  48.555  1.00  0.00     0.310 C 
ENDBRANCH   6   7
ENDBRANCH   5   6
ENDBRANCH   1   4
BRANCH   1  10
HETATM   10  N3  UNL     1      26.176   0.469  52.829  1.00  0.00    -0.360 N 
HETATM   11  H10 UNL     1      26.283  -0.527  53.195  1.00  0.00     0.162 HD
BRANCH  10  12
HETATM   12  C8  UNL     1      24.816   0.366  53.178  1.00  0.00     0.083 C 
HETATM   13  C9  UNL     1      23.865   1.070  52.537  1.00  0.00     0.049 C 
HETATM   14  C10 UNL     1      22.411   1.068  52.789  1.00  0.00     0.021 A 
HETATM   15  C11 UNL     1      21.745   0.114  53.529  1.00  0.00     0.066 A 
HETATM   16  C14 UNL     1      21.831   2.159  52.184  1.00  0.00     0.064 A 
HETATM   17  N4  UNL     1      20.402   0.307  53.645  1.00  0.00    -0.261 NA
HETATM   18  C21 UNL     1      22.155  -1.119  54.247  1.00  0.00     0.212 C 
HETATM   19  C12 UNL     1      19.801   1.380  53.057  1.00  0.00     0.138 A 
HETATM   20  C13 UNL     1      20.482   2.335  52.312  1.00  0.00     0.056 A 
HETATM   21 BR1  UNL     1      19.653   3.817  51.500  1.00  0.00    -0.047 Br
HETATM   22  N6  UNL     1      23.513  -1.141  54.681  1.00  0.00    -0.259 NA
HETATM   23  C22 UNL     1      24.580  -0.571  54.285  1.00  0.00     0.184 C 
BRANCH  23  24
HETATM   24  O1  UNL     1      25.672  -0.923  55.055  1.00  0.00    -0.343 OA
HETATM   25  H21 UNL     1      25.741  -1.811  55.512  1.00  0.00     0.219 HD
ENDBRANCH  23  24
BRANCH  16  26
HETATM   26  N5  UNL     1      22.624   3.080  51.433  1.00  0.00    -0.354 N 
HETATM   27  H13 UNL     1      23.308   3.812  51.732  1.00  0.00     0.166 HD
BRANCH  26  28
HETATM   28  C15 UNL     1      22.434   2.965  50.007  1.00  0.00     0.032 A 
HETATM   29  C16 UNL     1      22.417   4.100  49.200  1.00  0.00     0.029 A 
HETATM   30  C17 UNL     1      22.236   4.021  47.814  1.00  0.00     0.002 A 
HETATM   31  C18 UNL     1      22.068   2.785  47.224  1.00  0.00     0.000 A 
HETATM   32  C19 UNL     1      22.085   1.666  48.025  1.00  0.00     0.002 A 
HETATM   33  C20 UNL     1      22.263   1.755  49.366  1.00  0.00     0.029 A 
ENDBRANCH  26  28
ENDBRANCH  16  26
ENDBRANCH  10  12
ENDBRANCH   1  10
TORSDOF 8
ENDMDL
MODEL 3
REMARK VINA RESULT:      -7.6      2.633      5.789
REMARK  8 active torsions:
REMARK  status: ('A' for Active; 'I' for Inactive)
REMARK    1  A    between atoms: N1_2  and  C3_4 
REMARK    2  A    between atoms: C3_4  and  C4_5 
REMARK    3  A    between atoms: C5_6  and  C6_7 
REMARK    4  A    between atoms: C6_7  and  N3_10 
REMARK    5  A    between atoms: N3_10  and  C8_11 
REMARK    6  A    between atoms: C14_19  and  N5_20 
REMARK    7  A    between atoms: N5_20  and  C15_21 
REMARK    8  A    between atoms: C22_29  and  O1_30 
ROOT
HETATM    1  C6  UNL     1      23.239  -0.439  53.346  1.00  0.00     0.270 C 
HETATM    2  C7  UNL     1      22.959  -1.149  54.611  1.00  0.00     0.097 C 
HETATM    3  N2  UNL     1      22.743  -1.704  55.615  1.00  0.00    -0.194 NA
ENDROOT
BRANCH   1   4
HETATM    4  C5  UNL     1      24.670  -0.224  53.173  1.00  0.00    -0.064 C 
HETATM    5  C4  UNL     1      25.866  -0.060  53.037  1.00  0.00    -0.073 C 
BRANCH   5   6
HETATM    6  C3  UNL     1      27.328   0.146  52.879  1.00  0.00     0.364 C 
BRANCH   6   7
HETATM    7  N1  UNL     1      27.857   0.978  53.956  1.00  0.00     0.090 N 
HETATM    8  C1  UNL     1      28.460   2.191  53.491  1.00  0.00     0.310 C 
HETATM    9  C2  UNL     1      28.704   0.226  54.839  1.00  0.00     0.310 C 
ENDBRANCH   6   7
ENDBRANCH   5   6
ENDBRANCH   1   4
BRANCH   1  10
HETATM   10  N3  UNL     1      22.569   0.809  53.312  1.00  0.00    -0.360 N 
HETATM   11  H10 UNL     1      22.549   1.466  54.152  1.00  0.00     0.162 HD
BRANCH  10  12
HETATM   12  C8  UNL     1      21.797   1.774  52.639  1.00  0.00     0.083 C 
HETATM   13  C9  UNL     1      22.349   2.889  52.123  1.00  0.00     0.049 C 
HETATM   14  C10 UNL     1      21.673   3.982  51.398  1.00  0.00     0.021 A 
HETATM   15  C11 UNL     1      20.406   3.900  50.862  1.00  0.00     0.066 A 
HETATM   16  C14 UNL     1      22.494   5.085  51.348  1.00  0.00     0.064 A 
HETATM   17  N4  UNL     1      19.968   5.030  50.239  1.00  0.00    -0.261 NA
HETATM   18  C21 UNL     1      19.372   2.837  50.791  1.00  0.00     0.212 C 
HETATM   19  C12 UNL     1      20.760   6.138  50.175  1.00  0.00     0.138 A 
HETATM   20  C13 UNL     1      22.037   6.209  50.718  1.00  0.00     0.056 A 
HETATM   21 BR1  UNL     1      23.130   7.738  50.631  1.00  0.00    -0.047 Br
HETATM   22  N6  UNL     1      19.438   1.861  51.828  1.00  0.00    -0.259 NA
HETATM   23  C22 UNL     1      20.373   1.421  52.573  1.00  0.00     0.184 C 
BRANCH  23  24
HETATM   24  O1  UNL     1      19.924   0.450  53.447  1.00  0.00    -0.343 OA
HETATM   25  H21 UNL     1      20.536  -0.026  54.080  1.00  0.00     0.219 HD
ENDBRANCH  23  24
BRANCH  16  26
HETATM   26  N5  UNL     1      23.795   5.050  51.934  1.00  0.00    -0.354 N 
HETATM   27  H13 UNL     1      24.139   5.332  52.880  1.00  0.00     0.166 HD
BRANCH  26  28
HETATM   28  C15 UNL     1      24.806   4.526  51.047  1.00  0.00     0.032 A 
HETATM   29  C16 UNL     1      25.345   3.258  51.256  1.00  0.00     0.029 A 
HETATM   30  C17 UNL     1      26.326   2.722  50.413  1.00  0.00     0.002 A 
HETATM   31  C18 UNL     1      26.776   3.466  49.341  1.00  0.00     0.000 A 
HETATM   32  C19 UNL     1      26.241   4.718  49.138  1.00  0.00     0.002 A 
HETATM   33  C20 UNL     1      25.291   5.226  49.961  1.00  0.00     0.029 A 
ENDBRANCH  26  28
ENDBRANCH  16  26
ENDBRANCH  10  12
ENDBRANCH   1  10
TORSDOF 8
ENDMDL
MODEL 4
REMARK VINA RESULT:      -7.2      2.246      3.985
REMARK  8 active torsions:
REMARK  status: ('A' for Active; 'I' for Inactive)
REMARK    1  A    between atoms: N1_2  and  C3_4 
REMARK    2  A    between atoms: C3_4  and  C4_5 
REMARK    3  A    between atoms: C5_6  and  C6_7 
REMARK    4  A    between atoms: C6_7  and  N3_10 
REMARK    5  A    between atoms: N3_10  and  C8_11 
REMARK    6  A    between atoms: C14_19  and  N5_20 
REMARK    7  A    between atoms: N5_20  and  C15_21 
REMARK    8  A    between atoms: C22_29  and  O1_30 
ROOT
HETATM    1  C6  UNL     1      25.509   5.084  50.036  1.00  0.00     0.270 C 
HETATM    2  C7  UNL     1      24.383   4.637  49.190  1.00  0.00     0.097 C 
HETATM    3  N2  UNL     1      23.500   4.279  48.516  1.00  0.00    -0.194 NA
ENDROOT
BRANCH   1   4
HETATM    4  C5  UNL     1      26.629   5.534  49.221  1.00  0.00    -0.064 C 
HETATM    5  C4  UNL     1      27.575   5.904  48.554  1.00  0.00    -0.073 C 
BRANCH   5   6
HETATM    6  C3  UNL     1      28.730   6.365  47.742  1.00  0.00     0.364 C 
BRANCH   6   7
HETATM    7  N1  UNL     1      28.702   7.815  47.573  1.00  0.00     0.090 N 
HETATM    8  C1  UNL     1      28.847   8.533  48.803  1.00  0.00     0.310 C 
HETATM    9  C2  UNL     1      27.567   8.236  46.801  1.00  0.00     0.310 C 
ENDBRANCH   6   7
ENDBRANCH   5   6
ENDBRANCH   1   4
BRANCH   1  10
HETATM   10  N3  UNL     1      25.939   4.038  50.890  1.00  0.00    -0.360 N 
HETATM   11  H10 UNL     1      26.937   3.983  51.263  1.00  0.00     0.162 HD
BRANCH  10  12
HETATM   12  C8  UNL     1      25.691   2.852  51.606  1.00  0.00     0.083 C 
HETATM   13  C9  UNL     1      24.441   2.388  51.794  1.00  0.00     0.049 C 
HETATM   14  C10 UNL     1      24.026   1.170  52.517  1.00  0.00     0.021 A 
HETATM   15  C11 UNL     1      24.872   0.139  52.866  1.00  0.00     0.066 A 
HETATM   16  C14 UNL     1      22.679   1.227  52.792  1.00  0.00     0.064 A 
HETATM   17  N4  UNL     1      24.284  -0.888  53.539  1.00  0.00    -0.261 NA
HETATM   18  C21 UNL     1      26.319  -0.131  52.671  1.00  0.00     0.212 C 
HETATM   19  C12 UNL     1      22.952  -0.858  53.826  1.00  0.00     0.138 A 
HETATM   20  C13 UNL     1      22.107   0.186  53.468  1.00  0.00     0.056 A 
HETATM   21 BR1  UNL     1      20.268   0.229  53.864  1.00  0.00    -0.047 Br
HETATM   22  N6  UNL     1      27.133   1.028  52.512  1.00  0.00    -0.259 NA
HETATM   23  C22 UNL     1      26.918   2.213  52.098  1.00  0.00     0.184 C 
BRANCH  23  24
HETATM   24  O1  UNL     1      28.060   2.990  52.136  1.00  0.00    -0.343 OA
HETATM   25  H21 UNL     1      28.043   3.976  51.969  1.00  0.00     0.219 HD
ENDBRANCH  23  24
BRANCH  16  26
HETATM   26  N5  UNL     1      21.898   2.347  52.372  1.00  0.00    -0.354 N 
HETATM   27  H13 UNL     1      21.621   3.225  52.867  1.00  0.00     0.166 HD
BRANCH  26  28
HETATM   28  C15 UNL     1      21.415   2.228  51.017  1.00  0.00     0.032 A 
HETATM   29  C16 UNL     1      20.626   3.230  50.455  1.00  0.00     0.029 A 
HETATM   30  C17 UNL     1      20.143   3.145  49.145  1.00  0.00     0.002 A 
HETATM   31  C18 UNL     1      20.454   2.039  48.380  1.00  0.00     0.000 A 
HETATM   32  C19 UNL     1      21.234   1.052  48.938  1.00  0.00     0.002 A 
HETATM   33  C20 UNL     1      21.697   1.146  50.209  1.00  0.00     0.029 A 
ENDBRANCH  26  28
ENDBRANCH  16  26
ENDBRANCH  10  12
ENDBRANCH   1  10
TORSDOF 8
ENDMDL
MODEL 5
REMARK VINA RESULT:      -7.1      2.853      5.528
REMARK  8 active torsions:
REMARK  status: ('A' for Active; 'I' for Inactive)
REMARK    1  A    between atoms: N1_2  and  C3_4 
REMARK    2  A    between atoms: C3_4  and  C4_5 
REMARK    3  A    between atoms: C5_6  and  C6_7 
REMARK    4  A    between atoms: C6_7  and  N3_10 
REMARK    5  A    between atoms: N3_10  and  C8_11 
REMARK    6  A    between atoms: C14_19  and  N5_20 
REMARK    7  A    between atoms: N5_20  and  C15_21 
REMARK    8  A    between atoms: C22_29  and  O1_30 
ROOT
HETATM    1  C6  UNL     1      18.624   0.988  51.892  1.00  0.00     0.270 C 
HETATM    2  C7  UNL     1      17.599   0.297  51.082  1.00  0.00     0.097 C 
HETATM    3  N2  UNL     1      16.796  -0.250  50.436  1.00  0.00    -0.194 NA
ENDROOT
BRANCH   1   4
HETATM    4  C5  UNL     1      19.387   1.927  51.079  1.00  0.00    -0.064 C 
HETATM    5  C4  UNL     1      20.018   2.700  50.387  1.00  0.00    -0.073 C 
BRANCH   5   6
HETATM    6  C3  UNL     1      20.798   3.641  49.544  1.00  0.00     0.364 C 
BRANCH   6   7
HETATM    7  N1  UNL     1      20.988   3.103  48.200  1.00  0.00     0.090 N 
HETATM    8  C1  UNL     1      19.772   3.011  47.449  1.00  0.00     0.310 C 
HETATM    9  C2  UNL     1      21.735   1.877  48.222  1.00  0.00     0.310 C 
ENDBRANCH   6   7
ENDBRANCH   5   6
ENDBRANCH   1   4
BRANCH   1  10
HETATM   10  N3  UNL     1      19.510   0.053  52.483  1.00  0.00    -0.360 N 
HETATM   11  H10 UNL     1      19.235  -0.963  52.651  1.00  0.00     0.162 HD
BRANCH  10  12
HETATM   12  C8  UNL     1      20.755  -0.273  53.053  1.00  0.00     0.083 C 
HETATM   13  C9  UNL     1      21.885   0.368  52.698  1.00  0.00     0.049 C 
HETATM   14  C10 UNL     1      23.253   0.138  53.203  1.00  0.00     0.021 A 
HETATM   15  C11 UNL     1      23.558  -0.569  54.345  1.00  0.00     0.066 A 
HETATM   16  C14 UNL     1      24.166   0.728  52.359  1.00  0.00     0.064 A 
HETATM   17  N4  UNL     1      24.888  -0.669  54.625  1.00  0.00    -0.261 NA
HETATM   18  C21 UNL     1      22.757  -1.266  55.383  1.00  0.00     0.212 C 
HETATM   19  C12 UNL     1      25.814  -0.095  53.807  1.00  0.00     0.138 A 
HETATM   20  C13 UNL     1      25.495   0.617  52.657  1.00  0.00     0.056 A 
HETATM   21 BR1  UNL     1      26.774   1.410  51.526  1.00  0.00    -0.047 Br
HETATM   22  N6  UNL     1      21.477  -1.721  54.953  1.00  0.00    -0.259 NA
HETATM   23  C22 UNL     1      20.665  -1.355  54.042  1.00  0.00     0.184 C 
BRANCH  23  24
HETATM   24  O1  UNL     1      19.525  -2.134  54.021  1.00  0.00    -0.343 OA
HETATM   25  H21 UNL     1      19.419  -2.944  54.600  1.00  0.00     0.219 HD
ENDBRANCH  23  24
BRANCH  16  26
HETATM   26  N5  UNL     1      23.730   1.446  51.204  1.00  0.00    -0.354 N 
HETATM   27  H13 UNL     1      23.388   1.119  50.271  1.00  0.00     0.166 HD
BRANCH  26  28
HETATM   28  C15 UNL     1      23.774   2.879  51.372  1.00  0.00     0.032 A 
HETATM   29  C16 UNL     1      24.290   3.695  50.368  1.00  0.00     0.029 A 
HETATM   30  C17 UNL     1      24.346   5.087  50.501  1.00  0.00     0.002 A 
HETATM   31  C18 UNL     1      23.878   5.675  51.658  1.00  0.00     0.000 A 
HETATM   32  C19 UNL     1      23.369   4.865  52.648  1.00  0.00     0.002 A 
HETATM   33  C20 UNL     1      23.320   3.518  52.507  1.00  0.00     0.029 A 
ENDBRANCH  26  28
ENDBRANCH  16  26
ENDBRANCH  10  12
ENDBRANCH   1  10
TORSDOF 8
ENDMDL
MODEL 6
REMARK VINA RESULT:      -7.0      2.524      6.041
REMARK  8 active torsions:
REMARK  status: ('A' for Active; 'I' for Inactive)
REMARK    1  A    between atoms: N1_2  and  C3_4 
REMARK    2  A    between atoms: C3_4  and  C4_5 
REMARK    3  A    between atoms: C5_6  and  C6_7 
REMARK    4  A    between atoms: C6_7  and  N3_10 
REMARK    5  A    between atoms: N3_10  and  C8_11 
REMARK    6  A    between atoms: C14_19  and  N5_20 
REMARK    7  A    between atoms: N5_20  and  C15_21 
REMARK    8  A    between atoms: C22_29  and  O1_30 
ROOT
HETATM    1  C6  UNL     1      21.714   0.328  53.998  1.00  0.00     0.270 C 
HETATM    2  C7  UNL     1      21.657  -1.057  54.509  1.00  0.00     0.097 C 
HETATM    3  N2  UNL     1      21.614  -2.154  54.905  1.00  0.00    -0.194 NA
ENDROOT
BRANCH   1   4
HETATM    4  C5  UNL     1      20.942   0.464  52.769  1.00  0.00    -0.064 C 
HETATM    5  C4  UNL     1      20.284   0.573  51.754  1.00  0.00    -0.073 C 
BRANCH   5   6
HETATM    6  C3  UNL     1      19.481   0.697  50.511  1.00  0.00     0.364 C 
BRANCH   6   7
HETATM    7  N1  UNL     1      18.115   1.113  50.811  1.00  0.00     0.090 N 
HETATM    8  C1  UNL     1      18.034   2.419  51.393  1.00  0.00     0.310 C 
HETATM    9  C2  UNL     1      17.410   0.114  51.563  1.00  0.00     0.310 C 
ENDBRANCH   6   7
ENDBRANCH   5   6
ENDBRANCH   1   4
BRANCH   1  10
HETATM   10  N3  UNL     1      23.054   0.719  53.755  1.00  0.00    -0.360 N 
HETATM   11  H10 UNL     1      23.801   0.692  54.515  1.00  0.00     0.162 HD
BRANCH  10  12
HETATM   12  C8  UNL     1      24.059   1.201  52.896  1.00  0.00     0.083 C 
HETATM   13  C9  UNL     1      23.922   2.361  52.226  1.00  0.00     0.049 C 
HETATM   14  C10 UNL     1      24.881   2.990  51.297  1.00  0.00     0.021 A 
HETATM   15  C11 UNL     1      26.210   2.643  51.189  1.00  0.00     0.066 A 
HETATM   16  C14 UNL     1      24.245   3.961  50.558  1.00  0.00     0.064 A 
HETATM   17  N4  UNL     1      26.917   3.345  50.261  1.00  0.00    -0.261 NA
HETATM   18  C21 UNL     1      27.087   1.659  51.872  1.00  0.00     0.212 C 
HETATM   19  C12 UNL     1      26.313   4.312  49.513  1.00  0.00     0.138 A 
HETATM   20  C13 UNL     1      24.971   4.655  49.631  1.00  0.00     0.056 A 
HETATM   21 BR1  UNL     1      24.136   5.989  48.600  1.00  0.00    -0.047 Br
HETATM   22  N6  UNL     1      26.414   0.527  52.418  1.00  0.00    -0.259 NA
HETATM   23  C22 UNL     1      25.228   0.313  52.829  1.00  0.00     0.184 C 
BRANCH  23  24
HETATM   24  O1  UNL     1      25.060  -0.982  53.277  1.00  0.00    -0.343 OA
HETATM   25  H21 UNL     1      25.705  -1.714  53.053  1.00  0.00     0.219 HD
ENDBRANCH  23  24
BRANCH  16  26
HETATM   26  N5  UNL     1      22.859   4.240  50.764  1.00  0.00    -0.354 N 
HETATM   27  H13 UNL     1      22.359   4.750  51.527  1.00  0.00     0.166 HD
BRANCH  26  28
HETATM   28  C15 UNL     1      22.011   3.716  49.719  1.00  0.00     0.032 A 
HETATM   29  C16 UNL     1      20.780   4.307  49.443  1.00  0.00     0.029 A 
HETATM   30  C17 UNL     1      19.936   3.823  48.436  1.00  0.00     0.002 A 
HETATM   31  C18 UNL     1      20.329   2.730  47.692  1.00  0.00     0.000 A 
HETATM   32  C19 UNL     1      21.547   2.149  47.968  1.00  0.00     0.002 A 
HETATM   33  C20 UNL     1      22.356   2.627  48.945  1.00  0.00     0.029 A 
ENDBRANCH  26  28
ENDBRANCH  16  26
ENDBRANCH  10  12
ENDBRANCH   1  10
TORSDOF 8
ENDMDL
MODEL 7
REMARK VINA RESULT:      -7.0      2.277      5.458
REMARK  8 active torsions:
REMARK  status: ('A' for Active; 'I' for Inactive)
REMARK    1  A    between atoms: N1_2  and  C3_4 
REMARK    2  A    between atoms: C3_4  and  C4_5 
REMARK    3  A    between atoms: C5_6  and  C6_7 
REMARK    4  A    between atoms: C6_7  and  N3_10 
REMARK    5  A    between atoms: N3_10  and  C8_11 
REMARK    6  A    between atoms: C14_19  and  N5_20 
REMARK    7  A    between atoms: N5_20  and  C15_21 
REMARK    8  A    between atoms: C22_29  and  O1_30 
ROOT
HETATM    1  C6  UNL     1      20.037  -0.328  53.777  1.00  0.00     0.270 C 
HETATM    2  C7  UNL     1      19.153  -1.512  53.758  1.00  0.00     0.097 C 
HETATM    3  N2  UNL     1      18.459  -2.450  53.734  1.00  0.00    -0.194 NA
ENDROOT
BRANCH   1   4
HETATM    4  C5  UNL     1      20.000   0.373  52.500  1.00  0.00    -0.064 C 
HETATM    5  C4  UNL     1      19.970   0.973  51.444  1.00  0.00    -0.073 C 
BRANCH   5   6
HETATM    6  C3  UNL     1      19.924   1.705  50.153  1.00  0.00     0.364 C 
BRANCH   6   7
HETATM    7  N1  UNL     1      19.092   2.900  50.260  1.00  0.00     0.090 N 
HETATM    8  C1  UNL     1      19.113   3.714  49.082  1.00  0.00     0.310 C 
HETATM    9  C2  UNL     1      19.373   3.634  51.462  1.00  0.00     0.310 C 
ENDBRANCH   6   7
ENDBRANCH   5   6
ENDBRANCH   1   4
BRANCH   1  10
HETATM   10  N3  UNL     1      21.372  -0.703  54.067  1.00  0.00    -0.360 N 
HETATM   11  H10 UNL     1      21.611  -1.615  54.566  1.00  0.00     0.162 HD
BRANCH  10  12
HETATM   12  C8  UNL     1      22.756  -0.452  54.033  1.00  0.00     0.083 C 
HETATM   13  C9  UNL     1      23.291   0.453  53.191  1.00  0.00     0.049 C 
HETATM   14  C10 UNL     1      24.712   0.822  53.041  1.00  0.00     0.021 A 
HETATM   15  C11 UNL     1      25.702   0.516  53.950  1.00  0.00     0.066 A 
HETATM   16  C14 UNL     1      24.894   1.505  51.861  1.00  0.00     0.064 A 
HETATM   17  N4  UNL     1      26.950   0.944  53.612  1.00  0.00    -0.261 NA
HETATM   18  C21 UNL     1      25.732  -0.186  55.258  1.00  0.00     0.212 C 
HETATM   19  C12 UNL     1      27.159   1.622  52.448  1.00  0.00     0.138 A 
HETATM   20  C13 UNL     1      26.154   1.926  51.539  1.00  0.00     0.056 A 
HETATM   21 BR1  UNL     1      26.442   2.862  49.932  1.00  0.00    -0.047 Br
HETATM   22  N6  UNL     1      24.688  -1.136  55.458  1.00  0.00    -0.259 NA
HETATM   23  C22 UNL     1      23.509  -1.269  54.993  1.00  0.00     0.184 C 
BRANCH  23  24
HETATM   24  O1  UNL     1      22.873  -2.382  55.508  1.00  0.00    -0.343 OA
HETATM   25  H21 UNL     1      22.848  -3.257  55.022  1.00  0.00     0.219 HD
ENDBRANCH  23  24
BRANCH  16  26
HETATM   26  N5  UNL     1      23.788   1.772  50.998  1.00  0.00    -0.354 N 
HETATM   27  H13 UNL     1      23.265   1.162  50.329  1.00  0.00     0.166 HD
BRANCH  26  28
HETATM   28  C15 UNL     1      23.319   3.135  51.078  1.00  0.00     0.032 A 
HETATM   29  C16 UNL     1      23.245   3.788  52.306  1.00  0.00     0.029 A 
HETATM   30  C17 UNL     1      22.795   5.109  52.416  1.00  0.00     0.002 A 
HETATM   31  C18 UNL     1      22.413   5.790  51.279  1.00  0.00     0.000 A 
HETATM   32  C19 UNL     1      22.487   5.141  50.067  1.00  0.00     0.002 A 
HETATM   33  C20 UNL     1      22.925   3.862  49.973  1.00  0.00     0.029 A 
ENDBRANCH  26  28
ENDBRANCH  16  26
ENDBRANCH  10  12
ENDBRANCH   1  10
TORSDOF 8
ENDMDL
MODEL 8
REMARK VINA RESULT:      -7.0      3.594      7.313
REMARK  8 active torsions:
REMARK  status: ('A' for Active; 'I' for Inactive)
REMARK    1  A    between atoms: N1_2  and  C3_4 
REMARK    2  A    between atoms: C3_4  and  C4_5 
REMARK    3  A    between atoms: C5_6  and  C6_7 
REMARK    4  A    between atoms: C6_7  and  N3_10 
REMARK    5  A    between atoms: N3_10  and  C8_11 
REMARK    6  A    between atoms: C14_19  and  N5_20 
REMARK    7  A    between atoms: N5_20  and  C15_21 
REMARK    8  A    between atoms: C22_29  and  O1_30 
ROOT
HETATM    1  C6  UNL     1      18.614   0.339  51.606  1.00  0.00     0.270 C 
HETATM    2  C7  UNL     1      18.381   1.794  51.500  1.00  0.00     0.097 C 
HETATM    3  N2  UNL     1      18.191   2.944  51.423  1.00  0.00    -0.194 NA
ENDROOT
BRANCH   1   4
HETATM    4  C5  UNL     1      17.360  -0.378  51.798  1.00  0.00    -0.064 C 
HETATM    5  C4  UNL     1      16.314  -0.971  51.974  1.00  0.00    -0.073 C 
BRANCH   5   6
HETATM    6  C3  UNL     1      15.040  -1.703  52.192  1.00  0.00     0.364 C 
BRANCH   6   7
HETATM    7  N1  UNL     1      15.118  -3.057  51.652  1.00  0.00     0.090 N 
HETATM    8  C1  UNL     1      13.960  -3.435  50.901  1.00  0.00     0.310 C 
HETATM    9  C2  UNL     1      15.473  -4.010  52.665  1.00  0.00     0.310 C 
ENDBRANCH   6   7
ENDBRANCH   5   6
ENDBRANCH   1   4
BRANCH   1  10
HETATM   10  N3  UNL     1      19.489   0.049  52.682  1.00  0.00    -0.360 N 
HETATM   11  H10 UNL     1      19.157   0.020  53.694  1.00  0.00     0.162 HD
BRANCH  10  12
HETATM   12  C8  UNL     1      20.769  -0.265  53.177  1.00  0.00     0.083 C 
HETATM   13  C9  UNL     1      21.868   0.395  52.767  1.00  0.00     0.049 C 
HETATM   14  C10 UNL     1      23.265   0.179  53.192  1.00  0.00     0.021 A 
HETATM   15  C11 UNL     1      23.644  -0.536  54.307  1.00  0.00     0.066 A 
HETATM   16  C14 UNL     1      24.121   0.791  52.305  1.00  0.00     0.064 A 
HETATM   17  N4  UNL     1      24.988  -0.620  54.511  1.00  0.00    -0.261 NA
HETATM   18  C21 UNL     1      22.912  -1.255  55.380  1.00  0.00     0.212 C 
HETATM   19  C12 UNL     1      25.860  -0.025  53.648  1.00  0.00     0.138 A 
HETATM   20  C13 UNL     1      25.467   0.696  52.527  1.00  0.00     0.056 A 
HETATM   21 BR1  UNL     1      26.669   1.519  51.335  1.00  0.00    -0.047 Br
HETATM   22  N6  UNL     1      21.616  -1.724  55.016  1.00  0.00    -0.259 NA
HETATM   23  C22 UNL     1      20.749  -1.359  54.157  1.00  0.00     0.184 C 
BRANCH  23  24
HETATM   24  O1  UNL     1      19.620  -2.154  54.191  1.00  0.00    -0.343 OA
HETATM   25  H21 UNL     1      19.327  -2.701  53.407  1.00  0.00     0.219 HD
ENDBRANCH  23  24
BRANCH  16  26
HETATM   26  N5  UNL     1      23.612   1.515  51.184  1.00  0.00    -0.354 N 
HETATM   27  H13 UNL     1      23.237   1.195  50.262  1.00  0.00     0.166 HD
BRANCH  26  28
HETATM   28  C15 UNL     1      23.622   2.946  51.377  1.00  0.00     0.032 A 
HETATM   29  C16 UNL     1      23.720   3.808  50.287  1.00  0.00     0.029 A 
HETATM   30  C17 UNL     1      23.732   5.198  50.441  1.00  0.00     0.002 A 
HETATM   31  C18 UNL     1      23.644   5.739  51.708  1.00  0.00     0.000 A 
HETATM   32  C19 UNL     1      23.547   4.884  52.783  1.00  0.00     0.002 A 
HETATM   33  C20 UNL     1      23.536   3.538  52.620  1.00  0.00     0.029 A 
ENDBRANCH  26  28
ENDBRANCH  16  26
ENDBRANCH  10  12
ENDBRANCH   1  10
TORSDOF 8
ENDMDL
MODEL 9
REMARK VINA RESULT:      -6.8      5.146     10.453
REMARK  8 active torsions:
REMARK  status: ('A' for Active; 'I' for Inactive)
REMARK    1  A    between atoms: N1_2  and  C3_4 
REMARK    2  A    between atoms: C3_4  and  C4_5 
REMARK    3  A    between atoms: C5_6  and  C6_7 
REMARK    4  A    between atoms: C6_7  and  N3_10 
REMARK    5  A    between atoms: N3_10  and  C8_11 
REMARK    6  A    between atoms: C14_19  and  N5_20 
REMARK    7  A    between atoms: N5_20  and  C15_21 
REMARK    8  A    between atoms: C22_29  and  O1_30 
ROOT
HETATM    1  C6  UNL     1      26.196   3.436  49.396  1.00  0.00     0.270 C 
HETATM    2  C7  UNL     1      24.748   3.707  49.291  1.00  0.00     0.097 C 
HETATM    3  N2  UNL     1      23.603   3.924  49.218  1.00  0.00    -0.194 NA
ENDROOT
BRANCH   1   4
HETATM    4  C5  UNL     1      26.504   2.700  50.615  1.00  0.00    -0.064 C 
HETATM    5  C4  UNL     1      26.760   2.100  51.640  1.00  0.00    -0.073 C 
BRANCH   5   6
HETATM    6  C3  UNL     1      27.083   1.368  52.891  1.00  0.00     0.364 C 
BRANCH   6   7
HETATM    7  N1  UNL     1      28.526   1.312  53.105  1.00  0.00     0.090 N 
HETATM    8  C1  UNL     1      28.966   0.081  53.689  1.00  0.00     0.310 C 
HETATM    9  C2  UNL     1      29.003   2.472  53.804  1.00  0.00     0.310 C 
ENDBRANCH   6   7
ENDBRANCH   5   6
ENDBRANCH   1   4
BRANCH   1  10
HETATM   10  N3  UNL     1      26.935   4.646  49.380  1.00  0.00    -0.360 N 
HETATM   11  H10 UNL     1      27.365   5.061  50.262  1.00  0.00     0.162 HD
BRANCH  10  12
HETATM   12  C8  UNL     1      27.472   5.750  48.693  1.00  0.00     0.083 C 
HETATM   13  C9  UNL     1      28.791   5.855  48.443  1.00  0.00     0.049 C 
HETATM   14  C10 UNL     1      29.496   6.946  47.741  1.00  0.00     0.021 A 
HETATM   15  C11 UNL     1      28.883   7.899  46.957  1.00  0.00     0.066 A 
HETATM   16  C14 UNL     1      30.846   6.866  47.995  1.00  0.00     0.064 A 
HETATM   17  N4  UNL     1      29.720   8.822  46.408  1.00  0.00    -0.261 NA
HETATM   18  C21 UNL     1      27.480   8.165  46.549  1.00  0.00     0.212 C 
HETATM   19  C12 UNL     1      31.062   8.768  46.643  1.00  0.00     0.138 A 
HETATM   20  C13 UNL     1      31.670   7.801  47.434  1.00  0.00     0.056 A 
HETATM   21 BR1  UNL     1      33.523   7.727  47.760  1.00  0.00    -0.047 Br
HETATM   22  N6  UNL     1      26.487   7.675  47.447  1.00  0.00    -0.259 NA
HETATM   23  C22 UNL     1      26.451   6.731  48.301  1.00  0.00     0.184 C 
BRANCH  23  24
HETATM   24  O1  UNL     1      25.229   6.656  48.939  1.00  0.00    -0.343 OA
HETATM   25  H21 UNL     1      24.371   6.527  48.439  1.00  0.00     0.219 HD
ENDBRANCH  23  24
BRANCH  16  26
HETATM   26  N5  UNL     1      31.371   5.825  48.820  1.00  0.00    -0.354 N 
HETATM   27  H13 UNL     1      31.333   5.672  49.853  1.00  0.00     0.166 HD
BRANCH  26  28
HETATM   28  C15 UNL     1      32.076   4.809  48.075  1.00  0.00     0.032 A 
HETATM   29  C16 UNL     1      33.407   4.514  48.364  1.00  0.00     0.029 A 
HETATM   30  C17 UNL     1      34.117   3.534  47.661  1.00  0.00     0.002 A 
HETATM   31  C18 UNL     1      33.487   2.836  46.651  1.00  0.00     0.000 A 
HETATM   32  C19 UNL     1      32.173   3.132  46.368  1.00  0.00     0.002 A 
HETATM   33  C20 UNL     1      31.495   4.082  47.057  1.00  0.00     0.029 A 
ENDBRANCH  26  28
ENDBRANCH  16  26
ENDBRANCH  10  12
ENDBRANCH   1  10
TORSDOF 8
ENDMDL
