MODEL 1
REMARK VINA RESULT:      -6.3      0.000      0.000
REMARK  8 active torsions:
REMARK  status: ('A' for Active; 'I' for Inactive)
REMARK    1  A    between atoms: C2_2  and  C3_3 
REMARK    2  A    between atoms: C2_2  and  N1_11 
REMARK    3  A    between atoms: C3_3  and  C4_4 
REMARK    4  A    between atoms: C4_4  and  C5_5 
REMARK    5  A    between atoms: C5_5  and  C6_6 
REMARK    6  A    between atoms: C6_6  and  C7_8 
REMARK    7  A    between atoms: C7_8  and  C8_9 
REMARK    8  A    between atoms: N1_11  and  C9_12 
ROOT
HETATM    1  N1  UNL     1      26.246   2.665  50.015  1.00  0.00    -0.363 N 
HETATM    2  H12 UNL     1      26.739   2.365  49.146  1.00  0.00     0.162 HD
ENDROOT
BRANCH   1   3
HETATM    3  C2  UNL     1      25.105   3.511  50.108  1.00  0.00     0.083 C 
HETATM    4  C1  UNL     1      25.400   4.801  49.325  1.00  0.00     0.032 C 
BRANCH   3   5
HETATM    5  C3  UNL     1      23.802   2.987  49.606  1.00  0.00     0.052 C 
BRANCH   5   6
HETATM    6  C4  UNL     1      23.195   2.115  50.623  1.00  0.00    -0.022 C 
BRANCH   6   7
HETATM    7  C5  UNL     1      22.717   1.375  51.576  1.00  0.00     0.038 C 
BRANCH   7   8
HETATM    8  C6  UNL     1      23.056   0.833  52.870  1.00  0.00     0.114 C 
HETATM    9  F1  UNL     1      23.784   1.835  53.402  1.00  0.00    -0.206 F 
BRANCH   8  10
HETATM   10  C7  UNL     1      22.777  -0.277  53.417  1.00  0.00     0.046 C 
BRANCH  10  11
HETATM   11  C8  UNL     1      22.502  -1.035  54.663  1.00  0.00     0.252 C 
HETATM   12  F2  UNL     1      21.198  -1.381  54.839  1.00  0.00    -0.251 F 
ENDBRANCH  10  11
ENDBRANCH   8  10
ENDBRANCH   7   8
ENDBRANCH   6   7
ENDBRANCH   5   6
ENDBRANCH   3   5
ENDBRANCH   1   3
BRANCH   1  13
HETATM   13  C9  UNL     1      26.785   2.164  51.197  1.00  0.00     0.180 C 
HETATM   14  N2  UNL     1      27.592   2.715  52.027  1.00  0.00    -0.217 NA
HETATM   15  C10 UNL     1      28.057   2.063  53.213  1.00  0.00     0.231 C 
HETATM   16  N3  UNL     1      27.774   0.926  53.534  1.00  0.00    -0.253 NA
HETATM   17  C11 UNL     1      27.838  -0.156  54.374  1.00  0.00     0.420 C 
HETATM   18  N4  UNL     1      26.478  -0.850  54.396  1.00  0.00     0.113 N 
HETATM   19  C12 UNL     1      26.343  -1.329  52.945  1.00  0.00     0.365 C 
HETATM   20  H16 UNL     1      25.743  -0.123  54.474  1.00  0.00     0.319 HD
HETATM   21  C13 UNL     1      26.486  -0.050  52.283  1.00  0.00    -0.068 C 
HETATM   22  C14 UNL     1      26.611   0.936  51.790  1.00  0.00    -0.027 C 
ENDBRANCH   1  13
TORSDOF 8
ENDMDL
MODEL 2
REMARK VINA RESULT:      -6.2      2.484      4.985
REMARK  8 active torsions:
REMARK  status: ('A' for Active; 'I' for Inactive)
REMARK    1  A    between atoms: C2_2  and  C3_3 
REMARK    2  A    between atoms: C2_2  and  N1_11 
REMARK    3  A    between atoms: C3_3  and  C4_4 
REMARK    4  A    between atoms: C4_4  and  C5_5 
REMARK    5  A    between atoms: C5_5  and  C6_6 
REMARK    6  A    between atoms: C6_6  and  C7_8 
REMARK    7  A    between atoms: C7_8  and  C8_9 
REMARK    8  A    between atoms: N1_11  and  C9_12 
ROOT
HETATM    1  N1  UNL     1      26.662  -0.691  53.808  1.00  0.00    -0.363 N 
HETATM    2  H12 UNL     1      27.047  -1.526  53.314  1.00  0.00     0.162 HD
ENDROOT
BRANCH   1   3
HETATM    3  C2  UNL     1      27.324   0.547  54.046  1.00  0.00     0.083 C 
HETATM    4  C1  UNL     1      28.655   0.252  54.756  1.00  0.00     0.032 C 
BRANCH   3   5
HETATM    5  C3  UNL     1      27.640   1.409  52.871  1.00  0.00     0.052 C 
BRANCH   5   6
HETATM    6  C4  UNL     1      26.412   2.061  52.390  1.00  0.00    -0.022 C 
BRANCH   6   7
HETATM    7  C5  UNL     1      25.297   2.628  52.045  1.00  0.00     0.038 C 
BRANCH   7   8
HETATM    8  C6  UNL     1      24.103   3.215  52.603  1.00  0.00     0.114 C 
HETATM    9  F1  UNL     1      24.509   3.523  53.852  1.00  0.00    -0.206 F 
BRANCH   8  10
HETATM   10  C7  UNL     1      22.952   3.414  52.107  1.00  0.00     0.046 C 
BRANCH  10  11
HETATM   11  C8  UNL     1      21.656   4.134  52.179  1.00  0.00     0.252 C 
HETATM   12  F2  UNL     1      20.622   3.391  52.661  1.00  0.00    -0.251 F 
ENDBRANCH  10  11
ENDBRANCH   8  10
ENDBRANCH   7   8
ENDBRANCH   6   7
ENDBRANCH   5   6
ENDBRANCH   3   5
ENDBRANCH   1   3
BRANCH   1  13
HETATM   13  C9  UNL     1      25.358  -0.834  54.272  1.00  0.00     0.180 C 
HETATM   14  N2  UNL     1      24.932  -1.281  55.396  1.00  0.00    -0.217 NA
HETATM   15  C10 UNL     1      23.543  -1.362  55.728  1.00  0.00     0.231 C 
HETATM   16  N3  UNL     1      22.634  -1.060  54.980  1.00  0.00    -0.253 NA
HETATM   17  C11 UNL     1      21.306  -0.907  54.675  1.00  0.00     0.420 C 
HETATM   18  N4  UNL     1      21.135   0.335  53.803  1.00  0.00     0.113 N 
HETATM   19  C12 UNL     1      21.916  -0.054  52.541  1.00  0.00     0.365 C 
HETATM   20  H16 UNL     1      21.708   1.098  54.209  1.00  0.00     0.319 HD
HETATM   21  C13 UNL     1      23.196  -0.329  53.157  1.00  0.00    -0.068 C 
HETATM   22  C14 UNL     1      24.167  -0.549  53.646  1.00  0.00    -0.027 C 
ENDBRANCH   1  13
TORSDOF 8
ENDMDL
MODEL 3
REMARK VINA RESULT:      -6.1      2.621      5.524
REMARK  8 active torsions:
REMARK  status: ('A' for Active; 'I' for Inactive)
REMARK    1  A    between atoms: C2_2  and  C3_3 
REMARK    2  A    between atoms: C2_2  and  N1_11 
REMARK    3  A    between atoms: C3_3  and  C4_4 
REMARK    4  A    between atoms: C4_4  and  C5_5 
REMARK    5  A    between atoms: C5_5  and  C6_6 
REMARK    6  A    between atoms: C6_6  and  C7_8 
REMARK    7  A    between atoms: C7_8  and  C8_9 
REMARK    8  A    between atoms: N1_11  and  C9_12 
ROOT
HETATM    1  N1  UNL     1      21.980   0.375  51.938  1.00  0.00    -0.363 N 
HETATM    2  H12 UNL     1      21.355  -0.262  51.395  1.00  0.00     0.162 HD
ENDROOT
BRANCH   1   3
HETATM    3  C2  UNL     1      22.172   0.394  53.348  1.00  0.00     0.083 C 
HETATM    4  C1  UNL     1      20.802   0.592  54.017  1.00  0.00     0.032 C 
BRANCH   3   5
HETATM    5  C3  UNL     1      22.799  -0.800  53.986  1.00  0.00     0.052 C 
BRANCH   5   6
HETATM    6  C4  UNL     1      24.250  -0.592  54.106  1.00  0.00    -0.022 C 
BRANCH   6   7
HETATM    7  C5  UNL     1      25.536  -0.419  54.128  1.00  0.00     0.038 C 
BRANCH   7   8
HETATM    8  C6  UNL     1      26.726  -0.655  53.346  1.00  0.00     0.114 C 
HETATM    9  F1  UNL     1      26.239  -1.390  52.325  1.00  0.00    -0.206 F 
BRANCH   8  10
HETATM   10  C7  UNL     1      27.931  -0.299  53.519  1.00  0.00     0.046 C 
BRANCH  10  11
HETATM   11  C8  UNL     1      29.298  -0.656  53.973  1.00  0.00     0.252 C 
HETATM   12  F2  UNL     1      30.187  -0.886  52.968  1.00  0.00    -0.251 F 
ENDBRANCH  10  11
ENDBRANCH   8  10
ENDBRANCH   7   8
ENDBRANCH   6   7
ENDBRANCH   5   6
ENDBRANCH   3   5
ENDBRANCH   1   3
BRANCH   1  13
HETATM   13  C9  UNL     1      22.691   1.292  51.169  1.00  0.00     0.180 C 
HETATM   14  N2  UNL     1      22.311   1.981  50.157  1.00  0.00    -0.217 NA
HETATM   15  C10 UNL     1      23.169   2.895  49.467  1.00  0.00     0.231 C 
HETATM   16  N3  UNL     1      24.339   3.082  49.737  1.00  0.00    -0.253 NA
HETATM   17  C11 UNL     1      25.552   3.692  49.546  1.00  0.00     0.420 C 
HETATM   18  N4  UNL     1      26.212   3.927  50.902  1.00  0.00     0.113 N 
HETATM   19  C12 UNL     1      26.426   2.493  51.403  1.00  0.00     0.365 C 
HETATM   20  H16 UNL     1      25.495   4.299  51.552  1.00  0.00     0.319 HD
HETATM   21  C13 UNL     1      25.054   2.037  51.341  1.00  0.00    -0.068 C 
HETATM   22  C14 UNL     1      24.000   1.698  51.275  1.00  0.00    -0.027 C 
ENDBRANCH   1  13
TORSDOF 8
ENDMDL
MODEL 4
REMARK VINA RESULT:      -6.1      1.934      2.398
REMARK  8 active torsions:
REMARK  status: ('A' for Active; 'I' for Inactive)
REMARK    1  A    between atoms: C2_2  and  C3_3 
REMARK    2  A    between atoms: C2_2  and  N1_11 
REMARK    3  A    between atoms: C3_3  and  C4_4 
REMARK    4  A    between atoms: C4_4  and  C5_5 
REMARK    5  A    between atoms: C5_5  and  C6_6 
REMARK    6  A    between atoms: C6_6  and  C7_8 
REMARK    7  A    between atoms: C7_8  and  C8_9 
REMARK    8  A    between atoms: N1_11  and  C9_12 
ROOT
HETATM    1  N1  UNL     1      25.886   2.888  52.155  1.00  0.00    -0.363 N 
HETATM    2  H12 UNL     1      26.188   3.639  51.496  1.00  0.00     0.162 HD
ENDROOT
BRANCH   1   3
HETATM    3  C2  UNL     1      24.586   2.695  52.701  1.00  0.00     0.083 C 
HETATM    4  C1  UNL     1      23.854   4.047  52.686  1.00  0.00     0.032 C 
BRANCH   3   5
HETATM    5  C3  UNL     1      23.686   1.707  52.037  1.00  0.00     0.052 C 
BRANCH   5   6
HETATM    6  C4  UNL     1      23.371   0.618  52.974  1.00  0.00    -0.022 C 
BRANCH   6   7
HETATM    7  C5  UNL     1      23.119  -0.398  53.741  1.00  0.00     0.038 C 
BRANCH   7   8
HETATM    8  C6  UNL     1      22.048  -1.026  54.476  1.00  0.00     0.114 C 
HETATM    9  F1  UNL     1      22.603  -1.170  55.697  1.00  0.00    -0.206 F 
BRANCH   8  10
HETATM   10  C7  UNL     1      20.880  -1.377  54.127  1.00  0.00     0.046 C 
BRANCH  10  11
HETATM   11  C8  UNL     1      19.552  -0.983  53.595  1.00  0.00     0.252 C 
HETATM   12  F2  UNL     1      19.536   0.210  52.938  1.00  0.00    -0.251 F 
ENDBRANCH  10  11
ENDBRANCH   8  10
ENDBRANCH   7   8
ENDBRANCH   6   7
ENDBRANCH   5   6
ENDBRANCH   3   5
ENDBRANCH   1   3
BRANCH   1  13
HETATM   13  C9  UNL     1      26.886   1.990  52.518  1.00  0.00     0.180 C 
HETATM   14  N2  UNL     1      28.047   2.214  53.015  1.00  0.00    -0.217 NA
HETATM   15  C10 UNL     1      28.971   1.172  53.342  1.00  0.00     0.231 C 
HETATM   16  N3  UNL     1      28.774  -0.012  53.151  1.00  0.00    -0.253 NA
HETATM   17  C11 UNL     1      29.139  -1.332  53.203  1.00  0.00     0.420 C 
HETATM   18  N4  UNL     1      27.908  -2.178  53.519  1.00  0.00     0.113 N 
HETATM   19  C12 UNL     1      27.029  -1.931  52.285  1.00  0.00     0.365 C 
HETATM   20  H16 UNL     1      27.381  -1.712  54.280  1.00  0.00     0.319 HD
HETATM   21  C13 UNL     1      26.950  -0.488  52.364  1.00  0.00    -0.068 C 
HETATM   22  C14 UNL     1      26.910   0.618  52.430  1.00  0.00    -0.027 C 
ENDBRANCH   1  13
TORSDOF 8
ENDMDL
MODEL 5
REMARK VINA RESULT:      -6.1      3.314      5.412
REMARK  8 active torsions:
REMARK  status: ('A' for Active; 'I' for Inactive)
REMARK    1  A    between atoms: C2_2  and  C3_3 
REMARK    2  A    between atoms: C2_2  and  N1_11 
REMARK    3  A    between atoms: C3_3  and  C4_4 
REMARK    4  A    between atoms: C4_4  and  C5_5 
REMARK    5  A    between atoms: C5_5  and  C6_6 
REMARK    6  A    between atoms: C6_6  and  C7_8 
REMARK    7  A    between atoms: C7_8  and  C8_9 
REMARK    8  A    between atoms: N1_11  and  C9_12 
ROOT
HETATM    1  N1  UNL     1      26.302   2.710  52.535  1.00  0.00    -0.363 N 
HETATM    2  H12 UNL     1      26.745   3.655  52.535  1.00  0.00     0.162 HD
ENDROOT
BRANCH   1   3
HETATM    3  C2  UNL     1      24.936   2.401  52.281  1.00  0.00     0.083 C 
HETATM    4  C1  UNL     1      24.065   3.384  53.079  1.00  0.00     0.032 C 
BRANCH   3   5
HETATM    5  C3  UNL     1      24.459   2.445  50.868  1.00  0.00     0.052 C 
BRANCH   5   6
HETATM    6  C4  UNL     1      25.089   3.575  50.168  1.00  0.00    -0.022 C 
BRANCH   6   7
HETATM    7  C5  UNL     1      25.602   4.549  49.481  1.00  0.00     0.038 C 
BRANCH   7   8
HETATM    8  C6  UNL     1      26.834   4.975  48.862  1.00  0.00     0.114 C 
HETATM    9  F1  UNL     1      27.495   3.805  48.738  1.00  0.00    -0.206 F 
BRANCH   8  10
HETATM   10  C7  UNL     1      27.246   6.121  48.508  1.00  0.00     0.046 C 
BRANCH  10  11
HETATM   11  C8  UNL     1      28.330   6.942  47.913  1.00  0.00     0.252 C 
HETATM   12  F2  UNL     1      29.371   6.226  47.407  1.00  0.00    -0.251 F 
ENDBRANCH  10  11
ENDBRANCH   8  10
ENDBRANCH   7   8
ENDBRANCH   6   7
ENDBRANCH   5   6
ENDBRANCH   3   5
ENDBRANCH   1   3
BRANCH   1  13
HETATM   13  C9  UNL     1      27.169   1.657  52.814  1.00  0.00     0.180 C 
HETATM   14  N2  UNL     1      28.314   1.671  53.392  1.00  0.00    -0.217 NA
HETATM   15  C10 UNL     1      29.092   0.490  53.612  1.00  0.00     0.231 C 
HETATM   16  N3  UNL     1      28.775  -0.625  53.245  1.00  0.00    -0.253 NA
HETATM   17  C11 UNL     1      28.984  -1.975  53.127  1.00  0.00     0.420 C 
HETATM   18  N4  UNL     1      27.647  -2.700  53.261  1.00  0.00     0.113 N 
HETATM   19  C12 UNL     1      26.882  -2.185  52.035  1.00  0.00     0.365 C 
HETATM   20  H16 UNL     1      27.129  -2.281  54.056  1.00  0.00     0.319 HD
HETATM   21  C13 UNL     1      26.962  -0.766  52.313  1.00  0.00    -0.068 C 
HETATM   22  C14 UNL     1      27.043   0.318  52.534  1.00  0.00    -0.027 C 
ENDBRANCH   1  13
TORSDOF 8
ENDMDL
MODEL 6
REMARK VINA RESULT:      -6.0      2.379      3.256
REMARK  8 active torsions:
REMARK  status: ('A' for Active; 'I' for Inactive)
REMARK    1  A    between atoms: C2_2  and  C3_3 
REMARK    2  A    between atoms: C2_2  and  N1_11 
REMARK    3  A    between atoms: C3_3  and  C4_4 
REMARK    4  A    between atoms: C4_4  and  C5_5 
REMARK    5  A    between atoms: C5_5  and  C6_6 
REMARK    6  A    between atoms: C6_6  and  C7_8 
REMARK    7  A    between atoms: C7_8  and  C8_9 
REMARK    8  A    between atoms: N1_11  and  C9_12 
ROOT
HETATM    1  N1  UNL     1      25.755   2.532  53.634  1.00  0.00    -0.363 N 
HETATM    2  H12 UNL     1      25.677   3.113  54.498  1.00  0.00     0.162 HD
ENDROOT
BRANCH   1   3
HETATM    3  C2  UNL     1      24.964   2.631  52.455  1.00  0.00     0.083 C 
HETATM    4  C1  UNL     1      23.770   3.552  52.755  1.00  0.00     0.032 C 
BRANCH   3   5
HETATM    5  C3  UNL     1      25.614   3.152  51.218  1.00  0.00     0.052 C 
BRANCH   5   6
HETATM    6  C4  UNL     1      24.670   3.074  50.093  1.00  0.00    -0.022 C 
BRANCH   6   7
HETATM    7  C5  UNL     1      23.804   3.079  49.126  1.00  0.00     0.038 C 
BRANCH   7   8
HETATM    8  C6  UNL     1      22.586   2.439  48.690  1.00  0.00     0.114 C 
HETATM    9  F1  UNL     1      22.513   2.839  47.404  1.00  0.00    -0.206 F 
BRANCH   8  10
HETATM   10  C7  UNL     1      21.762   1.693  49.301  1.00  0.00     0.046 C 
BRANCH  10  11
HETATM   11  C8  UNL     1      21.523   0.685  50.363  1.00  0.00     0.252 C 
HETATM   12  F2  UNL     1      22.451   0.679  51.360  1.00  0.00    -0.251 F 
ENDBRANCH  10  11
ENDBRANCH   8  10
ENDBRANCH   7   8
ENDBRANCH   6   7
ENDBRANCH   5   6
ENDBRANCH   3   5
ENDBRANCH   1   3
BRANCH   1  13
HETATM   13  C9  UNL     1      26.754   1.563  53.670  1.00  0.00     0.180 C 
HETATM   14  N2  UNL     1      27.911   1.600  54.223  1.00  0.00    -0.217 NA
HETATM   15  C10 UNL     1      28.835   0.508  54.175  1.00  0.00     0.231 C 
HETATM   16  N3  UNL     1      28.642  -0.535  53.581  1.00  0.00    -0.253 NA
HETATM   17  C11 UNL     1      29.009  -1.792  53.173  1.00  0.00     0.420 C 
HETATM   18  N4  UNL     1      27.776  -2.693  53.166  1.00  0.00     0.113 N 
HETATM   19  C12 UNL     1      26.907  -2.032  52.088  1.00  0.00     0.365 C 
HETATM   20  H16 UNL     1      27.243  -2.521  54.038  1.00  0.00     0.319 HD
HETATM   21  C13 UNL     1      26.824  -0.706  52.664  1.00  0.00    -0.068 C 
HETATM   22  C14 UNL     1      26.781   0.308  53.110  1.00  0.00    -0.027 C 
ENDBRANCH   1  13
TORSDOF 8
ENDMDL
MODEL 7
REMARK VINA RESULT:      -5.9      2.573      4.708
REMARK  8 active torsions:
REMARK  status: ('A' for Active; 'I' for Inactive)
REMARK    1  A    between atoms: C2_2  and  C3_3 
REMARK    2  A    between atoms: C2_2  and  N1_11 
REMARK    3  A    between atoms: C3_3  and  C4_4 
REMARK    4  A    between atoms: C4_4  and  C5_5 
REMARK    5  A    between atoms: C5_5  and  C6_6 
REMARK    6  A    between atoms: C6_6  and  C7_8 
REMARK    7  A    between atoms: C7_8  and  C8_9 
REMARK    8  A    between atoms: N1_11  and  C9_12 
ROOT
HETATM    1  N1  UNL     1      24.325   0.186  53.594  1.00  0.00    -0.363 N 
HETATM    2  H12 UNL     1      24.295   1.189  53.884  1.00  0.00     0.162 HD
ENDROOT
BRANCH   1   3
HETATM    3  C2  UNL     1      23.216  -0.668  53.335  1.00  0.00     0.083 C 
HETATM    4  C1  UNL     1      22.622  -1.105  54.684  1.00  0.00     0.032 C 
BRANCH   3   5
HETATM    5  C3  UNL     1      22.090  -0.126  52.520  1.00  0.00     0.052 C 
BRANCH   5   6
HETATM    6  C4  UNL     1      22.499   1.139  51.891  1.00  0.00    -0.022 C 
BRANCH   6   7
HETATM    7  C5  UNL     1      22.937   2.243  51.368  1.00  0.00     0.038 C 
BRANCH   7   8
HETATM    8  C6  UNL     1      23.822   2.738  50.341  1.00  0.00     0.114 C 
HETATM    9  F1  UNL     1      23.221   2.286  49.222  1.00  0.00    -0.206 F 
BRANCH   8  10
HETATM   10  C7  UNL     1      24.892   3.417  50.408  1.00  0.00     0.046 C 
BRANCH  10  11
HETATM   11  C8  UNL     1      26.362   3.475  50.214  1.00  0.00     0.252 C 
HETATM   12  F2  UNL     1      26.813   2.828  49.104  1.00  0.00    -0.251 F 
ENDBRANCH  10  11
ENDBRANCH   8  10
ENDBRANCH   7   8
ENDBRANCH   6   7
ENDBRANCH   5   6
ENDBRANCH   3   5
ENDBRANCH   1   3
BRANCH   1  13
HETATM   13  C9  UNL     1      25.604  -0.344  53.451  1.00  0.00     0.180 C 
HETATM   14  N2  UNL     1      25.980  -1.437  52.897  1.00  0.00    -0.217 NA
HETATM   15  C10 UNL     1      27.350  -1.846  52.826  1.00  0.00     0.231 C 
HETATM   16  N3  UNL     1      28.281  -1.232  53.309  1.00  0.00    -0.253 NA
HETATM   17  C11 UNL     1      29.612  -1.052  53.582  1.00  0.00     0.420 C 
HETATM   18  N4  UNL     1      29.940   0.437  53.504  1.00  0.00     0.113 N 
HETATM   19  C12 UNL     1      29.095   1.009  54.650  1.00  0.00     0.365 C 
HETATM   20  H16 UNL     1      29.484   0.826  52.658  1.00  0.00     0.319 HD
HETATM   21  C13 UNL     1      27.798   0.534  54.216  1.00  0.00    -0.068 C 
HETATM   22  C14 UNL     1      26.813   0.153  53.877  1.00  0.00    -0.027 C 
ENDBRANCH   1  13
TORSDOF 8
ENDMDL
MODEL 8
REMARK VINA RESULT:      -5.9      2.980      5.766
REMARK  8 active torsions:
REMARK  status: ('A' for Active; 'I' for Inactive)
REMARK    1  A    between atoms: C2_2  and  C3_3 
REMARK    2  A    between atoms: C2_2  and  N1_11 
REMARK    3  A    between atoms: C3_3  and  C4_4 
REMARK    4  A    between atoms: C4_4  and  C5_5 
REMARK    5  A    between atoms: C5_5  and  C6_6 
REMARK    6  A    between atoms: C6_6  and  C7_8 
REMARK    7  A    between atoms: C7_8  and  C8_9 
REMARK    8  A    between atoms: N1_11  and  C9_12 
ROOT
HETATM    1  N1  UNL     1      25.111   2.567  50.632  1.00  0.00    -0.363 N 
HETATM    2  H12 UNL     1      25.573   1.817  50.072  1.00  0.00     0.162 HD
ENDROOT
BRANCH   1   3
HETATM    3  C2  UNL     1      24.225   2.395  51.733  1.00  0.00     0.083 C 
HETATM    4  C1  UNL     1      23.050   1.519  51.270  1.00  0.00     0.032 C 
BRANCH   3   5
HETATM    5  C3  UNL     1      24.766   1.775  52.977  1.00  0.00     0.052 C 
BRANCH   5   6
HETATM    6  C4  UNL     1      25.560   0.586  52.633  1.00  0.00    -0.022 C 
BRANCH   6   7
HETATM    7  C5  UNL     1      26.292  -0.420  52.263  1.00  0.00     0.038 C 
BRANCH   7   8
HETATM    8  C6  UNL     1      27.396  -1.240  52.699  1.00  0.00     0.114 C 
HETATM    9  F1  UNL     1      26.944  -2.479  52.416  1.00  0.00    -0.206 F 
BRANCH   8  10
HETATM   10  C7  UNL     1      28.514  -0.940  53.218  1.00  0.00     0.046 C 
BRANCH  10  11
HETATM   11  C8  UNL     1      29.256  -0.244  54.299  1.00  0.00     0.252 C 
HETATM   12  F2  UNL     1      28.527  -0.005  55.424  1.00  0.00    -0.251 F 
ENDBRANCH  10  11
ENDBRANCH   8  10
ENDBRANCH   7   8
ENDBRANCH   6   7
ENDBRANCH   5   6
ENDBRANCH   3   5
ENDBRANCH   1   3
BRANCH   1  13
HETATM   13  C9  UNL     1      25.417   3.866  50.237  1.00  0.00     0.180 C 
HETATM   14  N2  UNL     1      24.757   4.951  50.409  1.00  0.00    -0.217 NA
HETATM   15  C10 UNL     1      25.211   6.225  49.941  1.00  0.00     0.231 C 
HETATM   16  N3  UNL     1      26.233   6.404  49.308  1.00  0.00    -0.253 NA
HETATM   17  C11 UNL     1      27.137   7.199  48.651  1.00  0.00     0.420 C 
HETATM   18  N4  UNL     1      28.545   6.669  48.907  1.00  0.00     0.113 N 
HETATM   19  C12 UNL     1      28.490   5.288  48.241  1.00  0.00     0.365 C 
HETATM   20  H16 UNL     1      28.629   6.442  49.915  1.00  0.00     0.319 HD
HETATM   21  C13 UNL     1      27.371   4.740  48.977  1.00  0.00    -0.068 C 
HETATM   22  C14 UNL     1      26.504   4.339  49.541  1.00  0.00    -0.027 C 
ENDBRANCH   1  13
TORSDOF 8
ENDMDL
MODEL 9
REMARK VINA RESULT:      -5.8      2.778      6.090
REMARK  8 active torsions:
REMARK  status: ('A' for Active; 'I' for Inactive)
REMARK    1  A    between atoms: C2_2  and  C3_3 
REMARK    2  A    between atoms: C2_2  and  N1_11 
REMARK    3  A    between atoms: C3_3  and  C4_4 
REMARK    4  A    between atoms: C4_4  and  C5_5 
REMARK    5  A    between atoms: C5_5  and  C6_6 
REMARK    6  A    between atoms: C6_6  and  C7_8 
REMARK    7  A    between atoms: C7_8  and  C8_9 
REMARK    8  A    between atoms: N1_11  and  C9_12 
ROOT
HETATM    1  N1  UNL     1      23.726   0.038  53.179  1.00  0.00    -0.363 N 
HETATM    2  H12 UNL     1      22.896  -0.576  53.330  1.00  0.00     0.162 HD
ENDROOT
BRANCH   1   3
HETATM    3  C2  UNL     1      25.079  -0.245  53.519  1.00  0.00     0.083 C 
HETATM    4  C1  UNL     1      25.105  -0.827  54.941  1.00  0.00     0.032 C 
BRANCH   3   5
HETATM    5  C3  UNL     1      25.837  -1.190  52.648  1.00  0.00     0.052 C 
BRANCH   5   6
HETATM    6  C4  UNL     1      27.274  -1.091  52.944  1.00  0.00    -0.022 C 
BRANCH   6   7
HETATM    7  C5  UNL     1      28.527  -1.046  53.278  1.00  0.00     0.038 C 
BRANCH   7   8
HETATM    8  C6  UNL     1      29.564  -0.121  53.669  1.00  0.00     0.114 C 
HETATM    9  F1  UNL     1      30.612  -0.950  53.857  1.00  0.00    -0.206 F 
BRANCH   8  10
HETATM   10  C7  UNL     1      29.556   1.139  53.817  1.00  0.00     0.046 C 
BRANCH  10  11
HETATM   11  C8  UNL     1      28.788   2.408  53.778  1.00  0.00     0.252 C 
HETATM   12  F2  UNL     1      27.513   2.284  53.317  1.00  0.00    -0.251 F 
ENDBRANCH  10  11
ENDBRANCH   8  10
ENDBRANCH   7   8
ENDBRANCH   6   7
ENDBRANCH   5   6
ENDBRANCH   3   5
ENDBRANCH   1   3
BRANCH   1  13
HETATM   13  C9  UNL     1      23.447   1.261  52.574  1.00  0.00     0.180 C 
HETATM   14  N2  UNL     1      22.355   1.933  52.553  1.00  0.00    -0.217 NA
HETATM   15  C10 UNL     1      22.226   3.191  51.884  1.00  0.00     0.231 C 
HETATM   16  N3  UNL     1      23.108   3.727  51.242  1.00  0.00    -0.253 NA
HETATM   17  C11 UNL     1      23.610   4.745  50.472  1.00  0.00     0.420 C 
HETATM   18  N4  UNL     1      25.077   4.964  50.831  1.00  0.00     0.113 N 
HETATM   19  C12 UNL     1      25.710   3.633  50.406  1.00  0.00     0.365 C 
HETATM   20  H16 UNL     1      25.165   4.948  51.864  1.00  0.00     0.319 HD
HETATM   21  C13 UNL     1      24.899   2.744  51.210  1.00  0.00    -0.068 C 
HETATM   22  C14 UNL     1      24.260   2.075  51.822  1.00  0.00    -0.027 C 
ENDBRANCH   1  13
TORSDOF 8
ENDMDL
