MODEL 1
REMARK VINA RESULT:      -6.7      0.000      0.000
REMARK  8 active torsions:
REMARK  status: ('A' for Active; 'I' for Inactive)
REMARK    1  A    between atoms: C7_7  and  N1_8 
REMARK    2  A    between atoms: N1_8  and  C8_9 
REMARK    3  A    between atoms: C8_9  and  C9_10 
REMARK    4  A    between atoms: C12_15  and  C13_16 
REMARK    5  A    between atoms: C13_16  and  O1_17 
REMARK    6  A    between atoms: O1_17  and  C14_18 
REMARK    7  A    between atoms: C14_18  and  C15_19 
REMARK    8  A    between atoms: C15_19  and  O2_20 
ROOT
HETATM    1  C1  UNL     1      21.285   0.781  50.594  1.00  0.00     0.018 C 
HETATM    2  C2  UNL     1      21.748   0.330  51.606  1.00  0.00    -0.078 C 
HETATM    3  C3  UNL     1      22.304  -0.190  52.835  1.00  0.00     0.019 A 
HETATM    4  C4  UNL     1      21.382  -0.663  53.772  1.00  0.00     0.021 A 
HETATM    5  C5  UNL     1      21.868  -1.167  54.957  1.00  0.00     0.004 A 
HETATM    6  C6  UNL     1      23.227  -1.195  55.190  1.00  0.00     0.029 A 
HETATM    7  C7  UNL     1      24.152  -0.735  54.282  1.00  0.00     0.029 A 
HETATM    8  C17 UNL     1      23.658  -0.230  53.094  1.00  0.00     0.049 A 
ENDROOT
BRANCH   7   9
HETATM    9  N1  UNL     1      25.553  -0.767  54.531  1.00  0.00    -0.384 N 
HETATM   10  H5  UNL     1      25.863  -0.678  55.537  1.00  0.00     0.160 HD
BRANCH   9  11
HETATM   11  C8  UNL     1      26.495  -0.917  53.438  1.00  0.00     0.181 C 
BRANCH  11  12
HETATM   12  C9  UNL     1      27.424   0.233  53.489  1.00  0.00     0.082 A 
HETATM   13  N2  UNL     1      28.442   0.413  54.265  1.00  0.00    -0.242 NA
HETATM   14  C10 UNL     1      29.043   1.676  53.953  1.00  0.00     0.234 A 
HETATM   15  N3  UNL     1      28.388   2.244  53.002  1.00  0.00    -0.240 NA
HETATM   16  C11 UNL     1      27.316   1.383  52.633  1.00  0.00     0.082 A 
HETATM   17  C12 UNL     1      26.457   1.691  51.675  1.00  0.00     0.033 C 
BRANCH  17  18
HETATM   18  C13 UNL     1      26.466   2.942  50.853  1.00  0.00     0.197 C 
BRANCH  18  19
HETATM   19  O1  UNL     1      25.148   3.328  50.684  1.00  0.00    -0.385 OA
BRANCH  19  20
HETATM   20  C14 UNL     1      24.366   3.166  51.821  1.00  0.00     0.194 C 
BRANCH  20  21
HETATM   21  C15 UNL     1      23.126   3.981  51.815  1.00  0.00     0.193 C 
BRANCH  21  22
HETATM   22  O2  UNL     1      22.976   4.610  50.594  1.00  0.00    -0.394 OA
HETATM   23  C16 UNL     1      22.854   5.978  50.636  1.00  0.00     0.201 C 
ENDBRANCH  21  22
ENDBRANCH  20  21
ENDBRANCH  19  20
ENDBRANCH  18  19
ENDBRANCH  17  18
ENDBRANCH  11  12
ENDBRANCH   9  11
ENDBRANCH   7   9
TORSDOF 8
ENDMDL
MODEL 2
REMARK VINA RESULT:      -6.4      2.914      6.791
REMARK  8 active torsions:
REMARK  status: ('A' for Active; 'I' for Inactive)
REMARK    1  A    between atoms: C7_7  and  N1_8 
REMARK    2  A    between atoms: N1_8  and  C8_9 
REMARK    3  A    between atoms: C8_9  and  C9_10 
REMARK    4  A    between atoms: C12_15  and  C13_16 
REMARK    5  A    between atoms: C13_16  and  O1_17 
REMARK    6  A    between atoms: O1_17  and  C14_18 
REMARK    7  A    between atoms: C14_18  and  C15_19 
REMARK    8  A    between atoms: C15_19  and  O2_20 
ROOT
HETATM    1  C1  UNL     1      28.771   5.259  48.344  1.00  0.00     0.018 C 
HETATM    2  C2  UNL     1      27.614   5.144  48.644  1.00  0.00    -0.078 C 
HETATM    3  C3  UNL     1      26.227   5.012  49.029  1.00  0.00     0.019 A 
HETATM    4  C4  UNL     1      25.452   6.170  48.932  1.00  0.00     0.021 A 
HETATM    5  C5  UNL     1      24.124   6.090  49.288  1.00  0.00     0.004 A 
HETATM    6  C6  UNL     1      23.598   4.893  49.724  1.00  0.00     0.029 A 
HETATM    7  C7  UNL     1      24.342   3.740  49.827  1.00  0.00     0.029 A 
HETATM    8  C17 UNL     1      25.674   3.827  49.468  1.00  0.00     0.049 A 
ENDROOT
BRANCH   7   9
HETATM    9  N1  UNL     1      23.790   2.508  50.279  1.00  0.00    -0.384 N 
HETATM   10  H5  UNL     1      24.203   1.622  49.877  1.00  0.00     0.160 HD
BRANCH   9  11
HETATM   11  C8  UNL     1      22.709   2.493  51.246  1.00  0.00     0.181 C 
BRANCH  11  12
HETATM   12  C9  UNL     1      22.853   1.262  52.056  1.00  0.00     0.082 A 
HETATM   13  N2  UNL     1      22.046   0.257  52.144  1.00  0.00    -0.242 NA
HETATM   14  C10 UNL     1      22.603  -0.703  53.051  1.00  0.00     0.234 A 
HETATM   15  N3  UNL     1      23.729  -0.272  53.500  1.00  0.00    -0.240 NA
HETATM   16  C11 UNL     1      23.978   0.999  52.911  1.00  0.00     0.082 A 
HETATM   17  C12 UNL     1      25.067   1.703  53.177  1.00  0.00     0.033 C 
BRANCH  17  18
HETATM   18  C13 UNL     1      26.173   1.299  54.101  1.00  0.00     0.197 C 
BRANCH  18  19
HETATM   19  O1  UNL     1      27.053   2.364  54.173  1.00  0.00    -0.385 OA
BRANCH  19  20
HETATM   20  C14 UNL     1      28.241   2.157  53.484  1.00  0.00     0.194 C 
BRANCH  20  21
HETATM   21  C15 UNL     1      29.294   1.491  54.292  1.00  0.00     0.193 C 
BRANCH  21  22
HETATM   22  O2  UNL     1      29.824   0.422  53.595  1.00  0.00    -0.394 OA
HETATM   23  C16 UNL     1      29.219  -0.792  53.811  1.00  0.00     0.201 C 
ENDBRANCH  21  22
ENDBRANCH  20  21
ENDBRANCH  19  20
ENDBRANCH  18  19
ENDBRANCH  17  18
ENDBRANCH  11  12
ENDBRANCH   9  11
ENDBRANCH   7   9
TORSDOF 8
ENDMDL
MODEL 3
REMARK VINA RESULT:      -6.2      3.877      7.999
REMARK  8 active torsions:
REMARK  status: ('A' for Active; 'I' for Inactive)
REMARK    1  A    between atoms: C7_7  and  N1_8 
REMARK    2  A    between atoms: N1_8  and  C8_9 
REMARK    3  A    between atoms: C8_9  and  C9_10 
REMARK    4  A    between atoms: C12_15  and  C13_16 
REMARK    5  A    between atoms: C13_16  and  O1_17 
REMARK    6  A    between atoms: O1_17  and  C14_18 
REMARK    7  A    between atoms: C14_18  and  C15_19 
REMARK    8  A    between atoms: C15_19  and  O2_20 
ROOT
HETATM    1  C1  UNL     1      31.284   5.224  47.700  1.00  0.00     0.018 C 
HETATM    2  C2  UNL     1      30.121   5.443  47.902  1.00  0.00    -0.078 C 
HETATM    3  C3  UNL     1      28.726   5.714  48.168  1.00  0.00     0.019 A 
HETATM    4  C4  UNL     1      28.288   7.008  47.875  1.00  0.00     0.021 A 
HETATM    5  C5  UNL     1      26.965   7.310  48.113  1.00  0.00     0.004 A 
HETATM    6  C6  UNL     1      26.119   6.350  48.625  1.00  0.00     0.029 A 
HETATM    7  C7  UNL     1      26.530   5.071  48.921  1.00  0.00     0.029 A 
HETATM    8  C17 UNL     1      27.858   4.773  48.680  1.00  0.00     0.049 A 
ENDROOT
BRANCH   7   9
HETATM    9  N1  UNL     1      25.649   4.085  49.450  1.00  0.00    -0.384 N 
HETATM   10  H5  UNL     1      25.652   3.138  48.981  1.00  0.00     0.160 HD
BRANCH   9  11
HETATM   11  C8  UNL     1      24.794   4.390  50.582  1.00  0.00     0.181 C 
BRANCH  11  12
HETATM   12  C9  UNL     1      24.019   3.169  50.896  1.00  0.00     0.082 A 
HETATM   13  N2  UNL     1      22.786   2.902  50.614  1.00  0.00    -0.242 NA
HETATM   14  C10 UNL     1      22.470   1.598  51.118  1.00  0.00     0.234 A 
HETATM   15  N3  UNL     1      23.503   1.094  51.696  1.00  0.00    -0.240 NA
HETATM   16  C11 UNL     1      24.561   2.041  51.603  1.00  0.00     0.082 A 
HETATM   17  C12 UNL     1      25.764   1.813  52.108  1.00  0.00     0.033 C 
BRANCH  17  18
HETATM   18  C13 UNL     1      26.195   0.574  52.829  1.00  0.00     0.197 C 
BRANCH  18  19
HETATM   19  O1  UNL     1      26.662   0.967  54.071  1.00  0.00    -0.385 OA
BRANCH  19  20
HETATM   20  C14 UNL     1      27.657   0.144  54.583  1.00  0.00     0.194 C 
BRANCH  20  21
HETATM   21  C15 UNL     1      29.016   0.737  54.520  1.00  0.00     0.193 C 
BRANCH  21  22
HETATM   22  O2  UNL     1      29.842  -0.047  53.738  1.00  0.00    -0.394 OA
HETATM   23  C16 UNL     1      29.399  -1.323  53.492  1.00  0.00     0.201 C 
ENDBRANCH  21  22
ENDBRANCH  20  21
ENDBRANCH  19  20
ENDBRANCH  18  19
ENDBRANCH  17  18
ENDBRANCH  11  12
ENDBRANCH   9  11
ENDBRANCH   7   9
TORSDOF 8
ENDMDL
MODEL 4
REMARK VINA RESULT:      -6.1      2.763      4.868
REMARK  8 active torsions:
REMARK  status: ('A' for Active; 'I' for Inactive)
REMARK    1  A    between atoms: C7_7  and  N1_8 
REMARK    2  A    between atoms: N1_8  and  C8_9 
REMARK    3  A    between atoms: C8_9  and  C9_10 
REMARK    4  A    between atoms: C12_15  and  C13_16 
REMARK    5  A    between atoms: C13_16  and  O1_17 
REMARK    6  A    between atoms: O1_17  and  C14_18 
REMARK    7  A    between atoms: C14_18  and  C15_19 
REMARK    8  A    between atoms: C15_19  and  O2_20 
ROOT
HETATM    1  C1  UNL     1      17.158  -1.201  53.047  1.00  0.00     0.018 C 
HETATM    2  C2  UNL     1      18.340  -0.989  53.046  1.00  0.00    -0.078 C 
HETATM    3  C3  UNL     1      19.760  -0.713  53.059  1.00  0.00     0.019 A 
HETATM    4  C4  UNL     1      20.483  -1.277  54.114  1.00  0.00     0.021 A 
HETATM    5  C5  UNL     1      21.838  -1.040  54.165  1.00  0.00     0.004 A 
HETATM    6  C6  UNL     1      22.441  -0.267  53.196  1.00  0.00     0.029 A 
HETATM    7  C7  UNL     1      21.749   0.298  52.150  1.00  0.00     0.029 A 
HETATM    8  C17 UNL     1      20.388   0.056  52.103  1.00  0.00     0.049 A 
ENDROOT
BRANCH   7   9
HETATM    9  N1  UNL     1      22.379   1.095  51.153  1.00  0.00    -0.384 N 
HETATM   10  H5  UNL     1      22.576   0.633  50.224  1.00  0.00     0.160 HD
BRANCH   9  11
HETATM   11  C8  UNL     1      22.728   2.477  51.424  1.00  0.00     0.181 C 
BRANCH  11  12
HETATM   12  C9  UNL     1      24.138   2.669  51.018  1.00  0.00     0.082 A 
HETATM   13  N2  UNL     1      24.601   3.238  49.955  1.00  0.00    -0.242 NA
HETATM   14  C10 UNL     1      26.032   3.189  49.990  1.00  0.00     0.234 A 
HETATM   15  N3  UNL     1      26.419   2.594  51.064  1.00  0.00    -0.240 NA
HETATM   16  C11 UNL     1      25.259   2.218  51.798  1.00  0.00     0.082 A 
HETATM   17  C12 UNL     1      25.328   1.584  52.957  1.00  0.00     0.033 C 
BRANCH  17  18
HETATM   18  C13 UNL     1      26.582   1.173  53.663  1.00  0.00     0.197 C 
BRANCH  18  19
HETATM   19  O1  UNL     1      27.250   2.332  54.016  1.00  0.00    -0.385 OA
BRANCH  19  20
HETATM   20  C14 UNL     1      28.608   2.308  53.724  1.00  0.00     0.194 C 
BRANCH  20  21
HETATM   21  C15 UNL     1      29.369   1.298  54.501  1.00  0.00     0.193 C 
BRANCH  21  22
HETATM   22  O2  UNL     1      29.967   0.392  53.645  1.00  0.00    -0.394 OA
HETATM   23  C16 UNL     1      29.463  -0.885  53.677  1.00  0.00     0.201 C 
ENDBRANCH  21  22
ENDBRANCH  20  21
ENDBRANCH  19  20
ENDBRANCH  18  19
ENDBRANCH  17  18
ENDBRANCH  11  12
ENDBRANCH   9  11
ENDBRANCH   7   9
TORSDOF 8
ENDMDL
MODEL 5
REMARK VINA RESULT:      -6.1      2.757      4.998
REMARK  8 active torsions:
REMARK  status: ('A' for Active; 'I' for Inactive)
REMARK    1  A    between atoms: C7_7  and  N1_8 
REMARK    2  A    between atoms: N1_8  and  C8_9 
REMARK    3  A    between atoms: C8_9  and  C9_10 
REMARK    4  A    between atoms: C12_15  and  C13_16 
REMARK    5  A    between atoms: C13_16  and  O1_17 
REMARK    6  A    between atoms: O1_17  and  C14_18 
REMARK    7  A    between atoms: C14_18  and  C15_19 
REMARK    8  A    between atoms: C15_19  and  O2_20 
ROOT
HETATM    1  C1  UNL     1      22.323  -0.871  54.104  1.00  0.00     0.018 C 
HETATM    2  C2  UNL     1      23.349  -0.459  53.635  1.00  0.00    -0.078 C 
HETATM    3  C3  UNL     1      24.591   0.045  53.094  1.00  0.00     0.019 A 
HETATM    4  C4  UNL     1      25.653  -0.862  53.052  1.00  0.00     0.021 A 
HETATM    5  C5  UNL     1      26.856  -0.425  52.545  1.00  0.00     0.004 A 
HETATM    6  C6  UNL     1      26.985   0.873  52.097  1.00  0.00     0.029 A 
HETATM    7  C7  UNL     1      25.954   1.783  52.130  1.00  0.00     0.029 A 
HETATM    8  C17 UNL     1      24.749   1.338  52.640  1.00  0.00     0.049 A 
ENDROOT
BRANCH   7   9
HETATM    9  N1  UNL     1      26.096   3.121  51.666  1.00  0.00    -0.384 N 
HETATM   10  H5  UNL     1      25.941   3.892  52.372  1.00  0.00     0.160 HD
BRANCH   9  11
HETATM   11  C8  UNL     1      26.439   3.391  50.282  1.00  0.00     0.181 C 
BRANCH  11  12
HETATM   12  C9  UNL     1      25.495   4.415  49.781  1.00  0.00     0.082 A 
HETATM   13  N2  UNL     1      25.635   5.700  49.762  1.00  0.00    -0.242 NA
HETATM   14  C10 UNL     1      24.462   6.283  49.184  1.00  0.00     0.234 A 
HETATM   15  N3  UNL     1      23.630   5.356  48.862  1.00  0.00    -0.240 NA
HETATM   16  C11 UNL     1      24.212   4.105  49.212  1.00  0.00     0.082 A 
HETATM   17  C12 UNL     1      23.596   2.953  49.004  1.00  0.00     0.033 C 
BRANCH  17  18
HETATM   18  C13 UNL     1      22.241   2.777  48.392  1.00  0.00     0.197 C 
BRANCH  18  19
HETATM   19  O1  UNL     1      21.910   1.439  48.513  1.00  0.00    -0.385 OA
BRANCH  19  20
HETATM   20  C14 UNL     1      20.834   1.202  49.360  1.00  0.00     0.194 C 
BRANCH  20  21
HETATM   21  C15 UNL     1      21.220   0.614  50.668  1.00  0.00     0.193 C 
BRANCH  21  22
HETATM   22  O2  UNL     1      21.350   1.611  51.616  1.00  0.00    -0.394 OA
HETATM   23  C16 UNL     1      20.259   1.813  52.426  1.00  0.00     0.201 C 
ENDBRANCH  21  22
ENDBRANCH  20  21
ENDBRANCH  19  20
ENDBRANCH  18  19
ENDBRANCH  17  18
ENDBRANCH  11  12
ENDBRANCH   9  11
ENDBRANCH   7   9
TORSDOF 8
ENDMDL
MODEL 6
REMARK VINA RESULT:      -6.1      4.375      6.465
REMARK  8 active torsions:
REMARK  status: ('A' for Active; 'I' for Inactive)
REMARK    1  A    between atoms: C7_7  and  N1_8 
REMARK    2  A    between atoms: N1_8  and  C8_9 
REMARK    3  A    between atoms: C8_9  and  C9_10 
REMARK    4  A    between atoms: C12_15  and  C13_16 
REMARK    5  A    between atoms: C13_16  and  O1_17 
REMARK    6  A    between atoms: O1_17  and  C14_18 
REMARK    7  A    between atoms: C14_18  and  C15_19 
REMARK    8  A    between atoms: C15_19  and  O2_20 
ROOT
HETATM    1  C1  UNL     1      29.795  -0.906  53.735  1.00  0.00     0.018 C 
HETATM    2  C2  UNL     1      28.754  -0.415  53.390  1.00  0.00    -0.078 C 
HETATM    3  C3  UNL     1      27.503   0.163  52.954  1.00  0.00     0.019 A 
HETATM    4  C4  UNL     1      26.354  -0.578  53.240  1.00  0.00     0.021 A 
HETATM    5  C5  UNL     1      25.140  -0.064  52.843  1.00  0.00     0.004 A 
HETATM    6  C6  UNL     1      25.084   1.146  52.183  1.00  0.00     0.029 A 
HETATM    7  C7  UNL     1      26.203   1.891  51.891  1.00  0.00     0.029 A 
HETATM    8  C17 UNL     1      27.419   1.370  52.293  1.00  0.00     0.049 A 
ENDROOT
BRANCH   7   9
HETATM    9  N1  UNL     1      26.137   3.139  51.210  1.00  0.00    -0.384 N 
HETATM   10  H5  UNL     1      25.846   3.981  51.779  1.00  0.00     0.160 HD
BRANCH   9  11
HETATM   11  C8  UNL     1      26.458   3.229  49.798  1.00  0.00     0.181 C 
BRANCH  11  12
HETATM   12  C9  UNL     1      26.267   4.637  49.385  1.00  0.00     0.082 A 
HETATM   13  N2  UNL     1      25.214   5.376  49.507  1.00  0.00    -0.242 NA
HETATM   14  C10 UNL     1      25.496   6.672  48.965  1.00  0.00     0.234 A 
HETATM   15  N3  UNL     1      26.704   6.704  48.522  1.00  0.00    -0.240 NA
HETATM   16  C11 UNL     1      27.287   5.426  48.751  1.00  0.00     0.082 A 
HETATM   17  C12 UNL     1      28.532   5.143  48.403  1.00  0.00     0.033 C 
BRANCH  17  18
HETATM   18  C13 UNL     1      29.496   6.077  47.741  1.00  0.00     0.197 C 
BRANCH  18  19
HETATM   19  O1  UNL     1      30.326   6.575  48.730  1.00  0.00    -0.385 OA
BRANCH  19  20
HETATM   20  C14 UNL     1      30.895   7.803  48.418  1.00  0.00     0.194 C 
BRANCH  20  21
HETATM   21  C15 UNL     1      30.453   8.910  49.303  1.00  0.00     0.193 C 
BRANCH  21  22
HETATM   22  O2  UNL     1      29.092   9.107  49.174  1.00  0.00    -0.394 OA
HETATM   23  C16 UNL     1      28.690   9.801  48.059  1.00  0.00     0.201 C 
ENDBRANCH  21  22
ENDBRANCH  20  21
ENDBRANCH  19  20
ENDBRANCH  18  19
ENDBRANCH  17  18
ENDBRANCH  11  12
ENDBRANCH   9  11
ENDBRANCH   7   9
TORSDOF 8
ENDMDL
MODEL 7
REMARK VINA RESULT:      -6.0      2.547      4.784
REMARK  8 active torsions:
REMARK  status: ('A' for Active; 'I' for Inactive)
REMARK    1  A    between atoms: C7_7  and  N1_8 
REMARK    2  A    between atoms: N1_8  and  C8_9 
REMARK    3  A    between atoms: C8_9  and  C9_10 
REMARK    4  A    between atoms: C12_15  and  C13_16 
REMARK    5  A    between atoms: C13_16  and  O1_17 
REMARK    6  A    between atoms: O1_17  and  C14_18 
REMARK    7  A    between atoms: C14_18  and  C15_19 
REMARK    8  A    between atoms: C15_19  and  O2_20 
ROOT
HETATM    1  C1  UNL     1      22.314  -0.332  53.841  1.00  0.00     0.018 C 
HETATM    2  C2  UNL     1      23.393   0.016  53.443  1.00  0.00    -0.078 C 
HETATM    3  C3  UNL     1      24.695   0.447  52.984  1.00  0.00     0.019 A 
HETATM    4  C4  UNL     1      25.771  -0.367  53.345  1.00  0.00     0.021 A 
HETATM    5  C5  UNL     1      27.029   0.006  52.929  1.00  0.00     0.004 A 
HETATM    6  C6  UNL     1      27.198   1.153  52.182  1.00  0.00     0.029 A 
HETATM    7  C7  UNL     1      26.153   1.969  51.817  1.00  0.00     0.029 A 
HETATM    8  C17 UNL     1      24.892   1.589  52.236  1.00  0.00     0.049 A 
ENDROOT
BRANCH   7   9
HETATM    9  N1  UNL     1      26.336   3.151  51.045  1.00  0.00    -0.384 N 
HETATM   10  H5  UNL     1      26.463   4.055  51.576  1.00  0.00     0.160 HD
BRANCH   9  11
HETATM   11  C8  UNL     1      26.344   3.093  49.595  1.00  0.00     0.181 C 
BRANCH  11  12
HETATM   12  C9  UNL     1      26.896   4.374  49.101  1.00  0.00     0.082 A 
HETATM   13  N2  UNL     1      28.107   4.645  48.744  1.00  0.00    -0.242 NA
HETATM   14  C10 UNL     1      28.172   6.018  48.336  1.00  0.00     0.234 A 
HETATM   15  N3  UNL     1      27.010   6.559  48.451  1.00  0.00    -0.240 NA
HETATM   16  C11 UNL     1      26.113   5.569  48.941  1.00  0.00     0.082 A 
HETATM   17  C12 UNL     1      24.833   5.821  49.165  1.00  0.00     0.033 C 
BRANCH  17  18
HETATM   18  C13 UNL     1      24.143   7.131  48.950  1.00  0.00     0.197 C 
BRANCH  18  19
HETATM   19  O1  UNL     1      23.259   7.304  50.001  1.00  0.00    -0.385 OA
BRANCH  19  20
HETATM   20  C14 UNL     1      22.159   6.456  49.953  1.00  0.00     0.194 C 
BRANCH  20  21
HETATM   21  C15 UNL     1      21.736   5.950  51.283  1.00  0.00     0.193 C 
BRANCH  21  22
HETATM   22  O2  UNL     1      22.354   4.744  51.551  1.00  0.00    -0.394 OA
HETATM   23  C16 UNL     1      23.362   4.781  52.484  1.00  0.00     0.201 C 
ENDBRANCH  21  22
ENDBRANCH  20  21
ENDBRANCH  19  20
ENDBRANCH  18  19
ENDBRANCH  17  18
ENDBRANCH  11  12
ENDBRANCH   9  11
ENDBRANCH   7   9
TORSDOF 8
ENDMDL
MODEL 8
REMARK VINA RESULT:      -6.0      2.186      5.156
REMARK  8 active torsions:
REMARK  status: ('A' for Active; 'I' for Inactive)
REMARK    1  A    between atoms: C7_7  and  N1_8 
REMARK    2  A    between atoms: N1_8  and  C8_9 
REMARK    3  A    between atoms: C8_9  and  C9_10 
REMARK    4  A    between atoms: C12_15  and  C13_16 
REMARK    5  A    between atoms: C13_16  and  O1_17 
REMARK    6  A    between atoms: O1_17  and  C14_18 
REMARK    7  A    between atoms: C14_18  and  C15_19 
REMARK    8  A    between atoms: C15_19  and  O2_20 
ROOT
HETATM    1  C1  UNL     1      26.433   3.052  49.970  1.00  0.00     0.018 C 
HETATM    2  C2  UNL     1      26.618   2.417  50.972  1.00  0.00    -0.078 C 
HETATM    3  C3  UNL     1      26.853   1.636  52.166  1.00  0.00     0.019 A 
HETATM    4  C4  UNL     1      28.020   1.936  52.873  1.00  0.00     0.021 A 
HETATM    5  C5  UNL     1      28.285   1.216  54.016  1.00  0.00     0.004 A 
HETATM    6  C6  UNL     1      27.410   0.233  54.431  1.00  0.00     0.029 A 
HETATM    7  C7  UNL     1      26.256  -0.079  53.750  1.00  0.00     0.029 A 
HETATM    8  C17 UNL     1      25.997   0.648  52.603  1.00  0.00     0.049 A 
ENDROOT
BRANCH   7   9
HETATM    9  N1  UNL     1      25.359  -1.095  54.185  1.00  0.00    -0.384 N 
HETATM   10  H5  UNL     1      25.398  -2.019  53.675  1.00  0.00     0.160 HD
BRANCH   9  11
HETATM   11  C8  UNL     1      24.441  -0.850  55.282  1.00  0.00     0.181 C 
BRANCH  11  12
HETATM   12  C9  UNL     1      23.069  -1.068  54.772  1.00  0.00     0.082 A 
HETATM   13  N2  UNL     1      22.218  -1.978  55.113  1.00  0.00    -0.242 NA
HETATM   14  C10 UNL     1      21.019  -1.796  54.350  1.00  0.00     0.234 A 
HETATM   15  N3  UNL     1      21.155  -0.789  53.561  1.00  0.00    -0.240 NA
HETATM   16  C11 UNL     1      22.456  -0.249  53.762  1.00  0.00     0.082 A 
HETATM   17  C12 UNL     1      22.898   0.803  53.091  1.00  0.00     0.033 C 
BRANCH  17  18
HETATM   18  C13 UNL     1      22.139   1.569  52.054  1.00  0.00     0.197 C 
BRANCH  18  19
HETATM   19  O1  UNL     1      22.329   2.913  52.320  1.00  0.00    -0.385 OA
BRANCH  19  20
HETATM   20  C14 UNL     1      21.158   3.661  52.295  1.00  0.00     0.194 C 
BRANCH  20  21
HETATM   21  C15 UNL     1      19.923   2.843  52.394  1.00  0.00     0.193 C 
BRANCH  21  22
HETATM   22  O2  UNL     1      18.825   3.591  52.014  1.00  0.00    -0.394 OA
HETATM   23  C16 UNL     1      17.777   2.886  51.476  1.00  0.00     0.201 C 
ENDBRANCH  21  22
ENDBRANCH  20  21
ENDBRANCH  19  20
ENDBRANCH  18  19
ENDBRANCH  17  18
ENDBRANCH  11  12
ENDBRANCH   9  11
ENDBRANCH   7   9
TORSDOF 8
ENDMDL
MODEL 9
REMARK VINA RESULT:      -5.9      3.047      6.312
REMARK  8 active torsions:
REMARK  status: ('A' for Active; 'I' for Inactive)
REMARK    1  A    between atoms: C7_7  and  N1_8 
REMARK    2  A    between atoms: N1_8  and  C8_9 
REMARK    3  A    between atoms: C8_9  and  C9_10 
REMARK    4  A    between atoms: C12_15  and  C13_16 
REMARK    5  A    between atoms: C13_16  and  O1_17 
REMARK    6  A    between atoms: O1_17  and  C14_18 
REMARK    7  A    between atoms: C14_18  and  C15_19 
REMARK    8  A    between atoms: C15_19  and  O2_20 
ROOT
HETATM    1  C1  UNL     1      27.087   4.328  49.230  1.00  0.00     0.018 C 
HETATM    2  C2  UNL     1      25.912   4.095  49.306  1.00  0.00    -0.078 C 
HETATM    3  C3  UNL     1      24.494   3.831  49.415  1.00  0.00     0.019 A 
HETATM    4  C4  UNL     1      23.661   4.631  48.629  1.00  0.00     0.021 A 
HETATM    5  C5  UNL     1      22.303   4.414  48.702  1.00  0.00     0.004 A 
HETATM    6  C6  UNL     1      21.804   3.433  49.531  1.00  0.00     0.029 A 
HETATM    7  C7  UNL     1      22.606   2.634  50.313  1.00  0.00     0.029 A 
HETATM    8  C17 UNL     1      23.968   2.857  50.236  1.00  0.00     0.049 A 
ENDROOT
BRANCH   7   9
HETATM    9  N1  UNL     1      22.082   1.622  51.168  1.00  0.00    -0.384 N 
HETATM   10  H5  UNL     1      21.920   0.670  50.739  1.00  0.00     0.160 HD
BRANCH   9  11
HETATM   11  C8  UNL     1      21.791   1.909  52.560  1.00  0.00     0.181 C 
BRANCH  11  12
HETATM   12  C9  UNL     1      21.799   0.622  53.290  1.00  0.00     0.082 A 
HETATM   13  N2  UNL     1      20.799  -0.033  53.780  1.00  0.00    -0.242 NA
HETATM   14  C10 UNL     1      21.289  -1.227  54.401  1.00  0.00     0.234 A 
HETATM   15  N3  UNL     1      22.569  -1.283  54.284  1.00  0.00    -0.240 NA
HETATM   16  C11 UNL     1      22.994  -0.124  53.576  1.00  0.00     0.082 A 
HETATM   17  C12 UNL     1      24.266   0.109  53.295  1.00  0.00     0.033 C 
BRANCH  17  18
HETATM   18  C13 UNL     1      25.423  -0.769  53.659  1.00  0.00     0.197 C 
BRANCH  18  19
HETATM   19  O1  UNL     1      26.354  -0.658  52.642  1.00  0.00    -0.385 OA
BRANCH  19  20
HETATM   20  C14 UNL     1      27.663  -0.877  53.053  1.00  0.00     0.194 C 
BRANCH  20  21
HETATM   21  C15 UNL     1      28.171   0.146  54.002  1.00  0.00     0.193 C 
BRANCH  21  22
HETATM   22  O2  UNL     1      28.910   1.097  53.324  1.00  0.00    -0.394 OA
HETATM   23  C16 UNL     1      28.596   2.406  53.597  1.00  0.00     0.201 C 
ENDBRANCH  21  22
ENDBRANCH  20  21
ENDBRANCH  19  20
ENDBRANCH  18  19
ENDBRANCH  17  18
ENDBRANCH  11  12
ENDBRANCH   9  11
ENDBRANCH   7   9
TORSDOF 8
ENDMDL
