MODEL 1
REMARK VINA RESULT:      -8.7      0.000      0.000
REMARK  6 active torsions:
REMARK  status: ('A' for Active; 'I' for Inactive)
REMARK    1  A    between atoms: N1_3  and  C3_4 
REMARK    2  A    between atoms: C3_4  and  C4_5 
REMARK    3  A    between atoms: C7_8  and  N2_9 
REMARK    4  A    between atoms: N2_9  and  C8_10 
REMARK    5  A    between atoms: C17_23  and  C18_24 
REMARK    6  A    between atoms: C18_24  and  O1_25 
ROOT
HETATM    1  C4  UNL     1      21.507   0.012  52.167  1.00  0.00    -0.029 A 
HETATM    2  C5  UNL     1      22.841  -0.108  52.491  1.00  0.00     0.027 A 
HETATM    3  C6  UNL     1      23.338  -0.606  53.673  1.00  0.00     0.039 A 
HETATM    4  C7  UNL     1      24.681  -0.710  53.959  1.00  0.00     0.142 A 
HETATM    5  N3  UNL     1      24.913  -1.223  55.165  1.00  0.00    -0.224 NA
HETATM    6  C14 UNL     1      23.989  -1.613  56.045  1.00  0.00     0.236 A 
HETATM    7  N4  UNL     1      22.683  -1.507  55.754  1.00  0.00    -0.241 NA
HETATM    8  C15 UNL     1      22.357  -0.998  54.554  1.00  0.00     0.072 A 
HETATM    9  C16 UNL     1      21.007  -0.906  54.294  1.00  0.00     0.042 A 
HETATM   10  C17 UNL     1      20.568  -0.397  53.090  1.00  0.00    -0.025 A 
ENDROOT
BRANCH   4  11
HETATM   11  N2  UNL     1      25.641  -0.292  53.013  1.00  0.00    -0.339 N 
HETATM   12  H8  UNL     1      25.380  -0.115  52.026  1.00  0.00     0.167 HD
BRANCH  11  13
HETATM   13  C8  UNL     1      27.014  -0.059  53.222  1.00  0.00     0.058 A 
HETATM   14  C9  UNL     1      27.964  -1.041  53.102  1.00  0.00     0.031 A 
HETATM   15  C10 UNL     1      29.308  -0.836  53.300  1.00  0.00     0.005 A 
HETATM   16  C11 UNL     1      29.790   0.409  53.643  1.00  0.00     0.044 A 
HETATM   17  C12 UNL     1      28.871   1.424  53.775  1.00  0.00     0.140 A 
HETATM   18  F1  UNL     1      29.279   2.670  54.110  1.00  0.00    -0.204 F 
HETATM   19  C13 UNL     1      27.538   1.164  53.565  1.00  0.00     0.099 A 
HETATM   20 CL1  UNL     1      26.421   2.525  53.754  1.00  0.00    -0.079 Cl
ENDBRANCH  11  13
ENDBRANCH   4  11
BRANCH   1  21
HETATM   21  C3  UNL     1      21.033   0.557  50.874  1.00  0.00     0.187 C 
BRANCH  21  22
HETATM   22  N1  UNL     1      21.759   1.740  50.498  1.00  0.00    -0.302 NA
HETATM   23  C2  UNL     1      22.302   1.780  49.349  1.00  0.00     0.079 C 
HETATM   24  C1  UNL     1      23.089   2.893  48.770  1.00  0.00     0.056 C 
ENDBRANCH  21  22
ENDBRANCH   1  21
BRANCH  10  25
HETATM   25  C18 UNL     1      19.122  -0.281  52.772  1.00  0.00     0.203 C 
BRANCH  25  26
HETATM   26  O1  UNL     1      18.353  -0.890  53.779  1.00  0.00    -0.396 OA
HETATM   27  H16 UNL     1      17.987  -0.157  54.333  1.00  0.00     0.209 HD
ENDBRANCH  25  26
ENDBRANCH  10  25
TORSDOF 6
ENDMDL
MODEL 2
REMARK VINA RESULT:      -8.5      1.696      1.958
REMARK  6 active torsions:
REMARK  status: ('A' for Active; 'I' for Inactive)
REMARK    1  A    between atoms: N1_3  and  C3_4 
REMARK    2  A    between atoms: C3_4  and  C4_5 
REMARK    3  A    between atoms: C7_8  and  N2_9 
REMARK    4  A    between atoms: N2_9  and  C8_10 
REMARK    5  A    between atoms: C17_23  and  C18_24 
REMARK    6  A    between atoms: C18_24  and  O1_25 
ROOT
HETATM    1  C4  UNL     1      21.514   0.160  52.226  1.00  0.00    -0.029 A 
HETATM    2  C5  UNL     1      22.845   0.103  52.579  1.00  0.00     0.027 A 
HETATM    3  C6  UNL     1      23.346  -0.459  53.730  1.00  0.00     0.039 A 
HETATM    4  C7  UNL     1      24.685  -0.497  54.047  1.00  0.00     0.142 A 
HETATM    5  N3  UNL     1      24.923  -1.093  55.213  1.00  0.00    -0.224 NA
HETATM    6  C14 UNL     1      24.007  -1.616  56.029  1.00  0.00     0.236 A 
HETATM    7  N4  UNL     1      22.704  -1.574  55.709  1.00  0.00    -0.241 NA
HETATM    8  C15 UNL     1      22.373  -0.988  54.546  1.00  0.00     0.072 A 
HETATM    9  C16 UNL     1      21.027  -0.964  54.254  1.00  0.00     0.042 A 
HETATM   10  C17 UNL     1      20.584  -0.387  53.083  1.00  0.00    -0.025 A 
ENDROOT
BRANCH   4  11
HETATM   11  N2  UNL     1      25.637   0.062  53.168  1.00  0.00    -0.339 N 
HETATM   12  H8  UNL     1      25.350   0.499  52.273  1.00  0.00     0.167 HD
BRANCH  11  13
HETATM   13  C8  UNL     1      27.035   0.122  53.334  1.00  0.00     0.058 A 
HETATM   14  C9  UNL     1      27.689   1.254  53.748  1.00  0.00     0.031 A 
HETATM   15  C10 UNL     1      29.050   1.335  53.917  1.00  0.00     0.005 A 
HETATM   16  C11 UNL     1      29.859   0.245  53.670  1.00  0.00     0.044 A 
HETATM   17  C12 UNL     1      29.243  -0.912  53.253  1.00  0.00     0.140 A 
HETATM   18  F1  UNL     1      29.980  -2.018  52.994  1.00  0.00    -0.204 F 
HETATM   19  C13 UNL     1      27.878  -0.938  53.100  1.00  0.00     0.099 A 
HETATM   20 CL1  UNL     1      27.164  -2.466  52.560  1.00  0.00    -0.079 Cl
ENDBRANCH  11  13
ENDBRANCH   4  11
BRANCH   1  21
HETATM   21  C3  UNL     1      21.035   0.780  50.968  1.00  0.00     0.187 C 
BRANCH  21  22
HETATM   22  N1  UNL     1      21.465   2.148  50.853  1.00  0.00    -0.302 NA
HETATM   23  C2  UNL     1      20.930   3.018  51.609  1.00  0.00     0.079 C 
HETATM   24  C1  UNL     1      21.226   4.469  51.650  1.00  0.00     0.056 C 
ENDBRANCH  21  22
ENDBRANCH   1  21
BRANCH  10  25
HETATM   25  C18 UNL     1      19.141  -0.341  52.732  1.00  0.00     0.203 C 
BRANCH  25  26
HETATM   26  O1  UNL     1      18.386  -1.036  53.693  1.00  0.00    -0.396 OA
HETATM   27  H16 UNL     1      17.437  -0.916  53.442  1.00  0.00     0.209 HD
ENDBRANCH  25  26
ENDBRANCH  10  25
TORSDOF 6
ENDMDL
MODEL 3
REMARK VINA RESULT:      -8.5      2.558      4.571
REMARK  6 active torsions:
REMARK  status: ('A' for Active; 'I' for Inactive)
REMARK    1  A    between atoms: N1_3  and  C3_4 
REMARK    2  A    between atoms: C3_4  and  C4_5 
REMARK    3  A    between atoms: C7_8  and  N2_9 
REMARK    4  A    between atoms: N2_9  and  C8_10 
REMARK    5  A    between atoms: C17_23  and  C18_24 
REMARK    6  A    between atoms: C18_24  and  O1_25 
ROOT
HETATM    1  C4  UNL     1      22.561   1.156  51.421  1.00  0.00    -0.029 A 
HETATM    2  C5  UNL     1      23.862   1.239  51.870  1.00  0.00     0.027 A 
HETATM    3  C6  UNL     1      24.858   1.999  51.304  1.00  0.00     0.039 A 
HETATM    4  C7  UNL     1      26.148   2.056  51.782  1.00  0.00     0.142 A 
HETATM    5  N3  UNL     1      26.929   2.861  51.067  1.00  0.00    -0.224 NA
HETATM    6  C14 UNL     1      26.562   3.563  49.994  1.00  0.00     0.236 A 
HETATM    7  N4  UNL     1      25.301   3.500  49.537  1.00  0.00    -0.241 NA
HETATM    8  C15 UNL     1      24.442   2.709  50.201  1.00  0.00     0.072 A 
HETATM    9  C16 UNL     1      23.159   2.671  49.701  1.00  0.00     0.042 A 
HETATM   10  C17 UNL     1      22.202   1.890  50.311  1.00  0.00    -0.025 A 
ENDROOT
BRANCH   4  11
HETATM   11  N2  UNL     1      26.514   1.305  52.919  1.00  0.00    -0.339 N 
HETATM   12  H8  UNL     1      26.279   1.629  53.876  1.00  0.00     0.167 HD
BRANCH  11  13
HETATM   13  C8  UNL     1      27.209   0.080  52.958  1.00  0.00     0.058 A 
HETATM   14  C9  UNL     1      26.673  -1.097  52.502  1.00  0.00     0.031 A 
HETATM   15  C10 UNL     1      27.333  -2.302  52.529  1.00  0.00     0.005 A 
HETATM   16  C11 UNL     1      28.613  -2.395  53.034  1.00  0.00     0.044 A 
HETATM   17  C12 UNL     1      29.190  -1.237  53.503  1.00  0.00     0.140 A 
HETATM   18  F1  UNL     1      30.444  -1.261  54.011  1.00  0.00    -0.204 F 
HETATM   19  C13 UNL     1      28.485  -0.059  53.452  1.00  0.00     0.099 A 
HETATM   20 CL1  UNL     1      29.299   1.385  54.074  1.00  0.00    -0.079 Cl
ENDBRANCH  11  13
ENDBRANCH   4  11
BRANCH   1  21
HETATM   21  C3  UNL     1      21.530   0.318  52.076  1.00  0.00     0.187 C 
BRANCH  21  22
HETATM   22  N1  UNL     1      22.119  -0.684  52.924  1.00  0.00    -0.302 NA
HETATM   23  C2  UNL     1      21.957  -0.588  54.180  1.00  0.00     0.079 C 
HETATM   24  C1  UNL     1      22.476  -1.505  55.221  1.00  0.00     0.056 C 
ENDBRANCH  21  22
ENDBRANCH   1  21
BRANCH  10  25
HETATM   25  C18 UNL     1      20.808   1.822  49.802  1.00  0.00     0.203 C 
BRANCH  25  26
HETATM   26  O1  UNL     1      20.800   1.395  48.463  1.00  0.00    -0.396 OA
HETATM   27  H16 UNL     1      20.078   1.898  48.013  1.00  0.00     0.209 HD
ENDBRANCH  25  26
ENDBRANCH  10  25
TORSDOF 6
ENDMDL
MODEL 4
REMARK VINA RESULT:      -8.4      3.445      5.509
REMARK  6 active torsions:
REMARK  status: ('A' for Active; 'I' for Inactive)
REMARK    1  A    between atoms: N1_3  and  C3_4 
REMARK    2  A    between atoms: C3_4  and  C4_5 
REMARK    3  A    between atoms: C7_8  and  N2_9 
REMARK    4  A    between atoms: N2_9  and  C8_10 
REMARK    5  A    between atoms: C17_23  and  C18_24 
REMARK    6  A    between atoms: C18_24  and  O1_25 
ROOT
HETATM    1  C4  UNL     1      24.415  -0.083  53.310  1.00  0.00    -0.029 A 
HETATM    2  C5  UNL     1      25.105   0.761  52.467  1.00  0.00     0.027 A 
HETATM    3  C6  UNL     1      26.327   1.335  52.731  1.00  0.00     0.039 A 
HETATM    4  C7  UNL     1      26.986   2.175  51.861  1.00  0.00     0.142 A 
HETATM    5  N3  UNL     1      28.152   2.602  52.340  1.00  0.00    -0.224 NA
HETATM    6  C14 UNL     1      28.678   2.286  53.524  1.00  0.00     0.236 A 
HETATM    7  N4  UNL     1      28.027   1.465  54.363  1.00  0.00    -0.241 NA
HETATM    8  C15 UNL     1      26.838   0.986  53.959  1.00  0.00     0.072 A 
HETATM    9  C16 UNL     1      26.202   0.149  54.849  1.00  0.00     0.042 A 
HETATM   10  C17 UNL     1      24.977  -0.397  54.529  1.00  0.00    -0.025 A 
ENDROOT
BRANCH   4  11
HETATM   11  N2  UNL     1      26.410   2.495  50.614  1.00  0.00    -0.339 N 
HETATM   12  H8  UNL     1      26.015   1.758  50.000  1.00  0.00     0.167 HD
BRANCH  11  13
HETATM   13  C8  UNL     1      26.278   3.767  50.025  1.00  0.00     0.058 A 
HETATM   14  C9  UNL     1      27.198   4.282  49.147  1.00  0.00     0.031 A 
HETATM   15  C10 UNL     1      27.089   5.520  48.560  1.00  0.00     0.005 A 
HETATM   16  C11 UNL     1      26.013   6.338  48.832  1.00  0.00     0.044 A 
HETATM   17  C12 UNL     1      25.066   5.861  49.708  1.00  0.00     0.140 A 
HETATM   18  F1  UNL     1      23.986   6.616  50.017  1.00  0.00    -0.204 F 
HETATM   19  C13 UNL     1      25.224   4.616  50.267  1.00  0.00     0.099 A 
HETATM   20 CL1  UNL     1      23.961   4.076  51.383  1.00  0.00    -0.079 Cl
ENDBRANCH  11  13
ENDBRANCH   4  11
BRANCH   1  21
HETATM   21  C3  UNL     1      23.099  -0.672  52.968  1.00  0.00     0.187 C 
BRANCH  21  22
HETATM   22  N1  UNL     1      22.214   0.305  52.392  1.00  0.00    -0.302 NA
HETATM   23  C2  UNL     1      21.427   0.940  53.162  1.00  0.00     0.079 C 
HETATM   24  C1  UNL     1      20.444   1.979  52.776  1.00  0.00     0.056 C 
ENDBRANCH  21  22
ENDBRANCH   1  21
BRANCH  10  25
HETATM   25  C18 UNL     1      24.259  -1.304  55.460  1.00  0.00     0.203 C 
BRANCH  25  26
HETATM   26  O1  UNL     1      25.018  -1.503  56.627  1.00  0.00    -0.396 OA
HETATM   27  H16 UNL     1      24.850  -0.719  57.206  1.00  0.00     0.209 HD
ENDBRANCH  25  26
ENDBRANCH  10  25
TORSDOF 6
ENDMDL
MODEL 5
REMARK VINA RESULT:      -8.3      3.093      6.032
REMARK  6 active torsions:
REMARK  status: ('A' for Active; 'I' for Inactive)
REMARK    1  A    between atoms: N1_3  and  C3_4 
REMARK    2  A    between atoms: C3_4  and  C4_5 
REMARK    3  A    between atoms: C7_8  and  N2_9 
REMARK    4  A    between atoms: N2_9  and  C8_10 
REMARK    5  A    between atoms: C17_23  and  C18_24 
REMARK    6  A    between atoms: C18_24  and  O1_25 
ROOT
HETATM    1  C4  UNL     1      25.231   0.310  53.901  1.00  0.00    -0.029 A 
HETATM    2  C5  UNL     1      25.039   1.124  52.805  1.00  0.00     0.027 A 
HETATM    3  C6  UNL     1      23.899   1.180  52.038  1.00  0.00     0.039 A 
HETATM    4  C7  UNL     1      23.745   2.007  50.948  1.00  0.00     0.142 A 
HETATM    5  N3  UNL     1      22.554   1.882  50.369  1.00  0.00    -0.224 NA
HETATM    6  C14 UNL     1      21.575   1.063  50.754  1.00  0.00     0.236 A 
HETATM    7  N4  UNL     1      21.736   0.261  51.818  1.00  0.00    -0.241 NA
HETATM    8  C15 UNL     1      22.912   0.322  52.465  1.00  0.00     0.072 A 
HETATM    9  C16 UNL     1      23.038  -0.516  53.550  1.00  0.00     0.042 A 
HETATM   10  C17 UNL     1      24.206  -0.529  54.283  1.00  0.00    -0.025 A 
ENDROOT
BRANCH   4  11
HETATM   11  N2  UNL     1      24.795   2.867  50.559  1.00  0.00    -0.339 N 
HETATM   12  H8  UNL     1      25.698   2.490  50.216  1.00  0.00     0.167 HD
BRANCH  11  13
HETATM   13  C8  UNL     1      24.805   4.275  50.565  1.00  0.00     0.058 A 
HETATM   14  C9  UNL     1      23.859   5.025  51.216  1.00  0.00     0.031 A 
HETATM   15  C10 UNL     1      23.850   6.399  51.236  1.00  0.00     0.005 A 
HETATM   16  C11 UNL     1      24.824   7.121  50.579  1.00  0.00     0.044 A 
HETATM   17  C12 UNL     1      25.793   6.408  49.911  1.00  0.00     0.140 A 
HETATM   18  F1  UNL     1      26.777   7.058  49.247  1.00  0.00    -0.204 F 
HETATM   19  C13 UNL     1      25.754   5.035  49.924  1.00  0.00     0.099 A 
HETATM   20 CL1  UNL     1      27.038   4.193  49.042  1.00  0.00    -0.079 Cl
ENDBRANCH  11  13
ENDBRANCH   4  11
BRANCH   1  21
HETATM   21  C3  UNL     1      26.485   0.295  54.690  1.00  0.00     0.187 C 
BRANCH  21  22
HETATM   22  N1  UNL     1      27.488  -0.533  54.076  1.00  0.00    -0.302 NA
HETATM   23  C2  UNL     1      28.709  -0.201  54.201  1.00  0.00     0.079 C 
HETATM   24  C1  UNL     1      29.888  -0.910  53.652  1.00  0.00     0.056 C 
ENDBRANCH  21  22
ENDBRANCH   1  21
BRANCH  10  25
HETATM   25  C18 UNL     1      24.381  -1.419  55.459  1.00  0.00     0.203 C 
BRANCH  25  26
HETATM   26  O1  UNL     1      23.128  -1.822  55.953  1.00  0.00    -0.396 OA
HETATM   27  H16 UNL     1      23.180  -2.801  56.081  1.00  0.00     0.209 HD
ENDBRANCH  25  26
ENDBRANCH  10  25
TORSDOF 6
ENDMDL
MODEL 6
REMARK VINA RESULT:      -8.2      3.297      5.905
REMARK  6 active torsions:
REMARK  status: ('A' for Active; 'I' for Inactive)
REMARK    1  A    between atoms: N1_3  and  C3_4 
REMARK    2  A    between atoms: C3_4  and  C4_5 
REMARK    3  A    between atoms: C7_8  and  N2_9 
REMARK    4  A    between atoms: N2_9  and  C8_10 
REMARK    5  A    between atoms: C17_23  and  C18_24 
REMARK    6  A    between atoms: C18_24  and  O1_25 
ROOT
HETATM    1  C4  UNL     1      25.795   0.800  52.408  1.00  0.00    -0.029 A 
HETATM    2  C5  UNL     1      24.461   1.144  52.382  1.00  0.00     0.027 A 
HETATM    3  C6  UNL     1      23.470   0.571  53.145  1.00  0.00     0.039 A 
HETATM    4  C7  UNL     1      22.145   0.943  53.090  1.00  0.00     0.142 A 
HETATM    5  N3  UNL     1      21.378   0.244  53.923  1.00  0.00    -0.224 NA
HETATM    6  C14 UNL     1      21.789  -0.721  54.746  1.00  0.00     0.236 A 
HETATM    7  N4  UNL     1      23.083  -1.075  54.791  1.00  0.00    -0.241 NA
HETATM    8  C15 UNL     1      23.931  -0.419  53.981  1.00  0.00     0.072 A 
HETATM    9  C16 UNL     1      25.248  -0.811  54.057  1.00  0.00     0.042 A 
HETATM   10  C17 UNL     1      26.198  -0.200  53.266  1.00  0.00    -0.025 A 
ENDROOT
BRANCH   4  11
HETATM   11  N2  UNL     1      21.734   1.968  52.212  1.00  0.00    -0.339 N 
HETATM   12  H8  UNL     1      21.271   2.825  52.567  1.00  0.00     0.167 HD
BRANCH  11  13
HETATM   13  C8  UNL     1      21.865   2.008  50.810  1.00  0.00     0.058 A 
HETATM   14  C9  UNL     1      21.425   1.001  49.990  1.00  0.00     0.031 A 
HETATM   15  C10 UNL     1      21.541   1.020  48.621  1.00  0.00     0.005 A 
HETATM   16  C11 UNL     1      22.128   2.088  47.977  1.00  0.00     0.044 A 
HETATM   17  C12 UNL     1      22.585   3.122  48.762  1.00  0.00     0.140 A 
HETATM   18  F1  UNL     1      23.171   4.200  48.190  1.00  0.00    -0.204 F 
HETATM   19  C13 UNL     1      22.443   3.052  50.127  1.00  0.00     0.099 A 
HETATM   20 CL1  UNL     1      23.056   4.422  51.064  1.00  0.00    -0.079 Cl
ENDBRANCH  11  13
ENDBRANCH   4  11
BRANCH   1  21
HETATM   21  C3  UNL     1      26.818   1.456  51.560  1.00  0.00     0.187 C 
BRANCH  21  22
HETATM   22  N1  UNL     1      26.424   2.789  51.189  1.00  0.00    -0.302 NA
HETATM   23  C2  UNL     1      26.558   3.146  49.976  1.00  0.00     0.079 C 
HETATM   24  C1  UNL     1      26.216   4.462  49.389  1.00  0.00     0.056 C 
ENDBRANCH  21  22
ENDBRANCH   1  21
BRANCH  10  25
HETATM   25  C18 UNL     1      27.630  -0.594  53.319  1.00  0.00     0.203 C 
BRANCH  25  26
HETATM   26  O1  UNL     1      28.100  -0.538  54.642  1.00  0.00    -0.396 OA
HETATM   27  H16 UNL     1      27.464   0.031  55.142  1.00  0.00     0.209 HD
ENDBRANCH  25  26
ENDBRANCH  10  25
TORSDOF 6
ENDMDL
MODEL 7
REMARK VINA RESULT:      -7.7      2.984      5.565
REMARK  6 active torsions:
REMARK  status: ('A' for Active; 'I' for Inactive)
REMARK    1  A    between atoms: N1_3  and  C3_4 
REMARK    2  A    between atoms: C3_4  and  C4_5 
REMARK    3  A    between atoms: C7_8  and  N2_9 
REMARK    4  A    between atoms: N2_9  and  C8_10 
REMARK    5  A    between atoms: C17_23  and  C18_24 
REMARK    6  A    between atoms: C18_24  and  O1_25 
ROOT
HETATM    1  C4  UNL     1      22.905   0.522  53.277  1.00  0.00    -0.029 A 
HETATM    2  C5  UNL     1      23.278   1.755  52.786  1.00  0.00     0.027 A 
HETATM    3  C6  UNL     1      22.422   2.720  52.309  1.00  0.00     0.039 A 
HETATM    4  C7  UNL     1      22.834   3.942  51.826  1.00  0.00     0.142 A 
HETATM    5  N3  UNL     1      21.821   4.705  51.422  1.00  0.00    -0.224 NA
HETATM    6  C14 UNL     1      20.529   4.378  51.455  1.00  0.00     0.236 A 
HETATM    7  N4  UNL     1      20.139   3.184  51.929  1.00  0.00    -0.241 NA
HETATM    8  C15 UNL     1      21.099   2.348  52.360  1.00  0.00     0.072 A 
HETATM    9  C16 UNL     1      20.658   1.133  52.837  1.00  0.00     0.042 A 
HETATM   10  C17 UNL     1      21.564   0.204  53.303  1.00  0.00    -0.025 A 
ENDROOT
BRANCH   4  11
HETATM   11  N2  UNL     1      24.207   4.266  51.800  1.00  0.00    -0.339 N 
HETATM   12  H8  UNL     1      24.814   4.097  52.623  1.00  0.00     0.167 HD
BRANCH  11  13
HETATM   13  C8  UNL     1      24.940   4.832  50.739  1.00  0.00     0.058 A 
HETATM   14  C9  UNL     1      24.685   6.084  50.240  1.00  0.00     0.031 A 
HETATM   15  C10 UNL     1      25.388   6.656  49.207  1.00  0.00     0.005 A 
HETATM   16  C11 UNL     1      26.422   5.979  48.596  1.00  0.00     0.044 A 
HETATM   17  C12 UNL     1      26.712   4.718  49.065  1.00  0.00     0.140 A 
HETATM   18  F1  UNL     1      27.715   4.001  48.508  1.00  0.00    -0.204 F 
HETATM   19  C13 UNL     1      25.977   4.194  50.101  1.00  0.00     0.099 A 
HETATM   20 CL1  UNL     1      26.414   2.567  50.645  1.00  0.00    -0.079 Cl
ENDBRANCH  11  13
ENDBRANCH   4  11
BRANCH   1  21
HETATM   21  C3  UNL     1      23.876  -0.478  53.780  1.00  0.00     0.187 C 
BRANCH  21  22
HETATM   22  N1  UNL     1      25.234  -0.065  53.542  1.00  0.00    -0.302 NA
HETATM   23  C2  UNL     1      26.081  -0.943  53.186  1.00  0.00     0.079 C 
HETATM   24  C1  UNL     1      27.518  -0.731  52.894  1.00  0.00     0.056 C 
ENDBRANCH  21  22
ENDBRANCH   1  21
BRANCH  10  25
HETATM   25  C18 UNL     1      21.129  -1.117  53.826  1.00  0.00     0.203 C 
BRANCH  25  26
HETATM   26  O1  UNL     1      19.780  -1.063  54.219  1.00  0.00    -0.396 OA
HETATM   27  H16 UNL     1      19.777  -1.046  55.207  1.00  0.00     0.209 HD
ENDBRANCH  25  26
ENDBRANCH  10  25
TORSDOF 6
ENDMDL
MODEL 8
REMARK VINA RESULT:      -7.6      3.837      6.821
REMARK  6 active torsions:
REMARK  status: ('A' for Active; 'I' for Inactive)
REMARK    1  A    between atoms: N1_3  and  C3_4 
REMARK    2  A    between atoms: C3_4  and  C4_5 
REMARK    3  A    between atoms: C7_8  and  N2_9 
REMARK    4  A    between atoms: N2_9  and  C8_10 
REMARK    5  A    between atoms: C17_23  and  C18_24 
REMARK    6  A    between atoms: C18_24  and  O1_25 
ROOT
HETATM    1  C4  UNL     1      25.838   0.792  52.477  1.00  0.00    -0.029 A 
HETATM    2  C5  UNL     1      24.469   0.804  52.319  1.00  0.00     0.027 A 
HETATM    3  C6  UNL     1      23.563   0.160  53.128  1.00  0.00     0.039 A 
HETATM    4  C7  UNL     1      22.200   0.197  52.937  1.00  0.00     0.142 A 
HETATM    5  N3  UNL     1      21.531  -0.503  53.851  1.00  0.00    -0.224 NA
HETATM    6  C14 UNL     1      22.066  -1.186  54.864  1.00  0.00     0.236 A 
HETATM    7  N4  UNL     1      23.397  -1.214  55.040  1.00  0.00    -0.241 NA
HETATM    8  C15 UNL     1      24.151  -0.532  54.162  1.00  0.00     0.072 A 
HETATM    9  C16 UNL     1      25.510  -0.587  54.377  1.00  0.00     0.042 A 
HETATM   10  C17 UNL     1      26.371   0.080  53.531  1.00  0.00    -0.025 A 
ENDROOT
BRANCH   4  11
HETATM   11  N2  UNL     1      21.656   0.926  51.859  1.00  0.00    -0.339 N 
HETATM   12  H8  UNL     1      22.264   1.332  51.124  1.00  0.00     0.167 HD
BRANCH  11  13
HETATM   13  C8  UNL     1      20.300   1.212  51.607  1.00  0.00     0.058 A 
HETATM   14  C9  UNL     1      19.409   0.269  51.159  1.00  0.00     0.031 A 
HETATM   15  C10 UNL     1      18.083   0.526  50.908  1.00  0.00     0.005 A 
HETATM   16  C11 UNL     1      17.559   1.787  51.098  1.00  0.00     0.044 A 
HETATM   17  C12 UNL     1      18.418   2.764  51.546  1.00  0.00     0.140 A 
HETATM   18  F1  UNL     1      17.965   4.022  51.753  1.00  0.00    -0.204 F 
HETATM   19  C13 UNL     1      19.736   2.453  51.782  1.00  0.00     0.099 A 
HETATM   20 CL1  UNL     1      20.774   3.766  52.358  1.00  0.00    -0.079 Cl
ENDBRANCH  11  13
ENDBRANCH   4  11
BRANCH   1  21
HETATM   21  C3  UNL     1      26.766   1.508  51.571  1.00  0.00     0.187 C 
BRANCH  21  22
HETATM   22  N1  UNL     1      26.235   2.782  51.167  1.00  0.00    -0.302 NA
HETATM   23  C2  UNL     1      26.489   3.202  49.995  1.00  0.00     0.079 C 
HETATM   24  C1  UNL     1      26.043   4.477  49.385  1.00  0.00     0.056 C 
ENDBRANCH  21  22
ENDBRANCH   1  21
BRANCH  10  25
HETATM   25  C18 UNL     1      27.843   0.046  53.729  1.00  0.00     0.203 C 
BRANCH  25  26
HETATM   26  O1  UNL     1      28.146  -0.334  55.048  1.00  0.00    -0.396 OA
HETATM   27  H16 UNL     1      27.340  -0.785  55.402  1.00  0.00     0.209 HD
ENDBRANCH  25  26
ENDBRANCH  10  25
TORSDOF 6
ENDMDL
MODEL 9
REMARK VINA RESULT:      -7.5      4.158      7.447
REMARK  6 active torsions:
REMARK  status: ('A' for Active; 'I' for Inactive)
REMARK    1  A    between atoms: N1_3  and  C3_4 
REMARK    2  A    between atoms: C3_4  and  C4_5 
REMARK    3  A    between atoms: C7_8  and  N2_9 
REMARK    4  A    between atoms: N2_9  and  C8_10 
REMARK    5  A    between atoms: C17_23  and  C18_24 
REMARK    6  A    between atoms: C18_24  and  O1_25 
ROOT
HETATM    1  C4  UNL     1      24.975   0.408  53.125  1.00  0.00    -0.029 A 
HETATM    2  C5  UNL     1      24.372   1.603  52.795  1.00  0.00     0.027 A 
HETATM    3  C6  UNL     1      24.863   2.529  51.905  1.00  0.00     0.039 A 
HETATM    4  C7  UNL     1      24.231   3.714  51.601  1.00  0.00     0.142 A 
HETATM    5  N3  UNL     1      24.900   4.443  50.712  1.00  0.00    -0.224 NA
HETATM    6  C14 UNL     1      26.061   4.117  50.141  1.00  0.00     0.236 A 
HETATM    7  N4  UNL     1      26.668   2.959  50.446  1.00  0.00    -0.241 NA
HETATM    8  C15 UNL     1      26.060   2.158  51.337  1.00  0.00     0.072 A 
HETATM    9  C16 UNL     1      26.715   0.980  51.622  1.00  0.00     0.042 A 
HETATM   10  C17 UNL     1      26.174   0.089  52.524  1.00  0.00    -0.025 A 
ENDROOT
BRANCH   4  11
HETATM   11  N2  UNL     1      23.003   4.038  52.216  1.00  0.00    -0.339 N 
HETATM   12  H8  UNL     1      22.933   4.160  53.243  1.00  0.00     0.167 HD
BRANCH  11  13
HETATM   13  C8  UNL     1      21.754   4.239  51.597  1.00  0.00     0.058 A 
HETATM   14  C9  UNL     1      21.502   5.283  50.744  1.00  0.00     0.031 A 
HETATM   15  C10 UNL     1      20.292   5.497  50.129  1.00  0.00     0.005 A 
HETATM   16  C11 UNL     1      19.230   4.644  50.344  1.00  0.00     0.044 A 
HETATM   17  C12 UNL     1      19.438   3.583  51.194  1.00  0.00     0.140 A 
HETATM   18  F1  UNL     1      18.436   2.709  51.447  1.00  0.00    -0.204 F 
HETATM   19  C13 UNL     1      20.669   3.416  51.783  1.00  0.00     0.099 A 
HETATM   20 CL1  UNL     1      20.854   2.024  52.862  1.00  0.00    -0.079 Cl
ENDBRANCH  11  13
ENDBRANCH   4  11
BRANCH   1  21
HETATM   21  C3  UNL     1      24.395  -0.552  54.093  1.00  0.00     0.187 C 
BRANCH  21  22
HETATM   22  N1  UNL     1      23.100  -1.015  53.671  1.00  0.00    -0.302 NA
HETATM   23  C2  UNL     1      22.168  -1.080  54.533  1.00  0.00     0.079 C 
HETATM   24  C1  UNL     1      20.773  -1.526  54.309  1.00  0.00     0.056 C 
ENDBRANCH  21  22
ENDBRANCH   1  21
BRANCH  10  25
HETATM   25  C18 UNL     1      26.849  -1.191  52.858  1.00  0.00     0.203 C 
BRANCH  25  26
HETATM   26  O1  UNL     1      27.841  -0.977  53.831  1.00  0.00    -0.396 OA
HETATM   27  H16 UNL     1      27.699  -0.063  54.179  1.00  0.00     0.209 HD
ENDBRANCH  25  26
ENDBRANCH  10  25
TORSDOF 6
ENDMDL
