MODEL 1
REMARK VINA RESULT:      -8.9      0.000      0.000
REMARK  4 active torsions:
REMARK  status: ('A' for Active; 'I' for Inactive)
REMARK       I    between atoms: C2_2  and  N1_4 
REMARK    1  A    between atoms: C5_7  and  O2_8 
REMARK    2  A    between atoms: O2_8  and  C6_9 
REMARK    3  A    between atoms: C8_11  and  C9_12 
REMARK    4  A    between atoms: N2_18  and  C14_19 
ROOT
HETATM    1  C6  UNL     1      24.425   0.254  53.125  1.00  0.00     0.078 A 
HETATM    2  C7  UNL     1      25.146  -0.895  53.042  1.00  0.00     0.045 A 
HETATM    3  C8  UNL     1      26.430  -0.929  52.552  1.00  0.00    -0.041 A 
HETATM    4  C10 UNL     1      27.026   0.256  52.119  1.00  0.00     0.017 A 
HETATM    5  C11 UNL     1      26.344   1.494  52.171  1.00  0.00    -0.032 A 
HETATM    6  C12 UNL     1      25.045   1.409  52.686  1.00  0.00     0.002 A 
HETATM    7  C13 UNL     1      24.578   2.843  52.538  1.00  0.00     0.185 C 
HETATM    8  N2  UNL     1      24.920   3.218  51.168  1.00  0.00    -0.308 N 
HETATM    9  N3  UNL     1      26.252   3.562  50.985  1.00  0.00    -0.233 NA
HETATM   10  C20 UNL     1      27.105   2.677  51.713  1.00  0.00     0.149 C 
HETATM   11  H19 UNL     1      26.396   4.539  51.316  1.00  0.00     0.147 HD
ENDROOT
BRANCH   1  12
HETATM   12  O2  UNL     1      23.173   0.672  53.540  1.00  0.00    -0.345 OA
BRANCH  12  13
HETATM   13  C5  UNL     1      21.971  -0.030  53.336  1.00  0.00     0.132 C 
HETATM   14  C4  UNL     1      20.807   0.641  54.053  1.00  0.00     0.052 C 
HETATM   15  C3  UNL     1      20.198   1.763  53.280  1.00  0.00     0.128 C 
HETATM   16  N1  UNL     1      19.887   1.442  51.914  1.00  0.00    -0.352 N 
HETATM   17  C2  UNL     1      19.386   2.606  51.298  1.00  0.00     0.215 C 
HETATM   18  C22 UNL     1      20.177   0.043  51.600  1.00  0.00     0.128 C 
HETATM   19  C1  UNL     1      18.920   2.872  49.920  1.00  0.00     0.117 C 
HETATM   20  O1  UNL     1      19.390   3.507  52.193  1.00  0.00    -0.274 OA
HETATM   21  C21 UNL     1      21.668  -0.114  51.881  1.00  0.00     0.052 C 
ENDBRANCH  12  13
ENDBRANCH   1  12
BRANCH   3  22
HETATM   22  C9  UNL     1      27.041  -2.282  52.536  1.00  0.00     0.153 C 
HETATM   23 CL1  UNL     1      28.735  -2.144  53.058  1.00  0.00    -0.126 Cl
ENDBRANCH   3  22
BRANCH   8  24
HETATM   24  C14 UNL     1      23.999   3.224  50.085  1.00  0.00     0.049 A 
HETATM   25  C15 UNL     1      23.784   4.261  49.242  1.00  0.00     0.031 A 
HETATM   26  C16 UNL     1      22.870   4.243  48.189  1.00  0.00     0.005 A 
HETATM   27  C17 UNL     1      22.144   3.077  48.011  1.00  0.00     0.042 A 
HETATM   28  C18 UNL     1      22.325   1.982  48.845  1.00  0.00     0.118 A 
HETATM   29  F1  UNL     1      21.642   0.801  48.724  1.00  0.00    -0.206 F 
HETATM   30  C19 UNL     1      23.257   2.076  49.872  1.00  0.00     0.072 A 
ENDBRANCH   8  24
TORSDOF 4
ENDMDL
MODEL 2
REMARK VINA RESULT:      -8.7      3.005      6.066
REMARK  4 active torsions:
REMARK  status: ('A' for Active; 'I' for Inactive)
REMARK       I    between atoms: C2_2  and  N1_4 
REMARK    1  A    between atoms: C5_7  and  O2_8 
REMARK    2  A    between atoms: O2_8  and  C6_9 
REMARK    3  A    between atoms: C8_11  and  C9_12 
REMARK    4  A    between atoms: N2_18  and  C14_19 
ROOT
HETATM    1  C6  UNL     1      23.255   1.160  52.057  1.00  0.00     0.078 A 
HETATM    2  C7  UNL     1      22.617   0.644  53.140  1.00  0.00     0.045 A 
HETATM    3  C8  UNL     1      21.247   0.612  53.247  1.00  0.00    -0.041 A 
HETATM    4  C10 UNL     1      20.471   1.128  52.209  1.00  0.00     0.017 A 
HETATM    5  C11 UNL     1      21.055   1.683  51.048  1.00  0.00    -0.032 A 
HETATM    6  C12 UNL     1      22.455   1.664  51.048  1.00  0.00     0.002 A 
HETATM    7  C13 UNL     1      22.757   2.377  49.746  1.00  0.00     0.185 C 
HETATM    8  N2  UNL     1      21.929   3.581  49.768  1.00  0.00    -0.308 N 
HETATM    9  N3  UNL     1      20.602   3.370  49.421  1.00  0.00    -0.233 NA
HETATM   10  C20 UNL     1      20.116   2.163  50.010  1.00  0.00     0.149 C 
HETATM   11  H19 UNL     1      20.531   3.308  48.384  1.00  0.00     0.147 HD
ENDROOT
BRANCH   1  12
HETATM   12  O2  UNL     1      24.547   1.358  51.603  1.00  0.00    -0.345 OA
BRANCH  12  13
HETATM   13  C5  UNL     1      25.465   2.280  52.138  1.00  0.00     0.132 C 
HETATM   14  C4  UNL     1      25.511   2.201  53.658  1.00  0.00     0.052 C 
HETATM   15  C3  UNL     1      26.405   1.122  54.172  1.00  0.00     0.128 C 
HETATM   16  N1  UNL     1      27.716   1.108  53.585  1.00  0.00    -0.352 N 
HETATM   17  C2  UNL     1      28.417   0.006  54.113  1.00  0.00     0.215 C 
HETATM   18  C22 UNL     1      27.910   2.215  52.648  1.00  0.00     0.128 C 
HETATM   19  C1  UNL     1      29.783  -0.506  53.870  1.00  0.00     0.117 C 
HETATM   20  O1  UNL     1      27.621  -0.561  54.925  1.00  0.00    -0.274 OA
HETATM   21  C21 UNL     1      26.826   2.021  51.592  1.00  0.00     0.052 C 
ENDBRANCH  12  13
ENDBRANCH   1  12
BRANCH   3  22
HETATM   22  C9  UNL     1      20.748   0.016  54.512  1.00  0.00     0.153 C 
HETATM   23 CL1  UNL     1      21.275  -1.680  54.586  1.00  0.00    -0.126 Cl
ENDBRANCH   3  22
BRANCH   8  24
HETATM   24  C14 UNL     1      22.404   4.873  50.125  1.00  0.00     0.049 A 
HETATM   25  C15 UNL     1      21.628   5.935  50.445  1.00  0.00     0.031 A 
HETATM   26  C16 UNL     1      22.119   7.194  50.788  1.00  0.00     0.005 A 
HETATM   27  C17 UNL     1      23.495   7.348  50.796  1.00  0.00     0.042 A 
HETATM   28  C18 UNL     1      24.339   6.292  50.478  1.00  0.00     0.118 A 
HETATM   29  F1  UNL     1      25.706   6.375  50.467  1.00  0.00    -0.206 F 
HETATM   30  C19 UNL     1      23.774   5.066  50.148  1.00  0.00     0.072 A 
ENDBRANCH   8  24
TORSDOF 4
ENDMDL
MODEL 3
REMARK VINA RESULT:      -8.2      3.160      6.888
REMARK  4 active torsions:
REMARK  status: ('A' for Active; 'I' for Inactive)
REMARK       I    between atoms: C2_2  and  N1_4 
REMARK    1  A    between atoms: C5_7  and  O2_8 
REMARK    2  A    between atoms: O2_8  and  C6_9 
REMARK    3  A    between atoms: C8_11  and  C9_12 
REMARK    4  A    between atoms: N2_18  and  C14_19 
ROOT
HETATM    1  C6  UNL     1      23.185   2.405  50.296  1.00  0.00     0.078 A 
HETATM    2  C7  UNL     1      23.154   2.501  48.941  1.00  0.00     0.045 A 
HETATM    3  C8  UNL     1      22.110   3.083  48.264  1.00  0.00    -0.041 A 
HETATM    4  C10 UNL     1      21.033   3.599  48.986  1.00  0.00     0.017 A 
HETATM    5  C11 UNL     1      20.987   3.540  50.397  1.00  0.00    -0.032 A 
HETATM    6  C12 UNL     1      22.102   2.925  50.979  1.00  0.00     0.002 A 
HETATM    7  C13 UNL     1      21.718   2.950  52.445  1.00  0.00     0.185 C 
HETATM    8  N2  UNL     1      20.351   2.437  52.492  1.00  0.00    -0.308 N 
HETATM    9  N3  UNL     1      19.378   3.367  52.152  1.00  0.00    -0.233 NA
HETATM   10  C20 UNL     1      19.803   4.154  51.038  1.00  0.00     0.149 C 
HETATM   11  H19 UNL     1      19.202   3.985  52.972  1.00  0.00     0.147 HD
ENDROOT
BRANCH   1  12
HETATM   12  O2  UNL     1      24.017   1.918  51.288  1.00  0.00    -0.345 OA
BRANCH  12  13
HETATM   13  C5  UNL     1      25.086   2.620  51.873  1.00  0.00     0.132 C 
HETATM   14  C4  UNL     1      25.125   2.419  53.382  1.00  0.00     0.052 C 
HETATM   15  C3  UNL     1      25.817   1.164  53.799  1.00  0.00     0.128 C 
HETATM   16  N1  UNL     1      27.103   0.965  53.188  1.00  0.00    -0.352 N 
HETATM   17  C2  UNL     1      27.601  -0.280  53.619  1.00  0.00     0.215 C 
HETATM   18  C22 UNL     1      27.483   2.089  52.333  1.00  0.00     0.128 C 
HETATM   19  C1  UNL     1      28.854  -1.003  53.315  1.00  0.00     0.117 C 
HETATM   20  O1  UNL     1      26.721  -0.759  54.401  1.00  0.00    -0.274 OA
HETATM   21  C21 UNL     1      26.378   2.169  51.285  1.00  0.00     0.052 C 
ENDBRANCH  12  13
ENDBRANCH   1  12
BRANCH   3  22
HETATM   22  C9  UNL     1      22.263   3.080  46.787  1.00  0.00     0.153 C 
HETATM   23 CL1  UNL     1      22.103   4.750  46.198  1.00  0.00    -0.126 Cl
ENDBRANCH   3  22
BRANCH   8  24
HETATM   24  C14 UNL     1      20.008   1.100  52.835  1.00  0.00     0.049 A 
HETATM   25  C15 UNL     1      18.908   0.437  52.408  1.00  0.00     0.031 A 
HETATM   26  C16 UNL     1      18.593  -0.875  52.763  1.00  0.00     0.005 A 
HETATM   27  C17 UNL     1      19.477  -1.523  53.609  1.00  0.00     0.042 A 
HETATM   28  C18 UNL     1      20.622  -0.891  54.075  1.00  0.00     0.118 A 
HETATM   29  F1  UNL     1      21.537  -1.474  54.911  1.00  0.00    -0.206 F 
HETATM   30  C19 UNL     1      20.869   0.417  53.675  1.00  0.00     0.072 A 
ENDBRANCH   8  24
TORSDOF 4
ENDMDL
MODEL 4
REMARK VINA RESULT:      -8.2      3.409      6.201
REMARK  4 active torsions:
REMARK  status: ('A' for Active; 'I' for Inactive)
REMARK       I    between atoms: C2_2  and  N1_4 
REMARK    1  A    between atoms: C5_7  and  O2_8 
REMARK    2  A    between atoms: O2_8  and  C6_9 
REMARK    3  A    between atoms: C8_11  and  C9_12 
REMARK    4  A    between atoms: N2_18  and  C14_19 
ROOT
HETATM    1  C6  UNL     1      22.572   1.209  51.156  1.00  0.00     0.078 A 
HETATM    2  C7  UNL     1      21.357   0.731  51.533  1.00  0.00     0.045 A 
HETATM    3  C8  UNL     1      20.232   0.875  50.757  1.00  0.00    -0.041 A 
HETATM    4  C10 UNL     1      20.329   1.536  49.532  1.00  0.00     0.017 A 
HETATM    5  C11 UNL     1      21.555   2.063  49.066  1.00  0.00    -0.032 A 
HETATM    6  C12 UNL     1      22.631   1.860  49.938  1.00  0.00     0.002 A 
HETATM    7  C13 UNL     1      23.741   2.589  49.207  1.00  0.00     0.185 C 
HETATM    8  N2  UNL     1      23.177   3.888  48.851  1.00  0.00    -0.308 N 
HETATM    9  N3  UNL     1      22.359   3.870  47.729  1.00  0.00    -0.233 NA
HETATM   10  C20 UNL     1      21.524   2.711  47.736  1.00  0.00     0.149 C 
HETATM   11  H19 UNL     1      22.957   3.866  46.877  1.00  0.00     0.147 HD
ENDROOT
BRANCH   1  12
HETATM   12  O2  UNL     1      23.868   1.257  51.636  1.00  0.00    -0.345 OA
BRANCH  12  13
HETATM   13  C5  UNL     1      24.233   1.316  52.994  1.00  0.00     0.132 C 
HETATM   14  C4  UNL     1      24.254  -0.070  53.625  1.00  0.00     0.052 C 
HETATM   15  C3  UNL     1      25.527  -0.812  53.390  1.00  0.00     0.128 C 
HETATM   16  N1  UNL     1      26.715  -0.060  53.685  1.00  0.00    -0.352 N 
HETATM   17  C2  UNL     1      27.828  -0.858  53.355  1.00  0.00     0.215 C 
HETATM   18  C22 UNL     1      26.406   1.265  54.224  1.00  0.00     0.128 C 
HETATM   19  C1  UNL     1      29.283  -0.608  53.435  1.00  0.00     0.117 C 
HETATM   20  O1  UNL     1      27.357  -1.958  52.926  1.00  0.00    -0.274 OA
HETATM   21  C21 UNL     1      25.577   1.940  53.136  1.00  0.00     0.052 C 
ENDBRANCH  12  13
ENDBRANCH   1  12
BRANCH   3  22
HETATM   22  C9  UNL     1      19.002   0.290  51.350  1.00  0.00     0.153 C 
HETATM   23 CL1  UNL     1      17.771   0.147  50.076  1.00  0.00    -0.126 Cl
ENDBRANCH   3  22
BRANCH   8  24
HETATM   24  C14 UNL     1      23.409   5.089  49.577  1.00  0.00     0.049 A 
HETATM   25  C15 UNL     1      24.623   5.569  49.935  1.00  0.00     0.031 A 
HETATM   26  C16 UNL     1      24.823   6.748  50.652  1.00  0.00     0.005 A 
HETATM   27  C17 UNL     1      23.692   7.461  51.012  1.00  0.00     0.042 A 
HETATM   28  C18 UNL     1      22.422   7.015  50.669  1.00  0.00     0.118 A 
HETATM   29  F1  UNL     1      21.264   7.671  50.993  1.00  0.00    -0.206 F 
HETATM   30  C19 UNL     1      22.303   5.831  49.952  1.00  0.00     0.072 A 
ENDBRANCH   8  24
TORSDOF 4
ENDMDL
MODEL 5
REMARK VINA RESULT:      -8.1      3.118      5.995
REMARK  4 active torsions:
REMARK  status: ('A' for Active; 'I' for Inactive)
REMARK       I    between atoms: C2_2  and  N1_4 
REMARK    1  A    between atoms: C5_7  and  O2_8 
REMARK    2  A    between atoms: O2_8  and  C6_9 
REMARK    3  A    between atoms: C8_11  and  C9_12 
REMARK    4  A    between atoms: N2_18  and  C14_19 
ROOT
HETATM    1  C6  UNL     1      25.497   2.859  51.094  1.00  0.00     0.078 A 
HETATM    2  C7  UNL     1      26.423   3.281  50.194  1.00  0.00     0.045 A 
HETATM    3  C8  UNL     1      26.366   4.517  49.597  1.00  0.00    -0.041 A 
HETATM    4  C10 UNL     1      25.319   5.382  49.921  1.00  0.00     0.017 A 
HETATM    5  C11 UNL     1      24.315   5.021  50.847  1.00  0.00    -0.032 A 
HETATM    6  C12 UNL     1      24.473   3.740  51.390  1.00  0.00     0.002 A 
HETATM    7  C13 UNL     1      23.233   3.633  52.254  1.00  0.00     0.185 C 
HETATM    8  N2  UNL     1      22.130   4.055  51.394  1.00  0.00    -0.308 N 
HETATM    9  N3  UNL     1      22.001   5.431  51.262  1.00  0.00    -0.233 NA
HETATM   10  C20 UNL     1      23.283   6.044  51.124  1.00  0.00     0.149 C 
HETATM   11  H19 UNL     1      21.521   5.807  52.107  1.00  0.00     0.147 HD
ENDROOT
BRANCH   1  12
HETATM   12  O2  UNL     1      25.228   1.745  51.870  1.00  0.00    -0.345 OA
BRANCH  12  13
HETATM   13  C5  UNL     1      25.593   1.585  53.219  1.00  0.00     0.132 C 
HETATM   14  C4  UNL     1      25.190   0.214  53.745  1.00  0.00     0.052 C 
HETATM   15  C3  UNL     1      26.176  -0.860  53.426  1.00  0.00     0.128 C 
HETATM   16  N1  UNL     1      27.538  -0.530  53.747  1.00  0.00    -0.352 N 
HETATM   17  C2  UNL     1      28.354  -1.601  53.332  1.00  0.00     0.215 C 
HETATM   18  C22 UNL     1      27.648   0.779  54.389  1.00  0.00     0.128 C 
HETATM   19  C1  UNL     1      29.816  -1.812  53.396  1.00  0.00     0.117 C 
HETATM   20  O1  UNL     1      27.570  -2.468  52.834  1.00  0.00    -0.274 OA
HETATM   21  C21 UNL     1      27.064   1.757  53.374  1.00  0.00     0.052 C 
ENDBRANCH  12  13
ENDBRANCH   1  12
BRANCH   3  22
HETATM   22  C9  UNL     1      27.467   4.783  48.637  1.00  0.00     0.153 C 
HETATM   23 CL1  UNL     1      27.545   6.533  48.335  1.00  0.00    -0.126 Cl
ENDBRANCH   3  22
BRANCH   8  24
HETATM   24  C14 UNL     1      21.252   3.162  50.720  1.00  0.00     0.049 A 
HETATM   25  C15 UNL     1      20.713   3.365  49.495  1.00  0.00     0.031 A 
HETATM   26  C16 UNL     1      19.851   2.473  48.857  1.00  0.00     0.005 A 
HETATM   27  C17 UNL     1      19.539   1.309  49.539  1.00  0.00     0.042 A 
HETATM   28  C18 UNL     1      20.066   1.048  50.797  1.00  0.00     0.118 A 
HETATM   29  F1  UNL     1      19.800  -0.081  51.524  1.00  0.00    -0.206 F 
HETATM   30  C19 UNL     1      20.920   1.985  51.367  1.00  0.00     0.072 A 
ENDBRANCH   8  24
TORSDOF 4
ENDMDL
MODEL 6
REMARK VINA RESULT:      -8.0      3.831      6.547
REMARK  4 active torsions:
REMARK  status: ('A' for Active; 'I' for Inactive)
REMARK       I    between atoms: C2_2  and  N1_4 
REMARK    1  A    between atoms: C5_7  and  O2_8 
REMARK    2  A    between atoms: O2_8  and  C6_9 
REMARK    3  A    between atoms: C8_11  and  C9_12 
REMARK    4  A    between atoms: N2_18  and  C14_19 
ROOT
HETATM    1  C6  UNL     1      23.773   3.691  50.537  1.00  0.00     0.078 A 
HETATM    2  C7  UNL     1      23.322   3.427  49.283  1.00  0.00     0.045 A 
HETATM    3  C8  UNL     1      22.598   2.299  48.979  1.00  0.00    -0.041 A 
HETATM    4  C10 UNL     1      22.308   1.383  49.990  1.00  0.00     0.017 A 
HETATM    5  C11 UNL     1      22.739   1.582  51.321  1.00  0.00    -0.032 A 
HETATM    6  C12 UNL     1      23.469   2.761  51.514  1.00  0.00     0.002 A 
HETATM    7  C13 UNL     1      23.838   2.640  52.979  1.00  0.00     0.185 C 
HETATM    8  N2  UNL     1      24.366   1.286  53.130  1.00  0.00    -0.308 N 
HETATM    9  N3  UNL     1      23.394   0.300  53.224  1.00  0.00    -0.233 NA
HETATM   10  C20 UNL     1      22.334   0.549  52.300  1.00  0.00     0.149 C 
HETATM   11  H19 UNL     1      23.018   0.290  54.195  1.00  0.00     0.147 HD
ENDROOT
BRANCH   1  12
HETATM   12  O2  UNL     1      24.493   4.667  51.203  1.00  0.00    -0.345 OA
BRANCH  12  13
HETATM   13  C5  UNL     1      24.081   5.999  51.388  1.00  0.00     0.132 C 
HETATM   14  C4  UNL     1      24.892   6.958  50.526  1.00  0.00     0.052 C 
HETATM   15  C3  UNL     1      24.388   7.072  49.126  1.00  0.00     0.128 C 
HETATM   16  N1  UNL     1      22.974   7.309  49.024  1.00  0.00    -0.352 N 
HETATM   17  C2  UNL     1      22.634   7.327  47.656  1.00  0.00     0.215 C 
HETATM   18  C22 UNL     1      22.345   7.454  50.336  1.00  0.00     0.128 C 
HETATM   19  C1  UNL     1      21.344   7.516  46.960  1.00  0.00     0.117 C 
HETATM   20  O1  UNL     1      23.719   7.135  47.023  1.00  0.00    -0.274 OA
HETATM   21  C21 UNL     1      22.637   6.140  51.052  1.00  0.00     0.052 C 
ENDBRANCH  12  13
ENDBRANCH   1  12
BRANCH   3  22
HETATM   22  C9  UNL     1      22.208   2.192  47.550  1.00  0.00     0.153 C 
HETATM   23 CL1  UNL     1      22.099   3.831  46.868  1.00  0.00    -0.126 Cl
ENDBRANCH   3  22
BRANCH   8  24
HETATM   24  C14 UNL     1      25.751   0.966  53.164  1.00  0.00     0.049 A 
HETATM   25  C15 UNL     1      26.281  -0.259  52.933  1.00  0.00     0.031 A 
HETATM   26  C16 UNL     1      27.644  -0.548  52.977  1.00  0.00     0.005 A 
HETATM   27  C17 UNL     1      28.496   0.501  53.279  1.00  0.00     0.042 A 
HETATM   28  C18 UNL     1      28.008   1.778  53.523  1.00  0.00     0.118 A 
HETATM   29  F1  UNL     1      28.794   2.858  53.826  1.00  0.00    -0.206 F 
HETATM   30  C19 UNL     1      26.635   1.988  53.459  1.00  0.00     0.072 A 
ENDBRANCH   8  24
TORSDOF 4
ENDMDL
MODEL 7
REMARK VINA RESULT:      -7.8      2.701      3.874
REMARK  4 active torsions:
REMARK  status: ('A' for Active; 'I' for Inactive)
REMARK       I    between atoms: C2_2  and  N1_4 
REMARK    1  A    between atoms: C5_7  and  O2_8 
REMARK    2  A    between atoms: O2_8  and  C6_9 
REMARK    3  A    between atoms: C8_11  and  C9_12 
REMARK    4  A    between atoms: N2_18  and  C14_19 
ROOT
HETATM    1  C6  UNL     1      23.570   2.226  50.719  1.00  0.00     0.078 A 
HETATM    2  C7  UNL     1      24.063   1.260  51.536  1.00  0.00     0.045 A 
HETATM    3  C8  UNL     1      24.480   1.518  52.820  1.00  0.00    -0.041 A 
HETATM    4  C10 UNL     1      24.397   2.821  53.314  1.00  0.00     0.017 A 
HETATM    5  C11 UNL     1      23.896   3.884  52.529  1.00  0.00    -0.032 A 
HETATM    6  C12 UNL     1      23.503   3.505  51.240  1.00  0.00     0.002 A 
HETATM    7  C13 UNL     1      23.102   4.843  50.651  1.00  0.00     0.185 C 
HETATM    8  N2  UNL     1      24.206   5.747  50.967  1.00  0.00    -0.308 N 
HETATM    9  N3  UNL     1      24.192   6.237  52.265  1.00  0.00    -0.233 NA
HETATM   10  C20 UNL     1      23.832   5.207  53.187  1.00  0.00     0.149 C 
HETATM   11  H19 UNL     1      23.503   7.016  52.323  1.00  0.00     0.147 HD
ENDROOT
BRANCH   1  12
HETATM   12  O2  UNL     1      23.073   2.352  49.433  1.00  0.00    -0.345 OA
BRANCH  12  13
HETATM   13  C5  UNL     1      21.936   1.692  48.932  1.00  0.00     0.132 C 
HETATM   14  C4  UNL     1      21.196   0.943  50.032  1.00  0.00     0.052 C 
HETATM   15  C3  UNL     1      20.262   1.805  50.815  1.00  0.00     0.128 C 
HETATM   16  N1  UNL     1      19.380   2.606  50.011  1.00  0.00    -0.352 N 
HETATM   17  C2  UNL     1      18.611   3.408  50.878  1.00  0.00     0.215 C 
HETATM   18  C22 UNL     1      19.550   2.343  48.583  1.00  0.00     0.128 C 
HETATM   19  C1  UNL     1      17.563   4.418  50.620  1.00  0.00     0.117 C 
HETATM   20  O1  UNL     1      18.984   3.111  52.056  1.00  0.00    -0.274 OA
HETATM   21  C21 UNL     1      21.012   2.675  48.300  1.00  0.00     0.052 C 
ENDBRANCH  12  13
ENDBRANCH   1  12
BRANCH   3  22
HETATM   22  C9  UNL     1      24.995   0.329  53.545  1.00  0.00     0.153 C 
HETATM   23 CL1  UNL     1      26.404  -0.305  52.664  1.00  0.00    -0.126 Cl
ENDBRANCH   3  22
BRANCH   8  24
HETATM   24  C14 UNL     1      25.236   6.102  50.053  1.00  0.00     0.049 A 
HETATM   25  C15 UNL     1      25.458   7.345  49.564  1.00  0.00     0.031 A 
HETATM   26  C16 UNL     1      26.474   7.667  48.664  1.00  0.00     0.005 A 
HETATM   27  C17 UNL     1      27.300   6.633  48.257  1.00  0.00     0.042 A 
HETATM   28  C18 UNL     1      27.118   5.339  48.728  1.00  0.00     0.118 A 
HETATM   29  F1  UNL     1      27.898   4.272  48.367  1.00  0.00    -0.206 F 
HETATM   30  C19 UNL     1      26.084   5.097  49.625  1.00  0.00     0.072 A 
ENDBRANCH   8  24
TORSDOF 4
ENDMDL
MODEL 8
REMARK VINA RESULT:      -7.6      8.359     11.576
REMARK  4 active torsions:
REMARK  status: ('A' for Active; 'I' for Inactive)
REMARK       I    between atoms: C2_2  and  N1_4 
REMARK    1  A    between atoms: C5_7  and  O2_8 
REMARK    2  A    between atoms: O2_8  and  C6_9 
REMARK    3  A    between atoms: C8_11  and  C9_12 
REMARK    4  A    between atoms: N2_18  and  C14_19 
ROOT
HETATM    1  C6  UNL     1      28.804   6.531  47.593  1.00  0.00     0.078 A 
HETATM    2  C7  UNL     1      28.061   5.772  48.440  1.00  0.00     0.045 A 
HETATM    3  C8  UNL     1      26.738   6.034  48.702  1.00  0.00    -0.041 A 
HETATM    4  C10 UNL     1      26.122   7.120  48.078  1.00  0.00     0.017 A 
HETATM    5  C11 UNL     1      26.823   7.960  47.184  1.00  0.00    -0.032 A 
HETATM    6  C12 UNL     1      28.163   7.599  46.994  1.00  0.00     0.002 A 
HETATM    7  C13 UNL     1      28.636   8.707  46.074  1.00  0.00     0.185 C 
HETATM    8  N2  UNL     1      28.175   9.946  46.697  1.00  0.00    -0.308 N 
HETATM    9  N3  UNL     1      26.837  10.237  46.470  1.00  0.00    -0.233 NA
HETATM   10  C20 UNL     1      26.042   9.054  46.567  1.00  0.00     0.149 C 
HETATM   11  H19 UNL     1      26.739  10.648  45.518  1.00  0.00     0.147 HD
ENDROOT
BRANCH   1  12
HETATM   12  O2  UNL     1      30.095   6.582  47.098  1.00  0.00    -0.345 OA
BRANCH  12  13
HETATM   13  C5  UNL     1      31.259   6.729  47.873  1.00  0.00     0.132 C 
HETATM   14  C4  UNL     1      31.560   5.467  48.670  1.00  0.00     0.052 C 
HETATM   15  C3  UNL     1      32.297   4.430  47.890  1.00  0.00     0.128 C 
HETATM   16  N1  UNL     1      33.453   4.924  47.192  1.00  0.00    -0.352 N 
HETATM   17  C2  UNL     1      34.002   3.857  46.453  1.00  0.00     0.215 C 
HETATM   18  C22 UNL     1      33.693   6.341  47.462  1.00  0.00     0.128 C 
HETATM   19  C1  UNL     1      35.173   3.778  45.554  1.00  0.00     0.117 C 
HETATM   20  O1  UNL     1      33.267   2.849  46.692  1.00  0.00    -0.274 OA
HETATM   21  C21 UNL     1      32.421   7.043  46.996  1.00  0.00     0.052 C 
ENDBRANCH  12  13
ENDBRANCH   1  12
BRANCH   3  22
HETATM   22  C9  UNL     1      26.108   5.093  49.662  1.00  0.00     0.153 C 
HETATM   23 CL1  UNL     1      26.716   3.455  49.332  1.00  0.00    -0.126 Cl
ENDBRANCH   3  22
BRANCH   8  24
HETATM   24  C14 UNL     1      28.993  10.797  47.489  1.00  0.00     0.049 A 
HETATM   25  C15 UNL     1      29.860  10.387  48.445  1.00  0.00     0.031 A 
HETATM   26  C16 UNL     1      30.649  11.244  49.212  1.00  0.00     0.005 A 
HETATM   27  C17 UNL     1      30.522  12.600  48.964  1.00  0.00     0.042 A 
HETATM   28  C18 UNL     1      29.650  13.076  47.993  1.00  0.00     0.118 A 
HETATM   29  F1  UNL     1      29.478  14.402  47.697  1.00  0.00    -0.206 F 
HETATM   30  C19 UNL     1      28.898  12.159  47.268  1.00  0.00     0.072 A 
ENDBRANCH   8  24
TORSDOF 4
ENDMDL
MODEL 9
REMARK VINA RESULT:      -7.4      9.136     11.431
REMARK  4 active torsions:
REMARK  status: ('A' for Active; 'I' for Inactive)
REMARK       I    between atoms: C2_2  and  N1_4 
REMARK    1  A    between atoms: C5_7  and  O2_8 
REMARK    2  A    between atoms: O2_8  and  C6_9 
REMARK    3  A    between atoms: C8_11  and  C9_12 
REMARK    4  A    between atoms: N2_18  and  C14_19 
ROOT
HETATM    1  C6  UNL     1      31.638   5.539  48.080  1.00  0.00     0.078 A 
HETATM    2  C7  UNL     1      31.861   4.313  47.540  1.00  0.00     0.045 A 
HETATM    3  C8  UNL     1      33.121   3.778  47.412  1.00  0.00    -0.041 A 
HETATM    4  C10 UNL     1      34.221   4.516  47.849  1.00  0.00     0.017 A 
HETATM    5  C11 UNL     1      34.076   5.800  48.422  1.00  0.00    -0.032 A 
HETATM    6  C12 UNL     1      32.751   6.243  48.501  1.00  0.00     0.002 A 
HETATM    7  C13 UNL     1      32.941   7.635  49.069  1.00  0.00     0.185 C 
HETATM    8  N2  UNL     1      33.988   8.243  48.250  1.00  0.00    -0.308 N 
HETATM    9  N3  UNL     1      35.277   7.856  48.587  1.00  0.00    -0.233 NA
HETATM   10  C20 UNL     1      35.322   6.457  48.874  1.00  0.00     0.149 C 
HETATM   11  H19 UNL     1      35.582   8.396  49.424  1.00  0.00     0.147 HD
ENDROOT
BRANCH   1  12
HETATM   12  O2  UNL     1      30.573   6.375  48.367  1.00  0.00    -0.345 OA
BRANCH  12  13
HETATM   13  C5  UNL     1      29.571   6.758  47.457  1.00  0.00     0.132 C 
HETATM   14  C4  UNL     1      28.204   6.818  48.128  1.00  0.00     0.052 C 
HETATM   15  C3  UNL     1      27.947   8.102  48.842  1.00  0.00     0.128 C 
HETATM   16  N1  UNL     1      28.225   9.279  48.065  1.00  0.00    -0.352 N 
HETATM   17  C2  UNL     1      28.002  10.404  48.884  1.00  0.00     0.215 C 
HETATM   18  C22 UNL     1      28.641   8.950  46.702  1.00  0.00     0.128 C 
HETATM   19  C1  UNL     1      28.134  11.854  48.630  1.00  0.00     0.117 C 
HETATM   20  O1  UNL     1      27.625   9.949  50.009  1.00  0.00    -0.274 OA
HETATM   21  C21 UNL     1      29.890   8.092  46.876  1.00  0.00     0.052 C 
ENDBRANCH  12  13
ENDBRANCH   1  12
BRANCH   3  22
HETATM   22  C9  UNL     1      33.151   2.431  46.789  1.00  0.00     0.153 C 
HETATM   23 CL1  UNL     1      31.479   1.913  46.476  1.00  0.00    -0.126 Cl
ENDBRANCH   3  22
BRANCH   8  24
HETATM   24  C14 UNL     1      33.743   9.145  47.178  1.00  0.00     0.049 A 
HETATM   25  C15 UNL     1      34.363   9.122  45.974  1.00  0.00     0.031 A 
HETATM   26  C16 UNL     1      34.106  10.022  44.940  1.00  0.00     0.005 A 
HETATM   27  C17 UNL     1      33.151  10.996  45.180  1.00  0.00     0.042 A 
HETATM   28  C18 UNL     1      32.483  11.064  46.396  1.00  0.00     0.118 A 
HETATM   29  F1  UNL     1      31.529  11.999  46.698  1.00  0.00    -0.206 F 
HETATM   30  C19 UNL     1      32.792  10.130  47.378  1.00  0.00     0.072 A 
ENDBRANCH   8  24
TORSDOF 4
ENDMDL
