MODEL 1
REMARK VINA RESULT:      -8.3      0.000      0.000
REMARK  3 active torsions:
REMARK  status: ('A' for Active; 'I' for Inactive)
REMARK    1  A    between atoms: C2_2  and  N1_3 
REMARK    2  A    between atoms: N1_3  and  O1_4 
REMARK    3  A    between atoms: N1_3  and  C4_6 
ROOT
HETATM    1  C4  UNL     1      25.648  -0.014  53.383  1.00  0.00     0.075 C 
HETATM    2  C5  UNL     1      24.667  -0.687  54.001  1.00  0.00     0.048 C 
HETATM    3  C6  UNL     1      23.224  -0.547  53.896  1.00  0.00     0.010 A 
HETATM    4  C7  UNL     1      22.481  -1.182  54.857  1.00  0.00     0.130 A 
HETATM    5  N2  UNL     1      21.129  -1.130  54.870  1.00  0.00    -0.272 NA
HETATM    6  C8  UNL     1      20.469  -0.430  53.909  1.00  0.00     0.118 A 
HETATM    7  C9  UNL     1      21.174   0.230  52.915  1.00  0.00     0.049 A 
HETATM    8  C10 UNL     1      22.572   0.175  52.902  1.00  0.00     0.045 A 
HETATM    9  N3  UNL     1      23.080   0.924  51.794  1.00  0.00    -0.355 N 
HETATM   10  C11 UNL     1      24.388   1.467  51.726  1.00  0.00     0.046 A 
HETATM   11  C12 UNL     1      24.442   2.527  50.831  1.00  0.00     0.049 A 
HETATM   12  C13 UNL     1      25.665   3.156  50.663  1.00  0.00     0.013 A 
HETATM   13 BR1  UNL     1      25.791   4.626  49.439  1.00  0.00    -0.051 Br
HETATM   14  C14 UNL     1      26.778   2.739  51.361  1.00  0.00     0.020 A 
HETATM   15  C15 UNL     1      26.739   1.682  52.257  1.00  0.00     0.017 A 
HETATM   16  C16 UNL     1      25.514   1.066  52.414  1.00  0.00     0.020 A 
HETATM   17  H11 UNL     1      22.455   1.080  50.990  1.00  0.00     0.166 HD
ENDROOT
BRANCH   1  18
HETATM   18  N1  UNL     1      26.947  -0.468  53.773  1.00  0.00    -0.237 N 
BRANCH  18  19
HETATM   19  C2  UNL     1      27.880  -1.226  53.009  1.00  0.00     0.097 C 
HETATM   20  C1  UNL     1      27.440  -2.391  52.564  1.00  0.00     0.052 C 
ENDBRANCH  18  19
BRANCH  18  21
HETATM   21  O1  UNL     1      27.687  -0.351  54.903  1.00  0.00    -0.279 OA
HETATM   22  C3  UNL     1      28.922   0.191  54.536  1.00  0.00     0.238 C 
ENDBRANCH  18  21
ENDBRANCH   1  18
TORSDOF 3
ENDMDL
MODEL 2
REMARK VINA RESULT:      -7.8      2.481      4.799
REMARK  3 active torsions:
REMARK  status: ('A' for Active; 'I' for Inactive)
REMARK    1  A    between atoms: C2_2  and  N1_3 
REMARK    2  A    between atoms: N1_3  and  O1_4 
REMARK    3  A    between atoms: N1_3  and  C4_6 
ROOT
HETATM    1  C4  UNL     1      25.814   0.791  52.802  1.00  0.00     0.075 C 
HETATM    2  C5  UNL     1      26.445   1.673  52.013  1.00  0.00     0.048 C 
HETATM    3  C6  UNL     1      25.908   2.685  51.119  1.00  0.00     0.010 A 
HETATM    4  C7  UNL     1      26.792   3.244  50.234  1.00  0.00     0.130 A 
HETATM    5  N2  UNL     1      26.417   4.197  49.350  1.00  0.00    -0.272 NA
HETATM    6  C8  UNL     1      25.127   4.624  49.322  1.00  0.00     0.118 A 
HETATM    7  C9  UNL     1      24.193   4.089  50.194  1.00  0.00     0.049 A 
HETATM    8  C10 UNL     1      24.583   3.105  51.109  1.00  0.00     0.045 A 
HETATM    9  N3  UNL     1      23.461   2.704  51.901  1.00  0.00    -0.355 N 
HETATM   10  C11 UNL     1      23.358   1.458  52.573  1.00  0.00     0.046 A 
HETATM   11  C12 UNL     1      22.031   1.133  52.817  1.00  0.00     0.049 A 
HETATM   12  C13 UNL     1      21.779  -0.064  53.470  1.00  0.00     0.013 A 
HETATM   13 BR1  UNL     1      19.963  -0.560  53.830  1.00  0.00    -0.051 Br
HETATM   14  C14 UNL     1      22.813  -0.889  53.858  1.00  0.00     0.020 A 
HETATM   15  C15 UNL     1      24.142  -0.576  53.621  1.00  0.00     0.017 A 
HETATM   16  C16 UNL     1      24.376   0.618  52.970  1.00  0.00     0.020 A 
HETATM   17  H11 UNL     1      22.674   3.362  51.993  1.00  0.00     0.166 HD
ENDROOT
BRANCH   1  18
HETATM   18  N1  UNL     1      26.724  -0.037  53.530  1.00  0.00    -0.237 N 
BRANCH  18  19
HETATM   19  C2  UNL     1      27.589  -1.049  53.024  1.00  0.00     0.097 C 
HETATM   20  C1  UNL     1      26.998  -2.017  52.344  1.00  0.00     0.052 C 
ENDBRANCH  18  19
BRANCH  18  21
HETATM   21  O1  UNL     1      27.060  -0.145  54.839  1.00  0.00    -0.279 OA
HETATM   22  C3  UNL     1      28.400   0.233  54.957  1.00  0.00     0.238 C 
ENDBRANCH  18  21
ENDBRANCH   1  18
TORSDOF 3
ENDMDL
MODEL 3
REMARK VINA RESULT:      -7.6      2.654      4.342
REMARK  3 active torsions:
REMARK  status: ('A' for Active; 'I' for Inactive)
REMARK    1  A    between atoms: C2_2  and  N1_3 
REMARK    2  A    between atoms: N1_3  and  O1_4 
REMARK    3  A    between atoms: N1_3  and  C4_6 
ROOT
HETATM    1  C4  UNL     1      23.659   1.755  52.041  1.00  0.00     0.075 C 
HETATM    2  C5  UNL     1      22.367   1.476  52.263  1.00  0.00     0.048 C 
HETATM    3  C6  UNL     1      21.756   0.366  52.975  1.00  0.00     0.010 A 
HETATM    4  C7  UNL     1      20.407   0.198  52.796  1.00  0.00     0.130 A 
HETATM    5  N2  UNL     1      19.721  -0.797  53.403  1.00  0.00    -0.272 NA
HETATM    6  C8  UNL     1      20.371  -1.668  54.219  1.00  0.00     0.118 A 
HETATM    7  C9  UNL     1      21.734  -1.542  54.433  1.00  0.00     0.049 A 
HETATM    8  C10 UNL     1      22.443  -0.513  53.805  1.00  0.00     0.045 A 
HETATM    9  N3  UNL     1      23.825  -0.579  54.170  1.00  0.00    -0.355 N 
HETATM   10  C11 UNL     1      24.884  -0.027  53.404  1.00  0.00     0.046 A 
HETATM   11  C12 UNL     1      26.088  -0.651  53.697  1.00  0.00     0.049 A 
HETATM   12  C13 UNL     1      27.214  -0.210  53.018  1.00  0.00     0.013 A 
HETATM   13 BR1  UNL     1      28.902  -1.041  53.386  1.00  0.00    -0.051 Br
HETATM   14  C14 UNL     1      27.130   0.808  52.093  1.00  0.00     0.020 A 
HETATM   15  C15 UNL     1      25.934   1.439  51.792  1.00  0.00     0.017 A 
HETATM   16  C16 UNL     1      24.823   0.990  52.475  1.00  0.00     0.020 A 
HETATM   17  H11 UNL     1      24.070  -1.058  55.048  1.00  0.00     0.166 HD
ENDROOT
BRANCH   1  18
HETATM   18  N1  UNL     1      23.834   2.957  51.288  1.00  0.00    -0.237 N 
BRANCH  18  19
HETATM   19  C2  UNL     1      23.577   3.174  49.904  1.00  0.00     0.097 C 
HETATM   20  C1  UNL     1      24.529   3.807  49.239  1.00  0.00     0.052 C 
ENDBRANCH  18  19
BRANCH  18  21
HETATM   21  O1  UNL     1      24.266   4.206  51.592  1.00  0.00    -0.279 OA
HETATM   22  C3  UNL     1      23.488   4.668  52.657  1.00  0.00     0.238 C 
ENDBRANCH  18  21
ENDBRANCH   1  18
TORSDOF 3
ENDMDL
MODEL 4
REMARK VINA RESULT:      -7.5      3.133      5.994
REMARK  3 active torsions:
REMARK  status: ('A' for Active; 'I' for Inactive)
REMARK    1  A    between atoms: C2_2  and  N1_3 
REMARK    2  A    between atoms: N1_3  and  O1_4 
REMARK    3  A    between atoms: N1_3  and  C4_6 
ROOT
HETATM    1  C4  UNL     1      24.724   2.355  52.033  1.00  0.00     0.075 C 
HETATM    2  C5  UNL     1      26.028   2.551  52.276  1.00  0.00     0.048 C 
HETATM    3  C6  UNL     1      26.938   1.832  53.153  1.00  0.00     0.010 A 
HETATM    4  C7  UNL     1      28.142   2.436  53.405  1.00  0.00     0.130 A 
HETATM    5  N2  UNL     1      29.075   1.870  54.204  1.00  0.00    -0.272 NA
HETATM    6  C8  UNL     1      28.829   0.666  54.786  1.00  0.00     0.118 A 
HETATM    7  C9  UNL     1      27.626   0.015  54.563  1.00  0.00     0.049 A 
HETATM    8  C10 UNL     1      26.662   0.600  53.736  1.00  0.00     0.045 A 
HETATM    9  N3  UNL     1      25.511  -0.245  53.653  1.00  0.00    -0.355 N 
HETATM   10  C11 UNL     1      24.209   0.204  53.312  1.00  0.00     0.046 A 
HETATM   11  C12 UNL     1      23.241  -0.668  53.790  1.00  0.00     0.049 A 
HETATM   12  C13 UNL     1      21.917  -0.353  53.529  1.00  0.00     0.013 A 
HETATM   13 BR1  UNL     1      20.541  -1.524  54.169  1.00  0.00    -0.051 Br
HETATM   14  C14 UNL     1      21.586   0.783  52.822  1.00  0.00     0.020 A 
HETATM   15  C15 UNL     1      22.542   1.662  52.339  1.00  0.00     0.017 A 
HETATM   16  C16 UNL     1      23.856   1.334  52.607  1.00  0.00     0.020 A 
HETATM   17  H11 UNL     1      25.634  -1.248  53.854  1.00  0.00     0.166 HD
ENDROOT
BRANCH   1  18
HETATM   18  N1  UNL     1      24.200   3.294  51.092  1.00  0.00    -0.237 N 
BRANCH  18  19
HETATM   19  C2  UNL     1      24.418   3.347  49.686  1.00  0.00     0.097 C 
HETATM   20  C1  UNL     1      23.429   2.887  48.937  1.00  0.00     0.052 C 
ENDBRANCH  18  19
BRANCH  18  21
HETATM   21  O1  UNL     1      23.381   4.371  51.191  1.00  0.00    -0.279 OA
HETATM   22  C3  UNL     1      24.193   5.509  51.219  1.00  0.00     0.238 C 
ENDBRANCH  18  21
ENDBRANCH   1  18
TORSDOF 3
ENDMDL
MODEL 5
REMARK VINA RESULT:      -7.3      1.350      1.996
REMARK  3 active torsions:
REMARK  status: ('A' for Active; 'I' for Inactive)
REMARK    1  A    between atoms: C2_2  and  N1_3 
REMARK    2  A    between atoms: N1_3  and  O1_4 
REMARK    3  A    between atoms: N1_3  and  C4_6 
ROOT
HETATM    1  C4  UNL     1      25.054   0.837  52.714  1.00  0.00     0.075 C 
HETATM    2  C5  UNL     1      24.442  -0.028  53.536  1.00  0.00     0.048 C 
HETATM    3  C6  UNL     1      23.037  -0.389  53.640  1.00  0.00     0.010 A 
HETATM    4  C7  UNL     1      22.673  -1.091  54.759  1.00  0.00     0.130 A 
HETATM    5  N2  UNL     1      21.397  -1.486  54.974  1.00  0.00    -0.272 NA
HETATM    6  C8  UNL     1      20.433  -1.186  54.064  1.00  0.00     0.118 A 
HETATM    7  C9  UNL     1      20.750  -0.477  52.917  1.00  0.00     0.049 A 
HETATM    8  C10 UNL     1      22.069  -0.070  52.695  1.00  0.00     0.045 A 
HETATM    9  N3  UNL     1      22.159   0.641  51.456  1.00  0.00    -0.355 N 
HETATM   10  C11 UNL     1      23.182   1.570  51.137  1.00  0.00     0.046 A 
HETATM   11  C12 UNL     1      22.765   2.450  50.149  1.00  0.00     0.049 A 
HETATM   12  C13 UNL     1      23.668   3.418  49.736  1.00  0.00     0.013 A 
HETATM   13 BR1  UNL     1      23.139   4.658  48.374  1.00  0.00    -0.051 Br
HETATM   14  C14 UNL     1      24.927   3.494  50.291  1.00  0.00     0.020 A 
HETATM   15  C15 UNL     1      25.356   2.621  51.279  1.00  0.00     0.017 A 
HETATM   16  C16 UNL     1      24.447   1.664  51.679  1.00  0.00     0.020 A 
HETATM   17  H11 UNL     1      21.433   0.467  50.746  1.00  0.00     0.166 HD
ENDROOT
BRANCH   1  18
HETATM   18  N1  UNL     1      26.464   0.896  52.941  1.00  0.00    -0.237 N 
BRANCH  18  19
HETATM   19  C2  UNL     1      27.169   1.683  53.896  1.00  0.00     0.097 C 
HETATM   20  C1  UNL     1      28.250   2.297  53.443  1.00  0.00     0.052 C 
ENDBRANCH  18  19
BRANCH  18  21
HETATM   21  O1  UNL     1      27.537   0.282  52.383  1.00  0.00    -0.279 OA
HETATM   22  C3  UNL     1      27.515  -1.052  52.798  1.00  0.00     0.238 C 
ENDBRANCH  18  21
ENDBRANCH   1  18
TORSDOF 3
ENDMDL
MODEL 6
REMARK VINA RESULT:      -7.1      2.112      4.975
REMARK  3 active torsions:
REMARK  status: ('A' for Active; 'I' for Inactive)
REMARK    1  A    between atoms: C2_2  and  N1_3 
REMARK    2  A    between atoms: N1_3  and  O1_4 
REMARK    3  A    between atoms: N1_3  and  C4_6 
ROOT
HETATM    1  C4  UNL     1      23.889   0.615  53.083  1.00  0.00     0.075 C 
HETATM    2  C5  UNL     1      24.919   0.282  53.874  1.00  0.00     0.048 C 
HETATM    3  C6  UNL     1      26.286   0.776  53.891  1.00  0.00     0.010 A 
HETATM    4  C7  UNL     1      27.185   0.047  54.625  1.00  0.00     0.130 A 
HETATM    5  N2  UNL     1      28.487   0.401  54.722  1.00  0.00    -0.272 NA
HETATM    6  C8  UNL     1      28.937   1.510  54.076  1.00  0.00     0.118 A 
HETATM    7  C9  UNL     1      28.068   2.280  53.319  1.00  0.00     0.049 A 
HETATM    8  C10 UNL     1      26.722   1.913  53.221  1.00  0.00     0.045 A 
HETATM    9  N3  UNL     1      26.021   2.847  52.394  1.00  0.00    -0.355 N 
HETATM   10  C11 UNL     1      24.812   2.562  51.709  1.00  0.00     0.046 A 
HETATM   11  C12 UNL     1      24.638   3.416  50.630  1.00  0.00     0.049 A 
HETATM   12  C13 UNL     1      23.493   3.251  49.866  1.00  0.00     0.013 A 
HETATM   13 BR1  UNL     1      23.206   4.405  48.363  1.00  0.00    -0.051 Br
HETATM   14  C14 UNL     1      22.570   2.275  50.176  1.00  0.00     0.020 A 
HETATM   15  C15 UNL     1      22.732   1.416  51.251  1.00  0.00     0.017 A 
HETATM   16  C16 UNL     1      23.876   1.592  52.002  1.00  0.00     0.020 A 
HETATM   17  H11 UNL     1      26.419   3.792  52.288  1.00  0.00     0.166 HD
ENDROOT
BRANCH   1  18
HETATM   18  N1  UNL     1      22.701  -0.114  53.402  1.00  0.00    -0.237 N 
BRANCH  18  19
HETATM   19  C2  UNL     1      21.633   0.274  54.259  1.00  0.00     0.097 C 
HETATM   20  C1  UNL     1      20.607   0.859  53.662  1.00  0.00     0.052 C 
ENDBRANCH  18  19
BRANCH  18  21
HETATM   21  O1  UNL     1      22.211  -1.325  53.036  1.00  0.00    -0.279 OA
HETATM   22  C3  UNL     1      21.908  -2.022  54.208  1.00  0.00     0.238 C 
ENDBRANCH  18  21
ENDBRANCH   1  18
TORSDOF 3
ENDMDL
MODEL 7
REMARK VINA RESULT:      -7.0      2.608      5.108
REMARK  3 active torsions:
REMARK  status: ('A' for Active; 'I' for Inactive)
REMARK    1  A    between atoms: C2_2  and  N1_3 
REMARK    2  A    between atoms: N1_3  and  O1_4 
REMARK    3  A    between atoms: N1_3  and  C4_6 
ROOT
HETATM    1  C4  UNL     1      23.653   1.874  51.353  1.00  0.00     0.075 C 
HETATM    2  C5  UNL     1      24.046   0.852  52.128  1.00  0.00     0.048 C 
HETATM    3  C6  UNL     1      25.378   0.456  52.554  1.00  0.00     0.010 A 
HETATM    4  C7  UNL     1      25.491  -0.791  53.112  1.00  0.00     0.130 A 
HETATM    5  N2  UNL     1      26.675  -1.277  53.548  1.00  0.00    -0.272 NA
HETATM    6  C8  UNL     1      27.800  -0.521  53.438  1.00  0.00     0.118 A 
HETATM    7  C9  UNL     1      27.739   0.746  52.880  1.00  0.00     0.049 A 
HETATM    8  C10 UNL     1      26.514   1.248  52.430  1.00  0.00     0.045 A 
HETATM    9  N3  UNL     1      26.692   2.564  51.897  1.00  0.00    -0.355 N 
HETATM   10  C11 UNL     1      25.817   3.176  50.962  1.00  0.00     0.046 A 
HETATM   11  C12 UNL     1      26.465   4.179  50.257  1.00  0.00     0.049 A 
HETATM   12  C13 UNL     1      25.728   4.866  49.305  1.00  0.00     0.013 A 
HETATM   13 BR1  UNL     1      26.578   6.261  48.302  1.00  0.00    -0.051 Br
HETATM   14  C14 UNL     1      24.404   4.556  49.076  1.00  0.00     0.020 A 
HETATM   15  C15 UNL     1      23.745   3.557  49.774  1.00  0.00     0.017 A 
HETATM   16  C16 UNL     1      24.492   2.883  50.718  1.00  0.00     0.020 A 
HETATM   17  H11 UNL     1      27.509   3.106  52.212  1.00  0.00     0.166 HD
ENDROOT
BRANCH   1  18
HETATM   18  N1  UNL     1      22.235   1.909  51.178  1.00  0.00    -0.237 N 
BRANCH  18  19
HETATM   19  C2  UNL     1      21.397   0.923  50.582  1.00  0.00     0.097 C 
HETATM   20  C1  UNL     1      21.414   0.883  49.260  1.00  0.00     0.052 C 
ENDBRANCH  18  19
BRANCH  18  21
HETATM   21  O1  UNL     1      21.268   2.808  51.487  1.00  0.00    -0.279 OA
HETATM   22  C3  UNL     1      20.587   2.319  52.605  1.00  0.00     0.238 C 
ENDBRANCH  18  21
ENDBRANCH   1  18
TORSDOF 3
ENDMDL
MODEL 8
REMARK VINA RESULT:      -7.0      2.832      4.646
REMARK  3 active torsions:
REMARK  status: ('A' for Active; 'I' for Inactive)
REMARK    1  A    between atoms: C2_2  and  N1_3 
REMARK    2  A    between atoms: N1_3  and  O1_4 
REMARK    3  A    between atoms: N1_3  and  C4_6 
ROOT
HETATM    1  C4  UNL     1      23.276   1.777  51.658  1.00  0.00     0.075 C 
HETATM    2  C5  UNL     1      21.978   1.507  51.857  1.00  0.00     0.048 C 
HETATM    3  C6  UNL     1      21.348   0.444  52.624  1.00  0.00     0.010 A 
HETATM    4  C7  UNL     1      20.007   0.257  52.415  1.00  0.00     0.130 A 
HETATM    5  N2  UNL     1      19.305  -0.697  53.067  1.00  0.00    -0.272 NA
HETATM    6  C8  UNL     1      19.932  -1.507  53.961  1.00  0.00     0.118 A 
HETATM    7  C9  UNL     1      21.287  -1.359  54.208  1.00  0.00     0.049 A 
HETATM    8  C10 UNL     1      22.012  -0.371  53.534  1.00  0.00     0.045 A 
HETATM    9  N3  UNL     1      23.382  -0.404  53.946  1.00  0.00    -0.355 N 
HETATM   10  C11 UNL     1      24.463   0.100  53.177  1.00  0.00     0.046 A 
HETATM   11  C12 UNL     1      25.659  -0.496  53.550  1.00  0.00     0.049 A 
HETATM   12  C13 UNL     1      26.805  -0.097  52.878  1.00  0.00     0.013 A 
HETATM   13 BR1  UNL     1      28.483  -0.891  53.355  1.00  0.00    -0.051 Br
HETATM   14  C14 UNL     1      26.746   0.855  51.883  1.00  0.00     0.020 A 
HETATM   15  C15 UNL     1      25.559   1.458  51.502  1.00  0.00     0.017 A 
HETATM   16  C16 UNL     1      24.428   1.050  52.179  1.00  0.00     0.020 A 
HETATM   17  H11 UNL     1      23.601  -0.821  54.862  1.00  0.00     0.166 HD
ENDROOT
BRANCH   1  18
HETATM   18  N1  UNL     1      23.471   2.926  50.830  1.00  0.00    -0.237 N 
BRANCH  18  19
HETATM   19  C2  UNL     1      23.418   4.299  51.204  1.00  0.00     0.097 C 
HETATM   20  C1  UNL     1      24.430   5.043  50.789  1.00  0.00     0.052 C 
ENDBRANCH  18  19
BRANCH  18  21
HETATM   21  O1  UNL     1      23.751   3.105  49.515  1.00  0.00    -0.279 OA
HETATM   22  C3  UNL     1      22.775   2.419  48.785  1.00  0.00     0.238 C 
ENDBRANCH  18  21
ENDBRANCH   1  18
TORSDOF 3
ENDMDL
MODEL 9
REMARK VINA RESULT:      -6.9      2.694      5.330
REMARK  3 active torsions:
REMARK  status: ('A' for Active; 'I' for Inactive)
REMARK    1  A    between atoms: C2_2  and  N1_3 
REMARK    2  A    between atoms: N1_3  and  O1_4 
REMARK    3  A    between atoms: N1_3  and  C4_6 
ROOT
HETATM    1  C4  UNL     1      22.626   1.112  52.611  1.00  0.00     0.075 C 
HETATM    2  C5  UNL     1      23.560   0.275  53.086  1.00  0.00     0.048 C 
HETATM    3  C6  UNL     1      24.963   0.508  53.386  1.00  0.00     0.010 A 
HETATM    4  C7  UNL     1      25.733  -0.607  53.592  1.00  0.00     0.130 A 
HETATM    5  N2  UNL     1      27.052  -0.525  53.879  1.00  0.00    -0.272 NA
HETATM    6  C8  UNL     1      27.651   0.692  53.970  1.00  0.00     0.118 A 
HETATM    7  C9  UNL     1      26.917   1.850  53.770  1.00  0.00     0.049 A 
HETATM    8  C10 UNL     1      25.553   1.764  53.474  1.00  0.00     0.045 A 
HETATM    9  N3  UNL     1      25.006   3.076  53.309  1.00  0.00    -0.355 N 
HETATM   10  C11 UNL     1      23.828   3.367  52.573  1.00  0.00     0.046 A 
HETATM   11  C12 UNL     1      23.815   4.691  52.158  1.00  0.00     0.049 A 
HETATM   12  C13 UNL     1      22.718   5.117  51.425  1.00  0.00     0.013 A 
HETATM   13 BR1  UNL     1      22.652   6.937  50.827  1.00  0.00    -0.051 Br
HETATM   14  C14 UNL     1      21.687   4.252  51.127  1.00  0.00     0.020 A 
HETATM   15  C15 UNL     1      21.687   2.928  51.536  1.00  0.00     0.017 A 
HETATM   16  C16 UNL     1      22.785   2.519  52.264  1.00  0.00     0.020 A 
HETATM   17  H11 UNL     1      25.498   3.864  53.754  1.00  0.00     0.166 HD
ENDROOT
BRANCH   1  18
HETATM   18  N1  UNL     1      21.355   0.477  52.456  1.00  0.00    -0.237 N 
BRANCH  18  19
HETATM   19  C2  UNL     1      20.336   0.299  53.434  1.00  0.00     0.097 C 
HETATM   20  C1  UNL     1      20.753   0.229  54.688  1.00  0.00     0.052 C 
ENDBRANCH  18  19
BRANCH  18  21
HETATM   21  O1  UNL     1      20.723  -0.127  51.420  1.00  0.00    -0.279 OA
HETATM   22  C3  UNL     1      19.375   0.239  51.486  1.00  0.00     0.238 C 
ENDBRANCH  18  21
ENDBRANCH   1  18
TORSDOF 3
ENDMDL
