MODEL 1
REMARK VINA RESULT:      -7.6      0.000      0.000
REMARK  6 active torsions:
REMARK  status: ('A' for Active; 'I' for Inactive)
REMARK    1  A    between atoms: C2_2  and  O1_3 
REMARK    2  A    between atoms: O1_3  and  C3_4 
REMARK    3  A    between atoms: C7_10  and  N3_11 
REMARK    4  A    between atoms: C15_22  and  C16_23 
REMARK    5  A    between atoms: C16_23  and  C17_24 
REMARK    6  A    between atoms: C16_23  and  C19_26 
ROOT
HETATM    1  C3  UNL     1      24.125   2.738  51.848  1.00  0.00     0.190 C 
HETATM    2  C4  UNL     1      23.336   2.291  50.687  1.00  0.00     0.048 A 
HETATM    3  C5  UNL     1      22.263   1.423  50.605  1.00  0.00     0.072 A 
HETATM    4  N1  UNL     1      21.665   1.115  49.435  1.00  0.00    -0.241 NA
HETATM    5  C6  UNL     1      22.144   1.684  48.315  1.00  0.00     0.235 A 
HETATM    6  N2  UNL     1      23.182   2.531  48.354  1.00  0.00    -0.223 NA
HETATM    7  C7  UNL     1      23.803   2.858  49.521  1.00  0.00     0.144 A 
HETATM    8  C13 UNL     1      21.608   0.708  51.698  1.00  0.00     0.056 C 
HETATM    9  C14 UNL     1      22.128   0.561  52.909  1.00  0.00     0.137 C 
HETATM   10  O2  UNL     1      23.338   1.012  53.411  1.00  0.00    -0.354 OA
HETATM   11  C15 UNL     1      24.464   1.552  52.770  1.00  0.00     0.165 C 
ENDROOT
BRANCH   7  12
HETATM   12  N3  UNL     1      24.845   3.791  49.284  1.00  0.00    -0.304 N 
HETATM   13  C8  UNL     1      26.296   3.741  49.326  1.00  0.00     0.162 A 
HETATM   14  C9  UNL     1      26.888   5.051  49.004  1.00  0.00     0.012 A 
HETATM   15  C10 UNL     1      26.341   6.211  48.684  1.00  0.00     0.013 A 
HETATM   16 BR1  UNL     1      27.367   7.773  48.310  1.00  0.00    -0.051 Br
HETATM   17  C11 UNL     1      24.883   6.177  48.653  1.00  0.00     0.080 A 
HETATM   18  C12 UNL     1      24.223   5.053  48.932  1.00  0.00     0.193 A 
HETATM   19  F1  UNL     1      22.871   5.303  48.830  1.00  0.00    -0.186 F 
ENDBRANCH   7  12
BRANCH   1  20
HETATM   20  O1  UNL     1      23.273   3.446  52.664  1.00  0.00    -0.379 OA
BRANCH  20  21
HETATM   21  C2  UNL     1      23.154   4.777  52.547  1.00  0.00     0.164 C 
HETATM   22  C1  UNL     1      21.868   5.270  51.885  1.00  0.00     0.033 C 
ENDBRANCH  20  21
ENDBRANCH   1  20
BRANCH  11  23
HETATM   23  C16 UNL     1      25.422   0.582  52.248  1.00  0.00     0.017 C 
BRANCH  23  24
HETATM   24  C17 UNL     1      25.626  -0.583  53.214  1.00  0.00     0.002 C 
HETATM   25  C18 UNL     1      26.620  -1.521  52.530  1.00  0.00     0.005 C 
ENDBRANCH  23  24
BRANCH  23  26
HETATM   26  C19 UNL     1      26.730   1.014  51.723  1.00  0.00     0.002 C 
HETATM   27  C20 UNL     1      27.442   2.002  52.666  1.00  0.00     0.005 C 
ENDBRANCH  23  26
ENDBRANCH  11  23
TORSDOF 6
ENDMDL
MODEL 2
REMARK VINA RESULT:      -6.7      3.132      5.772
REMARK  6 active torsions:
REMARK  status: ('A' for Active; 'I' for Inactive)
REMARK    1  A    between atoms: C2_2  and  O1_3 
REMARK    2  A    between atoms: O1_3  and  C3_4 
REMARK    3  A    between atoms: C7_10  and  N3_11 
REMARK    4  A    between atoms: C15_22  and  C16_23 
REMARK    5  A    between atoms: C16_23  and  C17_24 
REMARK    6  A    between atoms: C16_23  and  C19_26 
ROOT
HETATM    1  C3  UNL     1      21.396   4.254  50.568  1.00  0.00     0.190 C 
HETATM    2  C4  UNL     1      22.136   5.527  50.621  1.00  0.00     0.048 A 
HETATM    3  C5  UNL     1      21.777   6.797  50.209  1.00  0.00     0.072 A 
HETATM    4  N1  UNL     1      22.603   7.858  50.324  1.00  0.00    -0.241 NA
HETATM    5  C6  UNL     1      23.818   7.653  50.863  1.00  0.00     0.235 A 
HETATM    6  N2  UNL     1      24.202   6.438  51.274  1.00  0.00    -0.223 NA
HETATM    7  C7  UNL     1      23.387   5.350  51.169  1.00  0.00     0.144 A 
HETATM    8  C13 UNL     1      20.517   7.215  49.601  1.00  0.00     0.056 C 
HETATM    9  C14 UNL     1      19.624   6.380  49.087  1.00  0.00     0.137 C 
HETATM   10  O2  UNL     1      19.657   4.998  48.998  1.00  0.00    -0.354 OA
HETATM   11  C15 UNL     1      20.699   4.080  49.205  1.00  0.00     0.165 C 
ENDROOT
BRANCH   7  12
HETATM   12  N3  UNL     1      24.024   4.200  51.702  1.00  0.00    -0.304 N 
HETATM   13  C8  UNL     1      24.004   3.518  52.983  1.00  0.00     0.162 A 
HETATM   14  C9  UNL     1      24.907   2.353  52.986  1.00  0.00     0.012 A 
HETATM   15  C10 UNL     1      25.689   1.841  52.051  1.00  0.00     0.013 A 
HETATM   16 BR1  UNL     1      26.770   0.298  52.334  1.00  0.00    -0.051 Br
HETATM   17  C11 UNL     1      25.646   2.576  50.792  1.00  0.00     0.080 A 
HETATM   18  C12 UNL     1      24.874   3.654  50.660  1.00  0.00     0.193 A 
HETATM   19  F1  UNL     1      25.025   4.148  49.381  1.00  0.00    -0.186 F 
ENDBRANCH   7  12
BRANCH   1  20
HETATM   20  O1  UNL     1      20.299   4.393  51.387  1.00  0.00    -0.379 OA
BRANCH  20  21
HETATM   21  C2  UNL     1      19.691   3.319  51.911  1.00  0.00     0.164 C 
HETATM   22  C1  UNL     1      20.616   2.261  52.512  1.00  0.00     0.033 C 
ENDBRANCH  20  21
ENDBRANCH   1  20
BRANCH  11  23
HETATM   23  C16 UNL     1      21.572   3.843  48.059  1.00  0.00     0.017 C 
BRANCH  23  24
HETATM   24  C17 UNL     1      20.814   3.971  46.740  1.00  0.00     0.002 C 
HETATM   25  C18 UNL     1      21.872   3.860  45.641  1.00  0.00     0.005 C 
ENDBRANCH  23  24
BRANCH  23  26
HETATM   26  C19 UNL     1      22.448   2.659  48.006  1.00  0.00     0.002 C 
HETATM   27  C20 UNL     1      21.718   1.370  48.427  1.00  0.00     0.005 C 
ENDBRANCH  23  26
ENDBRANCH  11  23
TORSDOF 6
ENDMDL
MODEL 3
REMARK VINA RESULT:      -6.7      3.214      5.354
REMARK  6 active torsions:
REMARK  status: ('A' for Active; 'I' for Inactive)
REMARK    1  A    between atoms: C2_2  and  O1_3 
REMARK    2  A    between atoms: O1_3  and  C3_4 
REMARK    3  A    between atoms: C7_10  and  N3_11 
REMARK    4  A    between atoms: C15_22  and  C16_23 
REMARK    5  A    between atoms: C16_23  and  C17_24 
REMARK    6  A    between atoms: C16_23  and  C19_26 
ROOT
HETATM    1  C3  UNL     1      23.940   3.313  50.011  1.00  0.00     0.190 C 
HETATM    2  C4  UNL     1      24.027   4.763  50.258  1.00  0.00     0.048 A 
HETATM    3  C5  UNL     1      25.038   5.666  49.983  1.00  0.00     0.072 A 
HETATM    4  N1  UNL     1      24.948   6.975  50.299  1.00  0.00    -0.241 NA
HETATM    5  C6  UNL     1      23.825   7.400  50.904  1.00  0.00     0.235 A 
HETATM    6  N2  UNL     1      22.824   6.556  51.186  1.00  0.00    -0.223 NA
HETATM    7  C7  UNL     1      22.890   5.230  50.878  1.00  0.00     0.144 A 
HETATM    8  C13 UNL     1      26.323   5.400  49.342  1.00  0.00     0.056 C 
HETATM    9  C14 UNL     1      26.838   4.188  49.183  1.00  0.00     0.137 C 
HETATM   10  O2  UNL     1      26.329   2.956  49.557  1.00  0.00    -0.354 OA
HETATM   11  C15 UNL     1      25.257   2.611  50.395  1.00  0.00     0.165 C 
ENDROOT
BRANCH   7  12
HETATM   12  N3  UNL     1      21.691   4.573  51.258  1.00  0.00    -0.304 N 
HETATM   13  C8  UNL     1      21.286   3.744  52.379  1.00  0.00     0.162 A 
HETATM   14  C9  UNL     1      19.888   3.299  52.240  1.00  0.00     0.012 A 
HETATM   15  C10 UNL     1      18.977   3.531  51.311  1.00  0.00     0.013 A 
HETATM   16 BR1  UNL     1      17.213   2.814  51.388  1.00  0.00    -0.051 Br
HETATM   17  C11 UNL     1      19.456   4.379  50.225  1.00  0.00     0.080 A 
HETATM   18  C12 UNL     1      20.706   4.843  50.227  1.00  0.00     0.193 A 
HETATM   19  F1  UNL     1      20.890   5.608  49.095  1.00  0.00    -0.186 F 
ENDBRANCH   7  12
BRANCH   1  20
HETATM   20  O1  UNL     1      23.958   3.136  48.647  1.00  0.00    -0.379 OA
BRANCH  20  21
HETATM   21  C2  UNL     1      22.874   2.685  47.998  1.00  0.00     0.164 C 
HETATM   22  C1  UNL     1      21.998   1.703  48.773  1.00  0.00     0.033 C 
ENDBRANCH  20  21
ENDBRANCH   1  20
BRANCH  11  23
HETATM   23  C16 UNL     1      25.562   2.546  51.821  1.00  0.00     0.017 C 
BRANCH  23  24
HETATM   24  C17 UNL     1      26.769   1.653  52.097  1.00  0.00     0.002 C 
HETATM   25  C18 UNL     1      27.475   2.270  53.304  1.00  0.00     0.005 C 
ENDBRANCH  23  24
BRANCH  23  26
HETATM   26  C19 UNL     1      24.508   2.260  52.810  1.00  0.00     0.002 C 
HETATM   27  C20 UNL     1      24.014   0.802  52.735  1.00  0.00     0.005 C 
ENDBRANCH  23  26
ENDBRANCH  11  23
TORSDOF 6
ENDMDL
MODEL 4
REMARK VINA RESULT:      -6.3      2.650      4.488
REMARK  6 active torsions:
REMARK  status: ('A' for Active; 'I' for Inactive)
REMARK    1  A    between atoms: C2_2  and  O1_3 
REMARK    2  A    between atoms: O1_3  and  C3_4 
REMARK    3  A    between atoms: C7_10  and  N3_11 
REMARK    4  A    between atoms: C15_22  and  C16_23 
REMARK    5  A    between atoms: C16_23  and  C17_24 
REMARK    6  A    between atoms: C16_23  and  C19_26 
ROOT
HETATM    1  C3  UNL     1      21.413   2.861  51.922  1.00  0.00     0.190 C 
HETATM    2  C4  UNL     1      21.573   2.770  50.460  1.00  0.00     0.048 A 
HETATM    3  C5  UNL     1      20.682   3.034  49.437  1.00  0.00     0.072 A 
HETATM    4  N1  UNL     1      21.003   2.879  48.135  1.00  0.00    -0.241 NA
HETATM    5  C6  UNL     1      22.244   2.451  47.841  1.00  0.00     0.235 A 
HETATM    6  N2  UNL     1      23.135   2.185  48.805  1.00  0.00    -0.223 NA
HETATM    7  C7  UNL     1      22.836   2.333  50.125  1.00  0.00     0.144 A 
HETATM    8  C13 UNL     1      19.302   3.498  49.553  1.00  0.00     0.056 C 
HETATM    9  C14 UNL     1      18.597   3.464  50.675  1.00  0.00     0.137 C 
HETATM   10  O2  UNL     1      18.960   3.011  51.933  1.00  0.00    -0.354 OA
HETATM   11  C15 UNL     1      20.065   2.261  52.365  1.00  0.00     0.165 C 
ENDROOT
BRANCH   7  12
HETATM   12  N3  UNL     1      23.962   2.015  50.928  1.00  0.00    -0.304 N 
HETATM   13  C8  UNL     1      24.257   1.001  51.925  1.00  0.00     0.162 A 
HETATM   14  C9  UNL     1      25.617   1.164  52.469  1.00  0.00     0.012 A 
HETATM   15  C10 UNL     1      26.576   2.034  52.202  1.00  0.00     0.013 A 
HETATM   16 BR1  UNL     1      28.270   2.010  53.074  1.00  0.00    -0.051 Br
HETATM   17  C11 UNL     1      26.206   3.011  51.184  1.00  0.00     0.080 A 
HETATM   18  C12 UNL     1      25.001   2.979  50.617  1.00  0.00     0.193 A 
HETATM   19  F1  UNL     1      24.920   4.006  49.700  1.00  0.00    -0.186 F 
ENDBRANCH   7  12
BRANCH   1  20
HETATM   20  O1  UNL     1      21.200   4.187  52.221  1.00  0.00    -0.379 OA
BRANCH  20  21
HETATM   21  C2  UNL     1      22.200   5.078  52.151  1.00  0.00     0.164 C 
HETATM   22  C1  UNL     1      23.392   4.811  53.068  1.00  0.00     0.033 C 
ENDBRANCH  20  21
ENDBRANCH   1  20
BRANCH  11  23
HETATM   23  C16 UNL     1      19.933   0.812  52.245  1.00  0.00     0.017 C 
BRANCH  23  24
HETATM   24  C17 UNL     1      18.490   0.361  52.456  1.00  0.00     0.002 C 
HETATM   25  C18 UNL     1      18.034  -0.214  51.114  1.00  0.00     0.005 C 
ENDBRANCH  23  24
BRANCH  23  26
HETATM   26  C19 UNL     1      20.838  -0.094  52.974  1.00  0.00     0.002 C 
HETATM   27  C20 UNL     1      20.909   0.231  54.478  1.00  0.00     0.005 C 
ENDBRANCH  23  26
ENDBRANCH  11  23
TORSDOF 6
ENDMDL
MODEL 5
REMARK VINA RESULT:      -6.3      2.845      4.568
REMARK  6 active torsions:
REMARK  status: ('A' for Active; 'I' for Inactive)
REMARK    1  A    between atoms: C2_2  and  O1_3 
REMARK    2  A    between atoms: O1_3  and  C3_4 
REMARK    3  A    between atoms: C7_10  and  N3_11 
REMARK    4  A    between atoms: C15_22  and  C16_23 
REMARK    5  A    between atoms: C16_23  and  C17_24 
REMARK    6  A    between atoms: C16_23  and  C19_26 
ROOT
HETATM    1  C3  UNL     1      21.755   3.394  51.967  1.00  0.00     0.190 C 
HETATM    2  C4  UNL     1      21.722   3.063  50.532  1.00  0.00     0.048 A 
HETATM    3  C5  UNL     1      20.690   3.128  49.614  1.00  0.00     0.072 A 
HETATM    4  N1  UNL     1      20.842   2.765  48.323  1.00  0.00    -0.241 NA
HETATM    5  C6  UNL     1      22.051   2.326  47.932  1.00  0.00     0.235 A 
HETATM    6  N2  UNL     1      23.076   2.249  48.791  1.00  0.00    -0.223 NA
HETATM    7  C7  UNL     1      22.949   2.609  50.099  1.00  0.00     0.144 A 
HETATM    8  C13 UNL     1      19.317   3.570  49.845  1.00  0.00     0.056 C 
HETATM    9  C14 UNL     1      18.771   3.706  51.046  1.00  0.00     0.137 C 
HETATM   10  O2  UNL     1      19.321   3.480  52.297  1.00  0.00    -0.354 OA
HETATM   11  C15 UNL     1      20.509   2.842  52.686  1.00  0.00     0.165 C 
ENDROOT
BRANCH   7  12
HETATM   12  N3  UNL     1      24.186   2.459  50.777  1.00  0.00    -0.304 N 
HETATM   13  C8  UNL     1      25.415   3.228  50.852  1.00  0.00     0.162 A 
HETATM   14  C9  UNL     1      26.410   2.567  51.715  1.00  0.00     0.012 A 
HETATM   15  C10 UNL     1      26.367   1.445  52.412  1.00  0.00     0.013 A 
HETATM   16 BR1  UNL     1      27.830   0.819  53.460  1.00  0.00    -0.051 Br
HETATM   17  C11 UNL     1      25.097   0.736  52.293  1.00  0.00     0.080 A 
HETATM   18  C12 UNL     1      24.114   1.224  51.537  1.00  0.00     0.193 A 
HETATM   19  F1  UNL     1      23.041   0.362  51.604  1.00  0.00    -0.186 F 
ENDBRANCH   7  12
BRANCH   1  20
HETATM   20  O1  UNL     1      21.520   4.745  52.074  1.00  0.00    -0.379 OA
BRANCH  20  21
HETATM   21  C2  UNL     1      22.412   5.637  51.620  1.00  0.00     0.164 C 
HETATM   22  C1  UNL     1      21.831   6.824  50.854  1.00  0.00     0.033 C 
ENDBRANCH  20  21
ENDBRANCH   1  20
BRANCH  11  23
HETATM   23  C16 UNL     1      20.433   1.390  52.823  1.00  0.00     0.017 C 
BRANCH  23  24
HETATM   24  C17 UNL     1      19.081   0.853  52.362  1.00  0.00     0.002 C 
HETATM   25  C18 UNL     1      19.349   0.135  51.039  1.00  0.00     0.005 C 
ENDBRANCH  23  24
BRANCH  23  26
HETATM   26  C19 UNL     1      20.817   0.727  54.082  1.00  0.00     0.002 C 
HETATM   27  C20 UNL     1      21.180  -0.756  53.877  1.00  0.00     0.005 C 
ENDBRANCH  23  26
ENDBRANCH  11  23
TORSDOF 6
ENDMDL
MODEL 6
REMARK VINA RESULT:      -6.3      2.121      2.884
REMARK  6 active torsions:
REMARK  status: ('A' for Active; 'I' for Inactive)
REMARK    1  A    between atoms: C2_2  and  O1_3 
REMARK    2  A    between atoms: O1_3  and  C3_4 
REMARK    3  A    between atoms: C7_10  and  N3_11 
REMARK    4  A    between atoms: C15_22  and  C16_23 
REMARK    5  A    between atoms: C16_23  and  C17_24 
REMARK    6  A    between atoms: C16_23  and  C19_26 
ROOT
HETATM    1  C3  UNL     1      22.176   4.416  51.122  1.00  0.00     0.190 C 
HETATM    2  C4  UNL     1      21.635   3.989  49.820  1.00  0.00     0.048 A 
HETATM    3  C5  UNL     1      20.374   3.541  49.470  1.00  0.00     0.072 A 
HETATM    4  N1  UNL     1      20.058   3.174  48.210  1.00  0.00    -0.241 NA
HETATM    5  C6  UNL     1      21.018   3.254  47.272  1.00  0.00     0.235 A 
HETATM    6  N2  UNL     1      22.251   3.682  47.572  1.00  0.00    -0.223 NA
HETATM    7  C7  UNL     1      22.596   4.059  48.835  1.00  0.00     0.144 A 
HETATM    8  C13 UNL     1      19.210   3.382  50.338  1.00  0.00     0.056 C 
HETATM    9  C14 UNL     1      19.266   3.372  51.663  1.00  0.00     0.137 C 
HETATM   10  O2  UNL     1      20.361   3.498  52.502  1.00  0.00    -0.354 OA
HETATM   11  C15 UNL     1      21.739   3.451  52.241  1.00  0.00     0.165 C 
ENDROOT
BRANCH   7  12
HETATM   12  N3  UNL     1      23.945   4.496  48.871  1.00  0.00    -0.304 N 
HETATM   13  C8  UNL     1      25.199   3.920  49.323  1.00  0.00     0.162 A 
HETATM   14  C9  UNL     1      26.319   4.859  49.138  1.00  0.00     0.012 A 
HETATM   15  C10 UNL     1      26.372   6.082  48.638  1.00  0.00     0.013 A 
HETATM   16 BR1  UNL     1      27.988   7.083  48.517  1.00  0.00    -0.051 Br
HETATM   17  C11 UNL     1      25.076   6.585  48.197  1.00  0.00     0.080 A 
HETATM   18  C12 UNL     1      23.980   5.836  48.316  1.00  0.00     0.193 A 
HETATM   19  F1  UNL     1      22.906   6.551  47.828  1.00  0.00    -0.186 F 
ENDBRANCH   7  12
BRANCH   1  20
HETATM   20  O1  UNL     1      21.487   5.547  51.492  1.00  0.00    -0.379 OA
BRANCH  20  21
HETATM   21  C2  UNL     1      21.950   6.767  51.185  1.00  0.00     0.164 C 
HETATM   22  C1  UNL     1      21.023   7.633  50.334  1.00  0.00     0.033 C 
ENDBRANCH  20  21
ENDBRANCH   1  20
BRANCH  11  23
HETATM   23  C16 UNL     1      22.333   2.117  52.212  1.00  0.00     0.017 C 
BRANCH  23  24
HETATM   24  C17 UNL     1      21.276   1.028  52.370  1.00  0.00     0.002 C 
HETATM   25  C18 UNL     1      21.271   0.259  51.048  1.00  0.00     0.005 C 
ENDBRANCH  23  24
BRANCH  23  26
HETATM   26  C19 UNL     1      23.500   1.789  53.050  1.00  0.00     0.002 C 
HETATM   27  C20 UNL     1      24.610   2.854  52.954  1.00  0.00     0.005 C 
ENDBRANCH  23  26
ENDBRANCH  11  23
TORSDOF 6
ENDMDL
MODEL 7
REMARK VINA RESULT:      -6.2      6.153      8.905
REMARK  6 active torsions:
REMARK  status: ('A' for Active; 'I' for Inactive)
REMARK    1  A    between atoms: C2_2  and  O1_3 
REMARK    2  A    between atoms: O1_3  and  C3_4 
REMARK    3  A    between atoms: C7_10  and  N3_11 
REMARK    4  A    between atoms: C15_22  and  C16_23 
REMARK    5  A    between atoms: C16_23  and  C17_24 
REMARK    6  A    between atoms: C16_23  and  C19_26 
ROOT
HETATM    1  C3  UNL     1      28.871   8.231  48.646  1.00  0.00     0.190 C 
HETATM    2  C4  UNL     1      28.944   8.582  47.217  1.00  0.00     0.048 A 
HETATM    3  C5  UNL     1      28.122   9.379  46.440  1.00  0.00     0.072 A 
HETATM    4  N1  UNL     1      28.339   9.578  45.123  1.00  0.00    -0.241 NA
HETATM    5  C6  UNL     1      29.399   8.971  44.561  1.00  0.00     0.235 A 
HETATM    6  N2  UNL     1      30.217   8.192  45.280  1.00  0.00    -0.223 NA
HETATM    7  C7  UNL     1      30.021   7.974  46.611  1.00  0.00     0.144 A 
HETATM    8  C13 UNL     1      26.932  10.112  46.862  1.00  0.00     0.056 C 
HETATM    9  C14 UNL     1      26.288   9.894  48.001  1.00  0.00     0.137 C 
HETATM   10  O2  UNL     1      26.558   8.982  49.008  1.00  0.00    -0.354 OA
HETATM   11  C15 UNL     1      27.426   7.880  49.051  1.00  0.00     0.165 C 
ENDROOT
BRANCH   7  12
HETATM   12  N3  UNL     1      31.043   7.140  47.133  1.00  0.00    -0.304 N 
HETATM   13  C8  UNL     1      31.138   5.737  47.493  1.00  0.00     0.162 A 
HETATM   14  C9  UNL     1      32.472   5.408  48.025  1.00  0.00     0.012 A 
HETATM   15  C10 UNL     1      33.555   6.145  48.208  1.00  0.00     0.013 A 
HETATM   16 BR1  UNL     1      35.175   5.445  48.927  1.00  0.00    -0.051 Br
HETATM   17  C11 UNL     1      33.383   7.538  47.813  1.00  0.00     0.080 A 
HETATM   18  C12 UNL     1      32.220   7.967  47.322  1.00  0.00     0.193 A 
HETATM   19  F1  UNL     1      32.336   9.311  47.035  1.00  0.00    -0.186 F 
ENDBRANCH   7  12
BRANCH   1  20
HETATM   20  O1  UNL     1      29.047   9.397  49.355  1.00  0.00    -0.379 OA
BRANCH  20  21
HETATM   21  C2  UNL     1      30.274   9.892  49.573  1.00  0.00     0.164 C 
HETATM   22  C1  UNL     1      30.523  11.302  49.040  1.00  0.00     0.033 C 
ENDBRANCH  20  21
ENDBRANCH   1  20
BRANCH  11  23
HETATM   23  C16 UNL     1      26.891   6.630  48.518  1.00  0.00     0.017 C 
BRANCH  23  24
HETATM   24  C17 UNL     1      25.519   6.311  49.105  1.00  0.00     0.002 C 
HETATM   25  C18 UNL     1      24.509   6.644  48.007  1.00  0.00     0.005 C 
ENDBRANCH  23  24
BRANCH  23  26
HETATM   26  C19 UNL     1      27.709   5.404  48.495  1.00  0.00     0.002 C 
HETATM   27  C20 UNL     1      26.999   4.212  49.163  1.00  0.00     0.005 C 
ENDBRANCH  23  26
ENDBRANCH  11  23
TORSDOF 6
ENDMDL
MODEL 8
REMARK VINA RESULT:      -6.2      2.346      4.652
REMARK  6 active torsions:
REMARK  status: ('A' for Active; 'I' for Inactive)
REMARK    1  A    between atoms: C2_2  and  O1_3 
REMARK    2  A    between atoms: O1_3  and  C3_4 
REMARK    3  A    between atoms: C7_10  and  N3_11 
REMARK    4  A    between atoms: C15_22  and  C16_23 
REMARK    5  A    between atoms: C16_23  and  C17_24 
REMARK    6  A    between atoms: C16_23  and  C19_26 
ROOT
HETATM    1  C3  UNL     1      22.455   2.916  49.661  1.00  0.00     0.190 C 
HETATM    2  C4  UNL     1      23.109   2.357  50.856  1.00  0.00     0.048 A 
HETATM    3  C5  UNL     1      22.766   1.279  51.652  1.00  0.00     0.072 A 
HETATM    4  N1  UNL     1      23.487   0.916  52.733  1.00  0.00    -0.241 NA
HETATM    5  C6  UNL     1      24.580   1.641  53.032  1.00  0.00     0.235 A 
HETATM    6  N2  UNL     1      24.945   2.691  52.286  1.00  0.00    -0.223 NA
HETATM    7  C7  UNL     1      24.234   3.079  51.190  1.00  0.00     0.144 A 
HETATM    8  C13 UNL     1      21.625   0.381  51.494  1.00  0.00     0.056 C 
HETATM    9  C14 UNL     1      20.577   0.637  50.724  1.00  0.00     0.137 C 
HETATM   10  O2  UNL     1      20.312   1.742  49.930  1.00  0.00    -0.354 OA
HETATM   11  C15 UNL     1      20.929   3.001  49.859  1.00  0.00     0.165 C 
ENDROOT
BRANCH   7  12
HETATM   12  N3  UNL     1      24.851   4.195  50.568  1.00  0.00    -0.304 N 
HETATM   13  C8  UNL     1      24.584   5.621  50.520  1.00  0.00     0.162 A 
HETATM   14  C9  UNL     1      25.565   6.323  49.675  1.00  0.00     0.012 A 
HETATM   15  C10 UNL     1      26.612   5.891  48.993  1.00  0.00     0.013 A 
HETATM   16 BR1  UNL     1      27.729   7.044  47.967  1.00  0.00    -0.051 Br
HETATM   17  C11 UNL     1      26.820   4.451  49.100  1.00  0.00     0.080 A 
HETATM   18  C12 UNL     1      25.997   3.698  49.829  1.00  0.00     0.193 A 
HETATM   19  F1  UNL     1      26.422   2.388  49.755  1.00  0.00    -0.186 F 
ENDBRANCH   7  12
BRANCH   1  20
HETATM   20  O1  UNL     1      22.520   1.955  48.679  1.00  0.00    -0.379 OA
BRANCH  20  21
HETATM   21  C2  UNL     1      22.836   2.280  47.417  1.00  0.00     0.164 C 
HETATM   22  C1  UNL     1      21.919   3.303  46.748  1.00  0.00     0.033 C 
ENDBRANCH  20  21
ENDBRANCH   1  20
BRANCH  11  23
HETATM   23  C16 UNL     1      20.457   3.993  50.821  1.00  0.00     0.017 C 
BRANCH  23  24
HETATM   24  C17 UNL     1      18.983   4.327  50.604  1.00  0.00     0.002 C 
HETATM   25  C18 UNL     1      18.221   3.561  51.686  1.00  0.00     0.005 C 
ENDBRANCH  23  24
BRANCH  23  26
HETATM   26  C19 UNL     1      21.210   5.238  51.056  1.00  0.00     0.002 C 
HETATM   27  C20 UNL     1      20.864   6.336  50.033  1.00  0.00     0.005 C 
ENDBRANCH  23  26
ENDBRANCH  11  23
TORSDOF 6
ENDMDL
MODEL 9
REMARK VINA RESULT:      -6.1      6.007      9.275
REMARK  6 active torsions:
REMARK  status: ('A' for Active; 'I' for Inactive)
REMARK    1  A    between atoms: C2_2  and  O1_3 
REMARK    2  A    between atoms: O1_3  and  C3_4 
REMARK    3  A    between atoms: C7_10  and  N3_11 
REMARK    4  A    between atoms: C15_22  and  C16_23 
REMARK    5  A    between atoms: C16_23  and  C17_24 
REMARK    6  A    between atoms: C16_23  and  C19_26 
ROOT
HETATM    1  C3  UNL     1      28.407   7.170  47.692  1.00  0.00     0.190 C 
HETATM    2  C4  UNL     1      29.123   8.202  48.463  1.00  0.00     0.048 A 
HETATM    3  C5  UNL     1      28.646   9.207  49.285  1.00  0.00     0.072 A 
HETATM    4  N1  UNL     1      29.462  10.083  49.907  1.00  0.00    -0.241 NA
HETATM    5  C6  UNL     1      30.786   9.959  49.710  1.00  0.00     0.235 A 
HETATM    6  N2  UNL     1      31.286   8.998  48.922  1.00  0.00    -0.223 NA
HETATM    7  C7  UNL     1      30.485   8.101  48.282  1.00  0.00     0.144 A 
HETATM    8  C13 UNL     1      27.256   9.504  49.617  1.00  0.00     0.056 C 
HETATM    9  C14 UNL     1      26.213   9.029  48.949  1.00  0.00     0.137 C 
HETATM   10  O2  UNL     1      26.177   8.192  47.846  1.00  0.00    -0.354 OA
HETATM   11  C15 UNL     1      27.189   7.773  46.967  1.00  0.00     0.165 C 
ENDROOT
BRANCH   7  12
HETATM   12  N3  UNL     1      31.267   7.179  47.539  1.00  0.00    -0.304 N 
HETATM   13  C8  UNL     1      31.760   7.117  46.176  1.00  0.00     0.162 A 
HETATM   14  C9  UNL     1      32.523   5.879  45.936  1.00  0.00     0.012 A 
HETATM   15  C10 UNL     1      32.831   4.866  46.728  1.00  0.00     0.013 A 
HETATM   16 BR1  UNL     1      33.851   3.366  46.143  1.00  0.00    -0.051 Br
HETATM   17  C11 UNL     1      32.308   5.007  48.082  1.00  0.00     0.080 A 
HETATM   18  C12 UNL     1      31.595   6.079  48.427  1.00  0.00     0.193 A 
HETATM   19  F1  UNL     1      31.230   5.955  49.751  1.00  0.00    -0.186 F 
ENDBRANCH   7  12
BRANCH   1  20
HETATM   20  O1  UNL     1      27.772   6.357  48.602  1.00  0.00    -0.379 OA
BRANCH  20  21
HETATM   21  C2  UNL     1      27.928   5.025  48.562  1.00  0.00     0.164 C 
HETATM   22  C1  UNL     1      26.824   4.209  49.231  1.00  0.00     0.033 C 
ENDBRANCH  20  21
ENDBRANCH   1  20
BRANCH  11  23
HETATM   23  C16 UNL     1      27.479   8.677  45.858  1.00  0.00     0.017 C 
BRANCH  23  24
HETATM   24  C17 UNL     1      26.202   9.148  45.168  1.00  0.00     0.002 C 
HETATM   25  C18 UNL     1      26.129   8.371  43.853  1.00  0.00     0.005 C 
ENDBRANCH  23  24
BRANCH  23  26
HETATM   26  C19 UNL     1      28.483   8.325  44.837  1.00  0.00     0.002 C 
HETATM   27  C20 UNL     1      29.523   9.442  44.628  1.00  0.00     0.005 C 
ENDBRANCH  23  26
ENDBRANCH  11  23
TORSDOF 6
ENDMDL
