MODEL 1
REMARK VINA RESULT:      -9.4      0.000      0.000
REMARK  3 active torsions:
REMARK  status: ('A' for Active; 'I' for Inactive)
REMARK    1  A    between atoms: C6_8  and  C7_9 
REMARK    2  A    between atoms: C7_9  and  C8_10 
REMARK    3  A    between atoms: C15_19  and  C16_20 
ROOT
HETATM    1  C8  UNL     1      23.407  -0.146  53.873  1.00  0.00     0.044 C 
HETATM    2  N1  UNL     1      24.321  -0.901  54.405  1.00  0.00    -0.089 NA
HETATM    3  N2  UNL     1      25.676  -0.881  54.168  1.00  0.00     0.072 N 
HETATM    4  C9  UNL     1      27.091  -0.383  53.825  1.00  0.00     0.177 A 
HETATM    5  C10 UNL     1      26.709   0.048  55.111  1.00  0.00     0.304 A 
HETATM    6  C11 UNL     1      25.771   0.888  54.430  1.00  0.00     0.023 A 
HETATM    7  C12 UNL     1      25.755   0.817  53.014  1.00  0.00    -0.051 A 
HETATM    8  C13 UNL     1      26.430   0.129  52.039  1.00  0.00     0.010 A 
HETATM    9  C14 UNL     1      27.406  -0.753  52.541  1.00  0.00     0.038 A 
HETATM   10  C15 UNL     1      24.618   1.739  52.811  1.00  0.00     0.057 C 
HETATM   11  C22 UNL     1      23.307   0.947  52.832  1.00  0.00     0.070 C 
HETATM   12  H10 UNL     1      25.241  -1.826  54.397  1.00  0.00     0.319 HD
ENDROOT
BRANCH   1  13
HETATM   13  C7  UNL     1      22.066  -0.495  54.393  1.00  0.00     0.086 C 
BRANCH  13  14
HETATM   14  C6  UNL     1      21.039  -0.038  53.386  1.00  0.00     0.018 C 
HETATM   15  C5  UNL     1      19.884  -0.599  53.157  1.00  0.00     0.094 C 
HETATM   16  C2  UNL     1      18.996  -0.037  52.146  1.00  0.00     0.079 C 
HETATM   17  O2  UNL     1      19.445  -1.726  53.835  1.00  0.00    -0.347 OA
HETATM   18  C1  UNL     1      19.278   1.031  51.423  1.00  0.00     0.074 C 
HETATM   19  O1  UNL     1      17.772  -0.645  51.914  1.00  0.00    -0.350 OA
HETATM   20  C3  UNL     1      17.181  -1.388  52.988  1.00  0.00     0.202 C 
HETATM   21  C4  UNL     1      18.158  -2.264  53.703  1.00  0.00     0.202 C 
ENDBRANCH  13  14
ENDBRANCH   1  13
BRANCH  10  22
HETATM   22  C16 UNL     1      24.776   2.467  51.491  1.00  0.00    -0.048 A 
HETATM   23  C17 UNL     1      25.870   3.172  51.050  1.00  0.00     0.008 A 
HETATM   24  C18 UNL     1      25.944   3.799  49.850  1.00  0.00     0.002 A 
HETATM   25  C19 UNL     1      24.868   3.746  48.991  1.00  0.00     0.024 A 
HETATM   26  C20 UNL     1      23.732   3.063  49.349  1.00  0.00     0.034 A 
HETATM   27 CL1  UNL     1      22.322   2.945  48.319  1.00  0.00    -0.084 Cl
HETATM   28  C21 UNL     1      23.715   2.446  50.577  1.00  0.00     0.031 A 
ENDBRANCH  10  22
TORSDOF 3
ENDMDL
MODEL 2
REMARK VINA RESULT:      -9.3      3.282      6.149
REMARK  3 active torsions:
REMARK  status: ('A' for Active; 'I' for Inactive)
REMARK    1  A    between atoms: C6_8  and  C7_9 
REMARK    2  A    between atoms: C7_9  and  C8_10 
REMARK    3  A    between atoms: C15_19  and  C16_20 
ROOT
HETATM    1  C8  UNL     1      26.406   2.108  51.547  1.00  0.00     0.044 C 
HETATM    2  N1  UNL     1      27.537   1.815  52.116  1.00  0.00    -0.089 NA
HETATM    3  N2  UNL     1      27.755   0.958  53.169  1.00  0.00     0.072 N 
HETATM    4  C9  UNL     1      27.607  -0.221  54.147  1.00  0.00     0.177 A 
HETATM    5  C10 UNL     1      28.124  -0.659  52.911  1.00  0.00     0.304 A 
HETATM    6  C11 UNL     1      26.826  -0.358  52.389  1.00  0.00     0.023 A 
HETATM    7  C12 UNL     1      25.869   0.154  53.300  1.00  0.00    -0.051 A 
HETATM    8  C13 UNL     1      25.824   0.464  54.635  1.00  0.00     0.010 A 
HETATM    9  C14 UNL     1      27.034   0.222  55.312  1.00  0.00     0.038 A 
HETATM   10  C15 UNL     1      24.796   0.382  52.309  1.00  0.00     0.057 C 
HETATM   11  C22 UNL     1      24.937   1.788  51.718  1.00  0.00     0.070 C 
HETATM   12  H10 UNL     1      28.398   1.804  53.094  1.00  0.00     0.319 HD
ENDROOT
BRANCH   1  13
HETATM   13  C7  UNL     1      26.603   3.081  50.450  1.00  0.00     0.086 C 
BRANCH  13  14
HETATM   14  C6  UNL     1      25.269   3.315  49.784  1.00  0.00     0.018 C 
HETATM   15  C5  UNL     1      24.814   4.460  49.355  1.00  0.00     0.094 C 
HETATM   16  C2  UNL     1      23.499   4.525  48.729  1.00  0.00     0.079 C 
HETATM   17  O2  UNL     1      25.527   5.644  49.463  1.00  0.00    -0.347 OA
HETATM   18  C1  UNL     1      22.707   3.482  48.557  1.00  0.00     0.074 C 
HETATM   19  O1  UNL     1      23.029   5.750  48.279  1.00  0.00    -0.350 OA
HETATM   20  C3  UNL     1      23.995   6.742  47.912  1.00  0.00     0.202 C 
HETATM   21  C4  UNL     1      25.120   6.856  48.890  1.00  0.00     0.202 C 
ENDBRANCH  13  14
ENDBRANCH   1  13
BRANCH  10  22
HETATM   22  C16 UNL     1      23.442   0.219  52.970  1.00  0.00    -0.048 A 
HETATM   23  C17 UNL     1      23.068  -0.734  53.887  1.00  0.00     0.008 A 
HETATM   24  C18 UNL     1      21.835  -0.820  54.443  1.00  0.00     0.002 A 
HETATM   25  C19 UNL     1      20.867   0.094  54.086  1.00  0.00     0.024 A 
HETATM   26  C20 UNL     1      21.151   1.081  53.177  1.00  0.00     0.034 A 
HETATM   27 CL1  UNL     1      19.983   2.281  52.669  1.00  0.00    -0.084 Cl
HETATM   28  C21 UNL     1      22.420   1.119  52.648  1.00  0.00     0.031 A 
ENDBRANCH  10  22
TORSDOF 3
ENDMDL
MODEL 3
REMARK VINA RESULT:      -9.2      5.002      7.501
REMARK  3 active torsions:
REMARK  status: ('A' for Active; 'I' for Inactive)
REMARK    1  A    between atoms: C6_8  and  C7_9 
REMARK    2  A    between atoms: C7_9  and  C8_10 
REMARK    3  A    between atoms: C15_19  and  C16_20 
ROOT
HETATM    1  C8  UNL     1      25.423   3.153  50.989  1.00  0.00     0.044 C 
HETATM    2  N1  UNL     1      24.324   3.588  51.528  1.00  0.00    -0.089 NA
HETATM    3  N2  UNL     1      23.717   4.808  51.342  1.00  0.00     0.072 N 
HETATM    4  C9  UNL     1      23.249   6.122  50.692  1.00  0.00     0.177 A 
HETATM    5  C10 UNL     1      22.545   5.023  50.158  1.00  0.00     0.304 A 
HETATM    6  C11 UNL     1      23.793   4.658  49.559  1.00  0.00     0.023 A 
HETATM    7  C12 UNL     1      24.901   5.504  49.814  1.00  0.00    -0.051 A 
HETATM    8  C13 UNL     1      25.139   6.656  50.517  1.00  0.00     0.010 A 
HETATM    9  C14 UNL     1      24.002   7.163  51.175  1.00  0.00     0.038 A 
HETATM   10  C15 UNL     1      25.905   4.687  49.101  1.00  0.00     0.057 C 
HETATM   11  C22 UNL     1      26.509   3.662  50.065  1.00  0.00     0.070 C 
HETATM   12  H10 UNL     1      23.612   4.359  52.302  1.00  0.00     0.319 HD
ENDROOT
BRANCH   1  13
HETATM   13  C7  UNL     1      25.737   1.786  51.459  1.00  0.00     0.086 C 
BRANCH  13  14
HETATM   14  C6  UNL     1      26.948   1.864  52.356  1.00  0.00     0.018 C 
HETATM   15  C5  UNL     1      27.602   0.851  52.855  1.00  0.00     0.094 C 
HETATM   16  C2  UNL     1      28.758   1.090  53.710  1.00  0.00     0.079 C 
HETATM   17  O2  UNL     1      27.250  -0.468  52.612  1.00  0.00    -0.347 OA
HETATM   18  C1  UNL     1      29.211   2.289  54.029  1.00  0.00     0.074 C 
HETATM   19  O1  UNL     1      29.443   0.002  54.233  1.00  0.00    -0.350 OA
HETATM   20  C3  UNL     1      29.387  -1.233  53.509  1.00  0.00     0.202 C 
HETATM   21  C4  UNL     1      28.014  -1.568  53.024  1.00  0.00     0.202 C 
ENDBRANCH  13  14
ENDBRANCH   1  13
BRANCH  10  22
HETATM   22  C16 UNL     1      26.989   5.583  48.535  1.00  0.00    -0.048 A 
HETATM   23  C17 UNL     1      26.848   6.860  48.046  1.00  0.00     0.008 A 
HETATM   24  C18 UNL     1      27.866   7.609  47.555  1.00  0.00     0.002 A 
HETATM   25  C19 UNL     1      29.140   7.085  47.530  1.00  0.00     0.024 A 
HETATM   26  C20 UNL     1      29.375   5.817  47.999  1.00  0.00     0.034 A 
HETATM   27 CL1  UNL     1      30.960   5.076  48.005  1.00  0.00    -0.084 Cl
HETATM   28  C21 UNL     1      28.304   5.105  48.485  1.00  0.00     0.031 A 
ENDBRANCH  10  22
TORSDOF 3
ENDMDL
MODEL 4
REMARK VINA RESULT:      -9.2      3.208      6.356
REMARK  3 active torsions:
REMARK  status: ('A' for Active; 'I' for Inactive)
REMARK    1  A    between atoms: C6_8  and  C7_9 
REMARK    2  A    between atoms: C7_9  and  C8_10 
REMARK    3  A    between atoms: C15_19  and  C16_20 
ROOT
HETATM    1  C8  UNL     1      23.878   0.669  52.821  1.00  0.00     0.044 C 
HETATM    2  N1  UNL     1      22.702   0.385  53.292  1.00  0.00    -0.089 NA
HETATM    3  N2  UNL     1      21.496   0.954  52.953  1.00  0.00     0.072 N 
HETATM    4  C9  UNL     1      20.382   1.640  52.143  1.00  0.00     0.177 A 
HETATM    5  C10 UNL     1      20.538   0.299  51.740  1.00  0.00     0.304 A 
HETATM    6  C11 UNL     1      21.795   0.723  51.202  1.00  0.00     0.023 A 
HETATM    7  C12 UNL     1      22.135   2.089  51.364  1.00  0.00    -0.051 A 
HETATM    8  C13 UNL     1      21.565   3.203  51.924  1.00  0.00     0.010 A 
HETATM    9  C14 UNL     1      20.304   2.962  52.503  1.00  0.00     0.038 A 
HETATM   10  C15 UNL     1      23.484   1.999  50.766  1.00  0.00     0.057 C 
HETATM   11  C22 UNL     1      24.504   1.651  51.854  1.00  0.00     0.070 C 
HETATM   12  H10 UNL     1      21.607   0.623  53.959  1.00  0.00     0.319 HD
ENDROOT
BRANCH   1  13
HETATM   13  C7  UNL     1      24.919  -0.169  53.457  1.00  0.00     0.086 C 
BRANCH  13  14
HETATM   14  C6  UNL     1      26.188   0.642  53.544  1.00  0.00     0.018 C 
HETATM   15  C5  UNL     1      27.401   0.167  53.616  1.00  0.00     0.094 C 
HETATM   16  C2  UNL     1      28.532   1.084  53.696  1.00  0.00     0.079 C 
HETATM   17  O2  UNL     1      27.680  -1.191  53.622  1.00  0.00    -0.347 OA
HETATM   18  C1  UNL     1      28.421   2.400  53.701  1.00  0.00     0.074 C 
HETATM   19  O1  UNL     1      29.815   0.563  53.773  1.00  0.00    -0.350 OA
HETATM   20  C3  UNL     1      30.043  -0.736  53.212  1.00  0.00     0.202 C 
HETATM   21  C4  UNL     1      28.976  -1.722  53.561  1.00  0.00     0.202 C 
ENDBRANCH  13  14
ENDBRANCH   1  13
BRANCH  10  22
HETATM   22  C16 UNL     1      23.842   3.316  50.107  1.00  0.00    -0.048 A 
HETATM   23  C17 UNL     1      24.826   4.200  50.483  1.00  0.00     0.008 A 
HETATM   24  C18 UNL     1      25.095   5.364  49.843  1.00  0.00     0.002 A 
HETATM   25  C19 UNL     1      24.351   5.717  48.738  1.00  0.00     0.024 A 
HETATM   26  C20 UNL     1      23.348   4.895  48.291  1.00  0.00     0.034 A 
HETATM   27 CL1  UNL     1      22.356   5.265  46.897  1.00  0.00    -0.084 Cl
HETATM   28  C21 UNL     1      23.121   3.726  48.980  1.00  0.00     0.031 A 
ENDBRANCH  10  22
TORSDOF 3
ENDMDL
MODEL 5
REMARK VINA RESULT:      -9.1      3.571      7.205
REMARK  3 active torsions:
REMARK  status: ('A' for Active; 'I' for Inactive)
REMARK    1  A    between atoms: C6_8  and  C7_9 
REMARK    2  A    between atoms: C7_9  and  C8_10 
REMARK    3  A    between atoms: C15_19  and  C16_20 
ROOT
HETATM    1  C8  UNL     1      23.886   0.534  52.806  1.00  0.00     0.044 C 
HETATM    2  N1  UNL     1      24.521   1.248  51.926  1.00  0.00    -0.089 NA
HETATM    3  N2  UNL     1      23.990   1.998  50.904  1.00  0.00     0.072 N 
HETATM    4  C9  UNL     1      23.026   2.876  50.085  1.00  0.00     0.177 A 
HETATM    5  C10 UNL     1      23.628   3.624  51.117  1.00  0.00     0.304 A 
HETATM    6  C11 UNL     1      22.842   2.822  52.004  1.00  0.00     0.023 A 
HETATM    7  C12 UNL     1      22.006   1.841  51.414  1.00  0.00    -0.051 A 
HETATM    8  C13 UNL     1      21.708   1.411  50.148  1.00  0.00     0.010 A 
HETATM    9  C14 UNL     1      22.401   2.105  49.137  1.00  0.00     0.038 A 
HETATM   10  C15 UNL     1      21.516   1.254  52.680  1.00  0.00     0.057 C 
HETATM   11  C22 UNL     1      22.461   0.133  53.122  1.00  0.00     0.070 C 
HETATM   12  H10 UNL     1      24.939   1.550  50.729  1.00  0.00     0.319 HD
ENDROOT
BRANCH   1  13
HETATM   13  C7  UNL     1      24.831  -0.127  53.733  1.00  0.00     0.086 C 
BRANCH  13  14
HETATM   14  C6  UNL     1      26.114   0.667  53.741  1.00  0.00     0.018 C 
HETATM   15  C5  UNL     1      27.323   0.176  53.729  1.00  0.00     0.094 C 
HETATM   16  C2  UNL     1      28.468   1.079  53.741  1.00  0.00     0.079 C 
HETATM   17  O2  UNL     1      27.584  -1.185  53.706  1.00  0.00    -0.347 OA
HETATM   18  C1  UNL     1      28.375   2.396  53.762  1.00  0.00     0.074 C 
HETATM   19  O1  UNL     1      29.747   0.541  53.728  1.00  0.00    -0.350 OA
HETATM   20  C3  UNL     1      29.920  -0.756  53.143  1.00  0.00     0.202 C 
HETATM   21  C4  UNL     1      28.865  -1.731  53.556  1.00  0.00     0.202 C 
ENDBRANCH  13  14
ENDBRANCH   1  13
BRANCH  10  22
HETATM   22  C16 UNL     1      20.112   0.716  52.487  1.00  0.00    -0.048 A 
HETATM   23  C17 UNL     1      19.099   1.271  51.741  1.00  0.00     0.008 A 
HETATM   24  C18 UNL     1      17.862   0.732  51.609  1.00  0.00     0.002 A 
HETATM   25  C19 UNL     1      17.566  -0.449  52.254  1.00  0.00     0.024 A 
HETATM   26  C20 UNL     1      18.517  -1.074  53.020  1.00  0.00     0.034 A 
HETATM   27 CL1  UNL     1      18.227  -2.576  53.871  1.00  0.00    -0.084 Cl
HETATM   28  C21 UNL     1      19.754  -0.482  53.116  1.00  0.00     0.031 A 
ENDBRANCH  10  22
TORSDOF 3
ENDMDL
MODEL 6
REMARK VINA RESULT:      -8.9      5.317      7.843
REMARK  3 active torsions:
REMARK  status: ('A' for Active; 'I' for Inactive)
REMARK    1  A    between atoms: C6_8  and  C7_9 
REMARK    2  A    between atoms: C7_9  and  C8_10 
REMARK    3  A    between atoms: C15_19  and  C16_20 
ROOT
HETATM    1  C8  UNL     1      25.621   3.878  50.350  1.00  0.00     0.044 C 
HETATM    2  N1  UNL     1      24.541   4.454  50.784  1.00  0.00    -0.089 NA
HETATM    3  N2  UNL     1      24.133   5.751  50.575  1.00  0.00     0.072 N 
HETATM    4  C9  UNL     1      23.926   7.129  49.922  1.00  0.00     0.177 A 
HETATM    5  C10 UNL     1      23.139   6.151  49.282  1.00  0.00     0.304 A 
HETATM    6  C11 UNL     1      24.382   5.623  48.806  1.00  0.00     0.023 A 
HETATM    7  C12 UNL     1      25.563   6.300  49.205  1.00  0.00    -0.051 A 
HETATM    8  C13 UNL     1      25.880   7.394  49.967  1.00  0.00     0.010 A 
HETATM    9  C14 UNL     1      24.758   8.044  50.516  1.00  0.00     0.038 A 
HETATM   10  C15 UNL     1      26.515   5.361  48.576  1.00  0.00     0.057 C 
HETATM   11  C22 UNL     1      26.862   4.244  49.564  1.00  0.00     0.070 C 
HETATM   12  H10 UNL     1      23.863   5.304  51.503  1.00  0.00     0.319 HD
ENDROOT
BRANCH   1  13
HETATM   13  C7  UNL     1      25.689   2.472  50.806  1.00  0.00     0.086 C 
BRANCH  13  14
HETATM   14  C6  UNL     1      26.784   2.364  51.839  1.00  0.00     0.018 C 
HETATM   15  C5  UNL     1      27.181   1.270  52.428  1.00  0.00     0.094 C 
HETATM   16  C2  UNL     1      28.257   1.330  53.411  1.00  0.00     0.079 C 
HETATM   17  O2  UNL     1      26.625   0.028  52.166  1.00  0.00    -0.347 OA
HETATM   18  C1  UNL     1      28.881   2.439  53.762  1.00  0.00     0.074 C 
HETATM   19  O1  UNL     1      28.667   0.157  54.028  1.00  0.00    -0.350 OA
HETATM   20  C3  UNL     1      28.471  -1.074  53.322  1.00  0.00     0.202 C 
HETATM   21  C4  UNL     1      27.124  -1.176  52.682  1.00  0.00     0.202 C 
ENDBRANCH  13  14
ENDBRANCH   1  13
BRANCH  10  22
HETATM   22  C16 UNL     1      27.769   6.105  48.158  1.00  0.00    -0.048 A 
HETATM   23  C17 UNL     1      27.849   7.351  47.584  1.00  0.00     0.008 A 
HETATM   24  C18 UNL     1      29.010   7.960  47.236  1.00  0.00     0.002 A 
HETATM   25  C19 UNL     1      30.206   7.314  47.459  1.00  0.00     0.024 A 
HETATM   26  C20 UNL     1      30.221   6.066  48.029  1.00  0.00     0.034 A 
HETATM   27 CL1  UNL     1      31.694   5.176  48.348  1.00  0.00    -0.084 Cl
HETATM   28  C21 UNL     1      29.014   5.499  48.361  1.00  0.00     0.031 A 
ENDBRANCH  10  22
TORSDOF 3
ENDMDL
MODEL 7
REMARK VINA RESULT:      -8.8      3.678      7.333
REMARK  3 active torsions:
REMARK  status: ('A' for Active; 'I' for Inactive)
REMARK    1  A    between atoms: C6_8  and  C7_9 
REMARK    2  A    between atoms: C7_9  and  C8_10 
REMARK    3  A    between atoms: C15_19  and  C16_20 
ROOT
HETATM    1  C8  UNL     1      24.370   2.040  51.067  1.00  0.00     0.044 C 
HETATM    2  N1  UNL     1      24.071   2.674  49.973  1.00  0.00    -0.089 NA
HETATM    3  N2  UNL     1      22.836   2.801  49.382  1.00  0.00     0.072 N 
HETATM    4  C9  UNL     1      21.313   2.912  49.190  1.00  0.00     0.177 A 
HETATM    5  C10 UNL     1      21.836   4.104  49.731  1.00  0.00     0.304 A 
HETATM    6  C11 UNL     1      22.074   3.332  50.912  1.00  0.00     0.023 A 
HETATM    7  C12 UNL     1      21.699   1.965  50.875  1.00  0.00    -0.051 A 
HETATM    8  C13 UNL     1      21.130   1.109  49.969  1.00  0.00     0.010 A 
HETATM    9  C14 UNL     1      20.823   1.714  48.735  1.00  0.00     0.038 A 
HETATM   10  C15 UNL     1      22.214   1.612  52.214  1.00  0.00     0.057 C 
HETATM   11  C22 UNL     1      23.679   1.178  52.101  1.00  0.00     0.070 C 
HETATM   12  H10 UNL     1      23.681   2.771  48.733  1.00  0.00     0.319 HD
ENDROOT
BRANCH   1  13
HETATM   13  C7  UNL     1      25.818   2.139  51.356  1.00  0.00     0.086 C 
BRANCH  13  14
HETATM   14  C6  UNL     1      26.296   0.789  51.831  1.00  0.00     0.018 C 
HETATM   15  C5  UNL     1      27.272   0.569  52.669  1.00  0.00     0.094 C 
HETATM   16  C2  UNL     1      27.617  -0.800  53.032  1.00  0.00     0.079 C 
HETATM   17  O2  UNL     1      28.016   1.588  53.245  1.00  0.00    -0.347 OA
HETATM   18  C1  UNL     1      26.999  -1.869  52.566  1.00  0.00     0.074 C 
HETATM   19  O1  UNL     1      28.657  -1.016  53.924  1.00  0.00    -0.350 OA
HETATM   20  C3  UNL     1      28.959   0.023  54.863  1.00  0.00     0.202 C 
HETATM   21  C4  UNL     1      28.974   1.385  54.247  1.00  0.00     0.202 C 
ENDBRANCH  13  14
ENDBRANCH   1  13
BRANCH  10  22
HETATM   22  C16 UNL     1      21.377   0.497  52.809  1.00  0.00    -0.048 A 
HETATM   23  C17 UNL     1      21.793  -0.499  53.660  1.00  0.00     0.008 A 
HETATM   24  C18 UNL     1      20.986  -1.468  54.158  1.00  0.00     0.002 A 
HETATM   25  C19 UNL     1      19.654  -1.485  53.807  1.00  0.00     0.024 A 
HETATM   26  C20 UNL     1      19.150  -0.528  52.962  1.00  0.00     0.034 A 
HETATM   27 CL1  UNL     1      17.472  -0.475  52.466  1.00  0.00    -0.084 Cl
HETATM   28  C21 UNL     1      20.016   0.429  52.489  1.00  0.00     0.031 A 
ENDBRANCH  10  22
TORSDOF 3
ENDMDL
MODEL 8
REMARK VINA RESULT:      -8.7      4.510      7.694
REMARK  3 active torsions:
REMARK  status: ('A' for Active; 'I' for Inactive)
REMARK    1  A    between atoms: C6_8  and  C7_9 
REMARK    2  A    between atoms: C7_9  and  C8_10 
REMARK    3  A    between atoms: C15_19  and  C16_20 
ROOT
HETATM    1  C8  UNL     1      24.951   2.754  50.329  1.00  0.00     0.044 C 
HETATM    2  N1  UNL     1      23.693   2.524  50.559  1.00  0.00    -0.089 NA
HETATM    3  N2  UNL     1      23.140   1.836  51.614  1.00  0.00     0.072 N 
HETATM    4  C9  UNL     1      22.921   1.245  53.018  1.00  0.00     0.177 A 
HETATM    5  C10 UNL     1      22.660   2.630  53.013  1.00  0.00     0.304 A 
HETATM    6  C11 UNL     1      24.070   2.782  52.817  1.00  0.00     0.023 A 
HETATM    7  C12 UNL     1      24.840   1.594  52.742  1.00  0.00    -0.051 A 
HETATM    8  C13 UNL     1      24.609   0.246  52.812  1.00  0.00     0.010 A 
HETATM    9  C14 UNL     1      23.255  -0.086  53.010  1.00  0.00     0.038 A 
HETATM   10  C15 UNL     1      26.133   2.250  52.449  1.00  0.00     0.057 C 
HETATM   11  C22 UNL     1      26.294   2.410  50.935  1.00  0.00     0.070 C 
HETATM   12  H10 UNL     1      22.632   1.776  50.680  1.00  0.00     0.319 HD
ENDROOT
BRANCH   1  13
HETATM   13  C7  UNL     1      25.126   3.526  49.079  1.00  0.00     0.086 C 
BRANCH  13  14
HETATM   14  C6  UNL     1      25.263   4.984  49.443  1.00  0.00     0.018 C 
HETATM   15  C5  UNL     1      26.293   5.746  49.194  1.00  0.00     0.094 C 
HETATM   16  C2  UNL     1      26.275   7.142  49.612  1.00  0.00     0.079 C 
HETATM   17  O2  UNL     1      27.428   5.289  48.542  1.00  0.00    -0.347 OA
HETATM   18  C1  UNL     1      25.266   7.716  50.240  1.00  0.00     0.074 C 
HETATM   19  O1  UNL     1      27.378   7.938  49.340  1.00  0.00    -0.350 OA
HETATM   20  C3  UNL     1      28.199   7.583  48.221  1.00  0.00     0.202 C 
HETATM   21  C4  UNL     1      28.486   6.118  48.145  1.00  0.00     0.202 C 
ENDBRANCH  13  14
ENDBRANCH   1  13
BRANCH  10  22
HETATM   22  C16 UNL     1      27.268   1.422  53.017  1.00  0.00    -0.048 A 
HETATM   23  C17 UNL     1      28.316   1.860  53.793  1.00  0.00     0.008 A 
HETATM   24  C18 UNL     1      29.301   1.060  54.271  1.00  0.00     0.002 A 
HETATM   25  C19 UNL     1      29.281  -0.286  53.980  1.00  0.00     0.024 A 
HETATM   26  C20 UNL     1      28.271  -0.811  53.212  1.00  0.00     0.034 A 
HETATM   27 CL1  UNL     1      28.169  -2.508  52.795  1.00  0.00    -0.084 Cl
HETATM   28  C21 UNL     1      27.300   0.048  52.755  1.00  0.00     0.031 A 
ENDBRANCH  10  22
TORSDOF 3
ENDMDL
MODEL 9
REMARK VINA RESULT:      -8.6      4.045      6.929
REMARK  3 active torsions:
REMARK  status: ('A' for Active; 'I' for Inactive)
REMARK    1  A    between atoms: C6_8  and  C7_9 
REMARK    2  A    between atoms: C7_9  and  C8_10 
REMARK    3  A    between atoms: C15_19  and  C16_20 
ROOT
HETATM    1  C8  UNL     1      25.161   3.038  50.749  1.00  0.00     0.044 C 
HETATM    2  N1  UNL     1      24.421   2.499  51.671  1.00  0.00    -0.089 NA
HETATM    3  N2  UNL     1      23.058   2.598  51.824  1.00  0.00     0.072 N 
HETATM    4  C9  UNL     1      21.559   2.746  51.504  1.00  0.00     0.177 A 
HETATM    5  C10 UNL     1      22.024   1.466  51.140  1.00  0.00     0.304 A 
HETATM    6  C11 UNL     1      22.759   2.146  50.117  1.00  0.00     0.023 A 
HETATM    7  C12 UNL     1      22.625   3.556  50.059  1.00  0.00    -0.051 A 
HETATM    8  C13 UNL     1      21.942   4.526  50.747  1.00  0.00     0.010 A 
HETATM    9  C14 UNL     1      21.154   4.023  51.800  1.00  0.00     0.038 A 
HETATM   10  C15 UNL     1      23.600   3.773  48.969  1.00  0.00     0.057 C 
HETATM   11  C22 UNL     1      24.998   3.965  49.564  1.00  0.00     0.070 C 
HETATM   12  H10 UNL     1      23.637   2.512  52.713  1.00  0.00     0.319 HD
ENDROOT
BRANCH   1  13
HETATM   13  C7  UNL     1      26.586   2.693  50.948  1.00  0.00     0.086 C 
BRANCH  13  14
HETATM   14  C6  UNL     1      26.656   1.318  51.567  1.00  0.00     0.018 C 
HETATM   15  C5  UNL     1      27.464   0.944  52.520  1.00  0.00     0.094 C 
HETATM   16  C2  UNL     1      27.410  -0.427  53.015  1.00  0.00     0.079 C 
HETATM   17  O2  UNL     1      28.392   1.795  53.100  1.00  0.00    -0.347 OA
HETATM   18  C1  UNL     1      26.580  -1.348  52.560  1.00  0.00     0.074 C 
HETATM   19  O1  UNL     1      28.277  -0.809  54.028  1.00  0.00    -0.350 OA
HETATM   20  C3  UNL     1      28.754   0.207  54.918  1.00  0.00     0.202 C 
HETATM   21  C4  UNL     1      29.174   1.456  54.213  1.00  0.00     0.202 C 
ENDBRANCH  13  14
ENDBRANCH   1  13
BRANCH  10  22
HETATM   22  C16 UNL     1      23.200   4.989  48.157  1.00  0.00    -0.048 A 
HETATM   23  C17 UNL     1      22.145   5.101  47.282  1.00  0.00     0.008 A 
HETATM   24  C18 UNL     1      21.843   6.226  46.587  1.00  0.00     0.002 A 
HETATM   25  C19 UNL     1      22.624   7.349  46.745  1.00  0.00     0.024 A 
HETATM   26  C20 UNL     1      23.698   7.329  47.599  1.00  0.00     0.034 A 
HETATM   27 CL1  UNL     1      24.741   8.710  47.860  1.00  0.00    -0.084 Cl
HETATM   28  C21 UNL     1      23.956   6.161  48.277  1.00  0.00     0.031 A 
ENDBRANCH  10  22
TORSDOF 3
ENDMDL
