MODEL 1
REMARK VINA RESULT:      -9.6      0.000      0.000
REMARK  6 active torsions:
REMARK  status: ('A' for Active; 'I' for Inactive)
REMARK    1  A    between atoms: O1_1  and  C1_2 
REMARK    2  A    between atoms: C4_5  and  C24_30 
REMARK    3  A    between atoms: C6_7  and  C7_8 
REMARK    4  A    between atoms: C11_12  and  C14_16 
REMARK    5  A    between atoms: N3_18  and  C15_19 
REMARK    6  A    between atoms: C16_21  and  C17_22 
ROOT
HETATM    1  C14 UNL     1      19.640   1.676  51.987  1.00  0.00     0.067 C 
HETATM    2  N2  UNL     1      20.409   1.330  52.970  1.00  0.00    -0.173 NA
HETATM    3  N3  UNL     1      21.422   0.450  52.631  1.00  0.00    -0.236 N 
HETATM    4  C24 UNL     1      21.128   0.130  51.217  1.00  0.00     0.151 C 
HETATM    5  C25 UNL     1      19.599   0.312  51.390  1.00  0.00     0.094 C 
ENDROOT
BRANCH   3   6
HETATM    6  C15 UNL     1      22.505  -0.061  53.399  1.00  0.00     0.190 A 
HETATM    7  N4  UNL     1      23.699  -0.024  53.344  1.00  0.00    -0.222 NA
HETATM    8  C16 UNL     1      24.537  -0.580  54.179  1.00  0.00     0.076 A 
HETATM    9  C23 UNL     1      23.842  -1.318  55.291  1.00  0.00     0.086 A 
HETATM   10  S1  UNL     1      22.112  -1.050  54.888  1.00  0.00    -0.060 SA
BRANCH   8  11
HETATM   11  C17 UNL     1      25.981  -0.501  54.062  1.00  0.00    -0.007 A 
HETATM   12  C18 UNL     1      26.762   0.208  54.938  1.00  0.00     0.014 A 
HETATM   13  C19 UNL     1      28.134   0.281  54.824  1.00  0.00     0.001 A 
HETATM   14  C20 UNL     1      28.803  -0.362  53.811  1.00  0.00     0.000 A 
HETATM   15  C21 UNL     1      28.027  -1.078  52.925  1.00  0.00     0.001 A 
HETATM   16  C22 UNL     1      26.668  -1.135  53.059  1.00  0.00     0.014 A 
ENDBRANCH   8  11
ENDBRANCH   3   6
BRANCH   4  17
HETATM   17  C4  UNL     1      21.574   1.270  50.377  1.00  0.00    -0.032 A 
HETATM   18  C3  UNL     1      20.871   1.719  49.252  1.00  0.00     0.012 A 
HETATM   19  C2  UNL     1      21.399   2.708  48.411  1.00  0.00     0.038 A 
HETATM   20  C1  UNL     1      22.645   3.289  48.650  1.00  0.00     0.074 A 
HETATM   21  C6  UNL     1      23.344   2.860  49.746  1.00  0.00     0.002 A 
HETATM   22  C5  UNL     1      22.769   1.904  50.524  1.00  0.00     0.021 A 
BRANCH  20  23
HETATM   23  O1  UNL     1      23.231   4.267  47.865  1.00  0.00    -0.360 OA
HETATM   24  H1  UNL     1      23.994   4.783  48.328  1.00  0.00     0.217 HD
ENDBRANCH  20  23
BRANCH  21  25
HETATM   25  C7  UNL     1      24.771   3.207  50.076  1.00  0.00     0.140 C 
HETATM   26  C8  UNL     1      24.852   3.149  51.610  1.00  0.00     0.003 C 
HETATM   27  C9  UNL     1      23.867   3.550  52.474  1.00  0.00    -0.001 C 
HETATM   28  C10 UNL     1      22.802   4.619  52.527  1.00  0.00     0.013 C 
HETATM   29  C11 UNL     1      22.628   5.574  51.567  1.00  0.00    -0.009 C 
HETATM   30  C12 UNL     1      23.771   6.461  51.118  1.00  0.00     0.030 C 
HETATM   31  C13 UNL     1      24.759   5.865  50.366  1.00  0.00     0.084 C 
HETATM   32  N1  UNL     1      25.064   4.599  49.680  1.00  0.00    -0.387 N 
HETATM   33  H11 UNL     1      25.553   4.778  48.798  1.00  0.00     0.159 HD
ENDBRANCH  21  25
ENDBRANCH   4  17
TORSDOF 6
ENDMDL
MODEL 2
REMARK VINA RESULT:      -9.4      2.972      6.358
REMARK  6 active torsions:
REMARK  status: ('A' for Active; 'I' for Inactive)
REMARK    1  A    between atoms: O1_1  and  C1_2 
REMARK    2  A    between atoms: C4_5  and  C24_30 
REMARK    3  A    between atoms: C6_7  and  C7_8 
REMARK    4  A    between atoms: C11_12  and  C14_16 
REMARK    5  A    between atoms: N3_18  and  C15_19 
REMARK    6  A    between atoms: C16_21  and  C17_22 
ROOT
HETATM    1  C14 UNL     1      21.556   0.245  50.755  1.00  0.00     0.067 C 
HETATM    2  N2  UNL     1      22.071   1.218  50.072  1.00  0.00    -0.173 NA
HETATM    3  N3  UNL     1      22.300   2.375  50.795  1.00  0.00    -0.236 N 
HETATM    4  C24 UNL     1      21.711   2.067  52.117  1.00  0.00     0.151 C 
HETATM    5  C25 UNL     1      20.633   1.123  51.526  1.00  0.00     0.094 C 
ENDROOT
BRANCH   3   6
HETATM    6  C15 UNL     1      22.937   3.592  50.425  1.00  0.00     0.190 A 
HETATM    7  N4  UNL     1      24.005   3.914  49.993  1.00  0.00    -0.222 NA
HETATM    8  C16 UNL     1      24.400   5.128  49.713  1.00  0.00     0.076 A 
HETATM    9  C23 UNL     1      23.342   6.161  49.991  1.00  0.00     0.086 A 
HETATM   10  S1  UNL     1      21.990   5.148  50.603  1.00  0.00    -0.060 SA
BRANCH   8  11
HETATM   11  C17 UNL     1      25.713   5.460  49.189  1.00  0.00    -0.007 A 
HETATM   12  C18 UNL     1      26.044   6.717  48.753  1.00  0.00     0.014 A 
HETATM   13  C19 UNL     1      27.292   7.030  48.257  1.00  0.00     0.001 A 
HETATM   14  C20 UNL     1      28.284   6.085  48.170  1.00  0.00     0.000 A 
HETATM   15  C21 UNL     1      27.961   4.818  48.605  1.00  0.00     0.001 A 
HETATM   16  C22 UNL     1      26.717   4.532  49.094  1.00  0.00     0.014 A 
ENDBRANCH   8  11
ENDBRANCH   3   6
BRANCH   4  17
HETATM   17  C4  UNL     1      22.651   1.187  52.854  1.00  0.00    -0.032 A 
HETATM   18  C3  UNL     1      22.281  -0.047  53.405  1.00  0.00     0.012 A 
HETATM   19  C2  UNL     1      23.164  -0.778  54.210  1.00  0.00     0.038 A 
HETATM   20  C1  UNL     1      24.448  -0.316  54.504  1.00  0.00     0.074 A 
HETATM   21  C6  UNL     1      24.824   0.888  53.973  1.00  0.00     0.002 A 
HETATM   22  C5  UNL     1      23.920   1.541  53.193  1.00  0.00     0.021 A 
BRANCH  20  23
HETATM   23  O1  UNL     1      25.373  -0.980  55.291  1.00  0.00    -0.360 OA
HETATM   24  H1  UNL     1      24.978  -1.403  56.145  1.00  0.00     0.217 HD
ENDBRANCH  20  23
BRANCH  21  25
HETATM   25  C7  UNL     1      26.073   1.654  54.316  1.00  0.00     0.140 C 
HETATM   26  C8  UNL     1      26.601   2.180  52.971  1.00  0.00     0.003 C 
HETATM   27  C9  UNL     1      26.558   1.504  51.780  1.00  0.00    -0.001 C 
HETATM   28  C10 UNL     1      26.658   0.074  51.309  1.00  0.00     0.013 C 
HETATM   29  C11 UNL     1      26.896  -0.989  52.134  1.00  0.00    -0.009 C 
HETATM   30  C12 UNL     1      28.084  -1.009  53.074  1.00  0.00     0.030 C 
HETATM   31  C13 UNL     1      28.030  -0.160  54.158  1.00  0.00     0.084 C 
HETATM   32  N1  UNL     1      27.101   0.742  54.856  1.00  0.00    -0.387 N 
HETATM   33  H11 UNL     1      27.236   0.681  55.869  1.00  0.00     0.159 HD
ENDBRANCH  21  25
ENDBRANCH   4  17
TORSDOF 6
ENDMDL
MODEL 3
REMARK VINA RESULT:      -8.5      1.849      2.305
REMARK  6 active torsions:
REMARK  status: ('A' for Active; 'I' for Inactive)
REMARK    1  A    between atoms: O1_1  and  C1_2 
REMARK    2  A    between atoms: C4_5  and  C24_30 
REMARK    3  A    between atoms: C6_7  and  C7_8 
REMARK    4  A    between atoms: C11_12  and  C14_16 
REMARK    5  A    between atoms: N3_18  and  C15_19 
REMARK    6  A    between atoms: C16_21  and  C17_22 
ROOT
HETATM    1  C14 UNL     1      20.608   2.268  51.287  1.00  0.00     0.067 C 
HETATM    2  N2  UNL     1      21.567   2.222  52.157  1.00  0.00    -0.173 NA
HETATM    3  N3  UNL     1      22.744   1.661  51.693  1.00  0.00    -0.236 N 
HETATM    4  C24 UNL     1      22.378   1.187  50.340  1.00  0.00     0.151 C 
HETATM    5  C25 UNL     1      20.901   0.921  50.724  1.00  0.00     0.094 C 
ENDROOT
BRANCH   3   6
HETATM    6  C15 UNL     1      24.021   1.536  52.308  1.00  0.00     0.190 A 
HETATM    7  N4  UNL     1      24.881   0.707  52.358  1.00  0.00    -0.222 NA
HETATM    8  C16 UNL     1      26.015   0.797  53.002  1.00  0.00     0.076 A 
HETATM    9  C23 UNL     1      26.170   2.108  53.724  1.00  0.00     0.086 A 
HETATM   10  S1  UNL     1      24.630   2.939  53.314  1.00  0.00    -0.060 SA
BRANCH   8  11
HETATM   11  C17 UNL     1      27.025  -0.246  53.027  1.00  0.00    -0.007 A 
HETATM   12  C18 UNL     1      28.330  -0.008  53.373  1.00  0.00     0.014 A 
HETATM   13  C19 UNL     1      29.288  -1.001  53.396  1.00  0.00     0.001 A 
HETATM   14  C20 UNL     1      28.981  -2.299  53.068  1.00  0.00     0.000 A 
HETATM   15  C21 UNL     1      27.671  -2.547  52.719  1.00  0.00     0.001 A 
HETATM   16  C22 UNL     1      26.740  -1.547  52.703  1.00  0.00     0.014 A 
ENDBRANCH   8  11
ENDBRANCH   3   6
BRANCH   4  17
HETATM   17  C4  UNL     1      22.348   2.358  49.428  1.00  0.00    -0.032 A 
HETATM   18  C3  UNL     1      21.551   2.418  48.276  1.00  0.00     0.012 A 
HETATM   19  C2  UNL     1      21.658   3.483  47.373  1.00  0.00     0.038 A 
HETATM   20  C1  UNL     1      22.560   4.530  47.571  1.00  0.00     0.074 A 
HETATM   21  C6  UNL     1      23.346   4.485  48.691  1.00  0.00     0.002 A 
HETATM   22  C5  UNL     1      23.184   3.427  49.531  1.00  0.00     0.021 A 
BRANCH  20  23
HETATM   23  O1  UNL     1      22.723   5.612  46.724  1.00  0.00    -0.360 OA
HETATM   24  H1  UNL     1      23.510   6.231  46.971  1.00  0.00     0.217 HD
ENDBRANCH  20  23
BRANCH  21  25
HETATM   25  C7  UNL     1      24.504   5.396  48.995  1.00  0.00     0.140 C 
HETATM   26  C8  UNL     1      24.478   5.581  50.521  1.00  0.00     0.003 C 
HETATM   27  C9  UNL     1      23.348   5.684  51.291  1.00  0.00    -0.001 C 
HETATM   28  C10 UNL     1      21.958   6.256  51.153  1.00  0.00     0.013 C 
HETATM   29  C11 UNL     1      21.514   6.932  50.053  1.00  0.00    -0.009 C 
HETATM   30  C12 UNL     1      22.270   8.122  49.497  1.00  0.00     0.030 C 
HETATM   31  C13 UNL     1      23.467   7.857  48.870  1.00  0.00     0.084 C 
HETATM   32  N1  UNL     1      24.281   6.727  48.396  1.00  0.00    -0.387 N 
HETATM   33  H11 UNL     1      24.735   6.960  47.508  1.00  0.00     0.159 HD
ENDBRANCH  21  25
ENDBRANCH   4  17
TORSDOF 6
ENDMDL
MODEL 4
REMARK VINA RESULT:      -8.3      8.749     12.146
REMARK  6 active torsions:
REMARK  status: ('A' for Active; 'I' for Inactive)
REMARK    1  A    between atoms: O1_1  and  C1_2 
REMARK    2  A    between atoms: C4_5  and  C24_30 
REMARK    3  A    between atoms: C6_7  and  C7_8 
REMARK    4  A    between atoms: C11_12  and  C14_16 
REMARK    5  A    between atoms: N3_18  and  C15_19 
REMARK    6  A    between atoms: C16_21  and  C17_22 
ROOT
HETATM    1  C14 UNL     1      33.202   9.067  44.615  1.00  0.00     0.067 C 
HETATM    2  N2  UNL     1      32.318   9.336  45.523  1.00  0.00    -0.173 NA
HETATM    3  N3  UNL     1      31.243   8.466  45.560  1.00  0.00    -0.236 N 
HETATM    4  C24 UNL     1      31.479   7.591  44.391  1.00  0.00     0.151 C 
HETATM    5  C25 UNL     1      32.196   8.701  43.581  1.00  0.00     0.094 C 
ENDROOT
BRANCH   3   6
HETATM    6  C15 UNL     1      30.150   8.376  46.467  1.00  0.00     0.190 A 
HETATM    7  N4  UNL     1      29.453   7.507  46.900  1.00  0.00    -0.222 NA
HETATM    8  C16 UNL     1      28.472   7.644  47.753  1.00  0.00     0.076 A 
HETATM    9  C23 UNL     1      28.271   9.073  48.180  1.00  0.00     0.086 A 
HETATM   10  S1  UNL     1      29.554   9.920  47.249  1.00  0.00    -0.060 SA
BRANCH   8  11
HETATM   11  C17 UNL     1      27.657   6.548  48.245  1.00  0.00    -0.007 A 
HETATM   12  C18 UNL     1      28.161   5.295  48.482  1.00  0.00     0.014 A 
HETATM   13  C19 UNL     1      27.384   4.256  48.950  1.00  0.00     0.001 A 
HETATM   14  C20 UNL     1      26.046   4.423  49.208  1.00  0.00     0.000 A 
HETATM   15  C21 UNL     1      25.531   5.679  48.973  1.00  0.00     0.001 A 
HETATM   16  C22 UNL     1      26.320   6.693  48.509  1.00  0.00     0.014 A 
ENDBRANCH   8  11
ENDBRANCH   3   6
BRANCH   4  17
HETATM   17  C4  UNL     1      32.535   6.611  44.746  1.00  0.00    -0.032 A 
HETATM   18  C3  UNL     1      33.505   6.160  43.840  1.00  0.00     0.012 A 
HETATM   19  C2  UNL     1      34.396   5.133  44.179  1.00  0.00     0.038 A 
HETATM   20  C1  UNL     1      34.360   4.510  45.428  1.00  0.00     0.074 A 
HETATM   21  C6  UNL     1      33.418   4.939  46.323  1.00  0.00     0.002 A 
HETATM   22  C5  UNL     1      32.591   5.945  45.931  1.00  0.00     0.021 A 
BRANCH  20  23
HETATM   23  O1  UNL     1      35.204   3.490  45.832  1.00  0.00    -0.360 OA
HETATM   24  H1  UNL     1      36.181   3.598  45.521  1.00  0.00     0.217 HD
ENDBRANCH  20  23
BRANCH  21  25
HETATM   25  C7  UNL     1      33.082   4.282  47.635  1.00  0.00     0.140 C 
HETATM   26  C8  UNL     1      32.394   5.378  48.465  1.00  0.00     0.003 C 
HETATM   27  C9  UNL     1      32.736   6.705  48.470  1.00  0.00    -0.001 C 
HETATM   28  C10 UNL     1      33.995   7.529  48.342  1.00  0.00     0.013 C 
HETATM   29  C11 UNL     1      35.247   6.999  48.221  1.00  0.00    -0.009 C 
HETATM   30  C12 UNL     1      35.778   5.986  49.216  1.00  0.00     0.030 C 
HETATM   31  C13 UNL     1      35.224   4.726  49.170  1.00  0.00     0.084 C 
HETATM   32  N1  UNL     1      34.317   3.907  48.352  1.00  0.00    -0.387 N 
HETATM   33  H11 UNL     1      34.648   2.939  48.309  1.00  0.00     0.159 HD
ENDBRANCH  21  25
ENDBRANCH   4  17
TORSDOF 6
ENDMDL
MODEL 5
REMARK VINA RESULT:      -8.2      2.004      3.043
REMARK  6 active torsions:
REMARK  status: ('A' for Active; 'I' for Inactive)
REMARK    1  A    between atoms: O1_1  and  C1_2 
REMARK    2  A    between atoms: C4_5  and  C24_30 
REMARK    3  A    between atoms: C6_7  and  C7_8 
REMARK    4  A    between atoms: C11_12  and  C14_16 
REMARK    5  A    between atoms: N3_18  and  C15_19 
REMARK    6  A    between atoms: C16_21  and  C17_22 
ROOT
HETATM    1  C14 UNL     1      19.867   1.596  51.943  1.00  0.00     0.067 C 
HETATM    2  N2  UNL     1      20.520   0.927  52.840  1.00  0.00    -0.173 NA
HETATM    3  N3  UNL     1      21.848   0.691  52.534  1.00  0.00    -0.236 N 
HETATM    4  C24 UNL     1      21.974   1.217  51.158  1.00  0.00     0.151 C 
HETATM    5  C25 UNL     1      20.503   0.894  50.794  1.00  0.00     0.094 C 
ENDROOT
BRANCH   3   6
HETATM    6  C15 UNL     1      22.887   0.097  53.303  1.00  0.00     0.190 A 
HETATM    7  N4  UNL     1      24.083   0.096  53.290  1.00  0.00    -0.222 NA
HETATM    8  C16 UNL     1      24.873  -0.538  54.115  1.00  0.00     0.076 A 
HETATM    9  C23 UNL     1      24.118  -1.322  55.154  1.00  0.00     0.086 A 
HETATM   10  S1  UNL     1      22.412  -0.971  54.712  1.00  0.00    -0.060 SA
BRANCH   8  11
HETATM   11  C17 UNL     1      26.323  -0.500  54.051  1.00  0.00    -0.007 A 
HETATM   12  C18 UNL     1      27.087   0.245  54.911  1.00  0.00     0.014 A 
HETATM   13  C19 UNL     1      28.464   0.278  54.848  1.00  0.00     0.001 A 
HETATM   14  C20 UNL     1      29.154  -0.443  53.905  1.00  0.00     0.000 A 
HETATM   15  C21 UNL     1      28.396  -1.195  53.035  1.00  0.00     0.001 A 
HETATM   16  C22 UNL     1      27.031  -1.212  53.118  1.00  0.00     0.014 A 
ENDBRANCH   8  11
ENDBRANCH   3   6
BRANCH   4  17
HETATM   17  C4  UNL     1      22.052   2.697  51.228  1.00  0.00    -0.032 A 
HETATM   18  C3  UNL     1      22.842   3.385  52.159  1.00  0.00     0.012 A 
HETATM   19  C2  UNL     1      22.777   4.779  52.279  1.00  0.00     0.038 A 
HETATM   20  C1  UNL     1      21.926   5.548  51.484  1.00  0.00     0.074 A 
HETATM   21  C6  UNL     1      21.148   4.891  50.570  1.00  0.00     0.002 A 
HETATM   22  C5  UNL     1      21.267   3.537  50.501  1.00  0.00     0.021 A 
BRANCH  20  23
HETATM   23  O1  UNL     1      21.807   6.926  51.547  1.00  0.00    -0.360 OA
HETATM   24  H1  UNL     1      22.214   7.425  50.741  1.00  0.00     0.217 HD
ENDBRANCH  20  23
BRANCH  21  25
HETATM   25  C7  UNL     1      20.035   5.497  49.759  1.00  0.00     0.140 C 
HETATM   26  C8  UNL     1      20.036   4.718  48.434  1.00  0.00     0.003 C 
HETATM   27  C9  UNL     1      21.152   4.270  47.776  1.00  0.00    -0.001 C 
HETATM   28  C10 UNL     1      22.574   4.726  47.560  1.00  0.00     0.013 C 
HETATM   29  C11 UNL     1      23.080   5.903  48.033  1.00  0.00    -0.009 C 
HETATM   30  C12 UNL     1      22.404   7.228  47.743  1.00  0.00     0.030 C 
HETATM   31  C13 UNL     1      21.209   7.467  48.384  1.00  0.00     0.084 C 
HETATM   32  N1  UNL     1      20.345   6.904  49.434  1.00  0.00    -0.387 N 
HETATM   33  H11 UNL     1      19.925   7.652  49.992  1.00  0.00     0.159 HD
ENDBRANCH  21  25
ENDBRANCH   4  17
TORSDOF 6
ENDMDL
MODEL 6
REMARK VINA RESULT:      -8.1      2.457      5.358
REMARK  6 active torsions:
REMARK  status: ('A' for Active; 'I' for Inactive)
REMARK    1  A    between atoms: O1_1  and  C1_2 
REMARK    2  A    between atoms: C4_5  and  C24_30 
REMARK    3  A    between atoms: C6_7  and  C7_8 
REMARK    4  A    between atoms: C11_12  and  C14_16 
REMARK    5  A    between atoms: N3_18  and  C15_19 
REMARK    6  A    between atoms: C16_21  and  C17_22 
ROOT
HETATM    1  C14 UNL     1      24.844   5.557  48.946  1.00  0.00     0.067 C 
HETATM    2  N2  UNL     1      25.102   4.344  49.321  1.00  0.00    -0.173 NA
HETATM    3  N3  UNL     1      24.746   4.054  50.627  1.00  0.00    -0.236 N 
HETATM    4  C24 UNL     1      24.301   5.364  51.152  1.00  0.00     0.151 C 
HETATM    5  C25 UNL     1      25.261   6.168  50.238  1.00  0.00     0.094 C 
ENDROOT
BRANCH   3   6
HETATM    6  C15 UNL     1      24.774   2.828  51.347  1.00  0.00     0.190 A 
HETATM    7  N4  UNL     1      23.976   2.127  51.896  1.00  0.00    -0.222 NA
HETATM    8  C16 UNL     1      24.219   1.004  52.518  1.00  0.00     0.076 A 
HETATM    9  C23 UNL     1      25.677   0.631  52.492  1.00  0.00     0.086 A 
HETATM   10  S1  UNL     1      26.390   1.996  51.565  1.00  0.00    -0.060 SA
BRANCH   8  11
HETATM   11  C17 UNL     1      23.206   0.193  53.168  1.00  0.00    -0.007 A 
HETATM   12  C18 UNL     1      23.484  -0.645  54.217  1.00  0.00     0.014 A 
HETATM   13  C19 UNL     1      22.519  -1.414  54.833  1.00  0.00     0.001 A 
HETATM   14  C20 UNL     1      21.209  -1.382  54.422  1.00  0.00     0.000 A 
HETATM   15  C21 UNL     1      20.920  -0.542  53.368  1.00  0.00     0.001 A 
HETATM   16  C22 UNL     1      21.893   0.210  52.774  1.00  0.00     0.014 A 
ENDBRANCH   8  11
ENDBRANCH   3   6
BRANCH   4  17
HETATM   17  C4  UNL     1      22.937   5.636  50.634  1.00  0.00    -0.032 A 
HETATM   18  C3  UNL     1      22.453   6.925  50.377  1.00  0.00     0.012 A 
HETATM   19  C2  UNL     1      21.115   7.142  50.021  1.00  0.00     0.038 A 
HETATM   20  C1  UNL     1      20.203   6.092  49.909  1.00  0.00     0.074 A 
HETATM   21  C6  UNL     1      20.661   4.827  50.157  1.00  0.00     0.002 A 
HETATM   22  C5  UNL     1      21.973   4.686  50.490  1.00  0.00     0.021 A 
BRANCH  20  23
HETATM   23  O1  UNL     1      18.869   6.229  49.565  1.00  0.00    -0.360 OA
HETATM   24  H1  UNL     1      18.632   7.137  49.135  1.00  0.00     0.217 HD
ENDBRANCH  20  23
BRANCH  21  25
HETATM   25  C7  UNL     1      19.814   3.589  50.282  1.00  0.00     0.140 C 
HETATM   26  C8  UNL     1      20.759   2.423  49.950  1.00  0.00     0.003 C 
HETATM   27  C9  UNL     1      21.746   2.444  48.998  1.00  0.00    -0.001 C 
HETATM   28  C10 UNL     1      21.969   3.070  47.643  1.00  0.00     0.013 C 
HETATM   29  C11 UNL     1      21.041   3.827  46.987  1.00  0.00    -0.009 C 
HETATM   30  C12 UNL     1      19.636   3.316  46.737  1.00  0.00     0.030 C 
HETATM   31  C13 UNL     1      18.807   3.222  47.833  1.00  0.00     0.084 C 
HETATM   32  N1  UNL     1      18.752   3.589  49.256  1.00  0.00    -0.387 N 
HETATM   33  H11 UNL     1      17.806   3.884  49.514  1.00  0.00     0.159 HD
ENDBRANCH  21  25
ENDBRANCH   4  17
TORSDOF 6
ENDMDL
MODEL 7
REMARK VINA RESULT:      -8.0      8.955     12.318
REMARK  6 active torsions:
REMARK  status: ('A' for Active; 'I' for Inactive)
REMARK    1  A    between atoms: O1_1  and  C1_2 
REMARK    2  A    between atoms: C4_5  and  C24_30 
REMARK    3  A    between atoms: C6_7  and  C7_8 
REMARK    4  A    between atoms: C11_12  and  C14_16 
REMARK    5  A    between atoms: N3_18  and  C15_19 
REMARK    6  A    between atoms: C16_21  and  C17_22 
ROOT
HETATM    1  C14 UNL     1      31.477  11.196  44.942  1.00  0.00     0.067 C 
HETATM    2  N2  UNL     1      31.819  10.056  44.432  1.00  0.00    -0.173 NA
HETATM    3  N3  UNL     1      32.688   9.311  45.209  1.00  0.00    -0.236 N 
HETATM    4  C24 UNL     1      33.006  10.226  46.328  1.00  0.00     0.151 C 
HETATM    5  C25 UNL     1      32.839  11.501  45.462  1.00  0.00     0.094 C 
ENDROOT
BRANCH   3   6
HETATM    6  C15 UNL     1      33.191   7.991  45.037  1.00  0.00     0.190 A 
HETATM    7  N4  UNL     1      33.147   6.961  45.642  1.00  0.00    -0.222 NA
HETATM    8  C16 UNL     1      33.696   5.827  45.296  1.00  0.00     0.076 A 
HETATM    9  C23 UNL     1      34.440   5.918  43.991  1.00  0.00     0.086 A 
HETATM   10  S1  UNL     1      34.183   7.639  43.539  1.00  0.00    -0.060 SA
BRANCH   8  11
HETATM   11  C17 UNL     1      33.608   4.605  46.073  1.00  0.00    -0.007 A 
HETATM   12  C18 UNL     1      32.526   3.764  46.017  1.00  0.00     0.014 A 
HETATM   13  C19 UNL     1      32.445   2.602  46.756  1.00  0.00     0.001 A 
HETATM   14  C20 UNL     1      33.458   2.221  47.602  1.00  0.00     0.000 A 
HETATM   15  C21 UNL     1      34.549   3.060  47.666  1.00  0.00     0.001 A 
HETATM   16  C22 UNL     1      34.607   4.205  46.923  1.00  0.00     0.014 A 
ENDBRANCH   8  11
ENDBRANCH   3   6
BRANCH   4  17
HETATM   17  C4  UNL     1      31.858  10.229  47.269  1.00  0.00    -0.032 A 
HETATM   18  C3  UNL     1      31.480  11.351  48.019  1.00  0.00     0.012 A 
HETATM   19  C2  UNL     1      30.478  11.268  48.995  1.00  0.00     0.038 A 
HETATM   20  C1  UNL     1      29.813  10.072  49.269  1.00  0.00     0.074 A 
HETATM   21  C6  UNL     1      30.172   8.968  48.545  1.00  0.00     0.002 A 
HETATM   22  C5  UNL     1      31.146   9.120  47.607  1.00  0.00     0.021 A 
BRANCH  20  23
HETATM   23  O1  UNL     1      28.817   9.914  50.218  1.00  0.00    -0.360 OA
HETATM   24  H1  UNL     1      29.093  10.186  51.173  1.00  0.00     0.217 HD
ENDBRANCH  20  23
BRANCH  21  25
HETATM   25  C7  UNL     1      29.726   7.555  48.808  1.00  0.00     0.140 C 
HETATM   26  C8  UNL     1      29.826   6.844  47.449  1.00  0.00     0.003 C 
HETATM   27  C9  UNL     1      29.528   7.405  46.234  1.00  0.00    -0.001 C 
HETATM   28  C10 UNL     1      28.546   8.413  45.686  1.00  0.00     0.013 C 
HETATM   29  C11 UNL     1      27.578   9.022  46.431  1.00  0.00    -0.009 C 
HETATM   30  C12 UNL     1      26.592   8.219  47.256  1.00  0.00     0.030 C 
HETATM   31  C13 UNL     1      27.088   7.597  48.381  1.00  0.00     0.084 C 
HETATM   32  N1  UNL     1      28.304   7.531  49.205  1.00  0.00    -0.387 N 
HETATM   33  H11 UNL     1      28.061   7.461  50.198  1.00  0.00     0.159 HD
ENDBRANCH  21  25
ENDBRANCH   4  17
TORSDOF 6
ENDMDL
MODEL 8
REMARK VINA RESULT:      -7.9      1.989      4.351
REMARK  6 active torsions:
REMARK  status: ('A' for Active; 'I' for Inactive)
REMARK    1  A    between atoms: O1_1  and  C1_2 
REMARK    2  A    between atoms: C4_5  and  C24_30 
REMARK    3  A    between atoms: C6_7  and  C7_8 
REMARK    4  A    between atoms: C11_12  and  C14_16 
REMARK    5  A    between atoms: N3_18  and  C15_19 
REMARK    6  A    between atoms: C16_21  and  C17_22 
ROOT
HETATM    1  C14 UNL     1      25.801   4.889  48.975  1.00  0.00     0.067 C 
HETATM    2  N2  UNL     1      26.322   3.947  49.698  1.00  0.00    -0.173 NA
HETATM    3  N3  UNL     1      25.569   3.581  50.800  1.00  0.00    -0.236 N 
HETATM    4  C24 UNL     1      24.459   4.559  50.789  1.00  0.00     0.151 C 
HETATM    5  C25 UNL     1      25.319   5.676  50.144  1.00  0.00     0.094 C 
ENDROOT
BRANCH   3   6
HETATM    6  C15 UNL     1      25.756   2.536  51.748  1.00  0.00     0.190 A 
HETATM    7  N4  UNL     1      26.526   1.634  51.902  1.00  0.00    -0.222 NA
HETATM    8  C16 UNL     1      26.520   0.760  52.873  1.00  0.00     0.076 A 
HETATM    9  C23 UNL     1      25.398   0.986  53.850  1.00  0.00     0.086 A 
HETATM   10  S1  UNL     1      24.585   2.427  53.150  1.00  0.00    -0.060 SA
BRANCH   8  11
HETATM   11  C17 UNL     1      27.483  -0.318  53.009  1.00  0.00    -0.007 A 
HETATM   12  C18 UNL     1      27.174  -1.629  52.753  1.00  0.00     0.014 A 
HETATM   13  C19 UNL     1      28.092  -2.650  52.883  1.00  0.00     0.001 A 
HETATM   14  C20 UNL     1      29.383  -2.405  53.281  1.00  0.00     0.000 A 
HETATM   15  C21 UNL     1      29.704  -1.090  53.540  1.00  0.00     0.001 A 
HETATM   16  C22 UNL     1      28.777  -0.095  53.405  1.00  0.00     0.014 A 
ENDBRANCH   8  11
ENDBRANCH   3   6
BRANCH   4  17
HETATM   17  C4  UNL     1      23.487   4.151  49.745  1.00  0.00    -0.032 A 
HETATM   18  C3  UNL     1      23.015   5.017  48.750  1.00  0.00     0.012 A 
HETATM   19  C2  UNL     1      21.995   4.628  47.871  1.00  0.00     0.038 A 
HETATM   20  C1  UNL     1      21.400   3.368  47.944  1.00  0.00     0.074 A 
HETATM   21  C6  UNL     1      21.851   2.511  48.912  1.00  0.00     0.002 A 
HETATM   22  C5  UNL     1      22.849   2.949  49.726  1.00  0.00     0.021 A 
BRANCH  20  23
HETATM   23  O1  UNL     1      20.389   2.915  47.114  1.00  0.00    -0.360 OA
HETATM   24  H1  UNL     1      19.633   2.412  47.602  1.00  0.00     0.217 HD
ENDBRANCH  20  23
BRANCH  21  25
HETATM   25  C7  UNL     1      21.224   1.195  49.287  1.00  0.00     0.140 C 
HETATM   26  C8  UNL     1      19.724   1.494  49.433  1.00  0.00     0.003 C 
HETATM   27  C9  UNL     1      19.188   2.642  49.955  1.00  0.00    -0.001 C 
HETATM   28  C10 UNL     1      19.537   3.643  51.030  1.00  0.00     0.013 C 
HETATM   29  C11 UNL     1      20.623   3.538  51.850  1.00  0.00    -0.009 C 
HETATM   30  C12 UNL     1      20.884   2.283  52.660  1.00  0.00     0.030 C 
HETATM   31  C13 UNL     1      21.285   1.167  51.960  1.00  0.00     0.084 C 
HETATM   32  N1  UNL     1      21.708   0.757  50.612  1.00  0.00    -0.387 N 
HETATM   33  H11 UNL     1      22.457   0.060  50.668  1.00  0.00     0.159 HD
ENDBRANCH  21  25
ENDBRANCH   4  17
TORSDOF 6
ENDMDL
MODEL 9
REMARK VINA RESULT:      -7.8      4.691      7.197
REMARK  6 active torsions:
REMARK  status: ('A' for Active; 'I' for Inactive)
REMARK    1  A    between atoms: O1_1  and  C1_2 
REMARK    2  A    between atoms: C4_5  and  C24_30 
REMARK    3  A    between atoms: C6_7  and  C7_8 
REMARK    4  A    between atoms: C11_12  and  C14_16 
REMARK    5  A    between atoms: N3_18  and  C15_19 
REMARK    6  A    between atoms: C16_21  and  C17_22 
ROOT
HETATM    1  C14 UNL     1      25.753   7.968  50.193  1.00  0.00     0.067 C 
HETATM    2  N2  UNL     1      25.267   6.937  50.809  1.00  0.00    -0.173 NA
HETATM    3  N3  UNL     1      25.020   5.842  50.000  1.00  0.00    -0.236 N 
HETATM    4  C24 UNL     1      25.306   6.357  48.643  1.00  0.00     0.151 C 
HETATM    5  C25 UNL     1      24.883   7.806  48.996  1.00  0.00     0.094 C 
ENDROOT
BRANCH   3   6
HETATM    6  C15 UNL     1      24.597   4.523  50.324  1.00  0.00     0.190 A 
HETATM    7  N4  UNL     1      25.049   3.591  50.922  1.00  0.00    -0.222 NA
HETATM    8  C16 UNL     1      24.476   2.431  51.109  1.00  0.00     0.076 A 
HETATM    9  C23 UNL     1      23.114   2.349  50.474  1.00  0.00     0.086 A 
HETATM   10  S1  UNL     1      22.952   3.979  49.736  1.00  0.00    -0.060 SA
BRANCH   8  11
HETATM   11  C17 UNL     1      25.074   1.333  51.846  1.00  0.00    -0.007 A 
HETATM   12  C18 UNL     1      24.392   0.616  52.795  1.00  0.00     0.014 A 
HETATM   13  C19 UNL     1      24.963  -0.427  53.494  1.00  0.00     0.001 A 
HETATM   14  C20 UNL     1      26.264  -0.808  53.274  1.00  0.00     0.000 A 
HETATM   15  C21 UNL     1      26.957  -0.093  52.322  1.00  0.00     0.001 A 
HETATM   16  C22 UNL     1      26.370   0.937  51.642  1.00  0.00     0.014 A 
ENDBRANCH   8  11
ENDBRANCH   3   6
BRANCH   4  17
HETATM   17  C4  UNL     1      26.779   6.405  48.462  1.00  0.00    -0.032 A 
HETATM   18  C3  UNL     1      27.596   5.267  48.485  1.00  0.00     0.012 A 
HETATM   19  C2  UNL     1      28.992   5.374  48.448  1.00  0.00     0.038 A 
HETATM   20  C1  UNL     1      29.636   6.611  48.390  1.00  0.00     0.074 A 
HETATM   21  C6  UNL     1      28.851   7.732  48.367  1.00  0.00     0.002 A 
HETATM   22  C5  UNL     1      27.502   7.556  48.397  1.00  0.00     0.021 A 
BRANCH  20  23
HETATM   23  O1  UNL     1      31.007   6.795  48.353  1.00  0.00    -0.360 OA
HETATM   24  H1  UNL     1      31.308   7.652  47.865  1.00  0.00     0.217 HD
ENDBRANCH  20  23
BRANCH  21  25
HETATM   25  C7  UNL     1      29.333   9.152  48.501  1.00  0.00     0.140 C 
HETATM   26  C8  UNL     1      28.364   9.984  47.645  1.00  0.00     0.003 C 
HETATM   27  C9  UNL     1      27.818   9.592  46.451  1.00  0.00    -0.001 C 
HETATM   28  C10 UNL     1      28.232   8.766  45.258  1.00  0.00     0.013 C 
HETATM   29  C11 UNL     1      29.465   8.196  45.111  1.00  0.00    -0.009 C 
HETATM   30  C12 UNL     1      30.734   9.016  45.231  1.00  0.00     0.030 C 
HETATM   31  C13 UNL     1      31.070   9.456  46.492  1.00  0.00     0.084 C 
HETATM   32  N1  UNL     1      30.674   9.296  47.899  1.00  0.00    -0.387 N 
HETATM   33  H11 UNL     1      31.499   9.289  48.506  1.00  0.00     0.159 HD
ENDBRANCH  21  25
ENDBRANCH   4  17
TORSDOF 6
ENDMDL
