MODEL 1
REMARK VINA RESULT:      -8.1      0.000      0.000
REMARK  5 active torsions:
REMARK  status: ('A' for Active; 'I' for Inactive)
REMARK    1  A    between atoms: C3_3  and  C4_5 
REMARK    2  A    between atoms: C11_16  and  N4_17 
REMARK       I    between atoms: N4_17  and  C12_18 
REMARK    3  A    between atoms: C12_18  and  C13_20 
REMARK    4  A    between atoms: C13_20  and  C14_21 
REMARK    5  A    between atoms: C14_21  and  O2_22 
ROOT
HETATM    1  C4  UNL     1      23.983   3.416  51.799  1.00  0.00     0.101 C 
HETATM    2 CL1  UNL     1      22.728   4.349  52.587  1.00  0.00    -0.079 Cl
HETATM    3  C5  UNL     1      24.863   4.001  51.047  1.00  0.00     0.085 C 
HETATM    4  N1  UNL     1      24.560   5.430  51.027  1.00  0.00    -0.341 N 
HETATM    5  C6  UNL     1      24.876   6.426  50.072  1.00  0.00     0.111 C 
HETATM    6  N2  UNL     1      25.231   7.615  50.459  1.00  0.00    -0.228 NA
HETATM    7  C7  UNL     1      26.541   8.072  49.828  1.00  0.00     0.235 C 
HETATM    8  N3  UNL     1      27.239   7.278  48.947  1.00  0.00    -0.246 NA
HETATM    9  C8  UNL     1      26.555   6.015  48.721  1.00  0.00     0.043 C 
HETATM   10  C9  UNL     1      27.233   4.888  48.821  1.00  0.00     0.030 C 
HETATM   11  C10 UNL     1      26.780   3.589  49.397  1.00  0.00     0.034 C 
HETATM   12  C11 UNL     1      25.960   3.272  50.395  1.00  0.00     0.063 C 
HETATM   13  C16 UNL     1      25.041   6.345  48.528  1.00  0.00     0.137 C 
HETATM   14  H5  UNL     1      24.078   5.972  51.748  1.00  0.00     0.167 HD
ENDROOT
BRANCH  12  15
HETATM   15  N4  UNL     1      26.156   2.061  50.999  1.00  0.00    -0.325 N 
HETATM   16  C12 UNL     1      27.027   1.576  51.992  1.00  0.00     0.224 C 
HETATM   17  O1  UNL     1      27.848   2.369  52.510  1.00  0.00    -0.273 OA
HETATM   18  H9  UNL     1      25.600   1.228  50.757  1.00  0.00     0.169 HD
BRANCH  16  19
HETATM   19  C13 UNL     1      27.183   0.226  52.593  1.00  0.00     0.129 C 
BRANCH  19  20
HETATM   20  C14 UNL     1      27.625   0.460  54.020  1.00  0.00     0.176 C 
BRANCH  20  21
HETATM   21  O2  UNL     1      28.361  -0.542  54.577  1.00  0.00    -0.395 OA
HETATM   22  C15 UNL     1      29.520  -0.742  53.842  1.00  0.00     0.201 C 
ENDBRANCH  20  21
ENDBRANCH  19  20
ENDBRANCH  16  19
ENDBRANCH  12  15
BRANCH   1  23
HETATM   23  C3  UNL     1      23.345   2.318  52.459  1.00  0.00     0.136 C 
HETATM   24  C2  UNL     1      22.099   1.802  52.493  1.00  0.00     0.013 C 
HETATM   25  C1  UNL     1      22.165   0.641  53.434  1.00  0.00     0.039 C 
HETATM   26  F1  UNL     1      23.925   1.428  53.339  1.00  0.00    -0.205 F 
ENDBRANCH   1  23
TORSDOF 5
ENDMDL
MODEL 2
REMARK VINA RESULT:      -7.8      1.741      2.288
REMARK  5 active torsions:
REMARK  status: ('A' for Active; 'I' for Inactive)
REMARK    1  A    between atoms: C3_3  and  C4_5 
REMARK    2  A    between atoms: C11_16  and  N4_17 
REMARK       I    between atoms: N4_17  and  C12_18 
REMARK    3  A    between atoms: C12_18  and  C13_20 
REMARK    4  A    between atoms: C13_20  and  C14_21 
REMARK    5  A    between atoms: C14_21  and  O2_22 
ROOT
HETATM    1  C4  UNL     1      23.186   1.374  52.537  1.00  0.00     0.101 C 
HETATM    2 CL1  UNL     1      21.490   1.772  52.716  1.00  0.00    -0.079 Cl
HETATM    3  C5  UNL     1      23.979   2.157  51.873  1.00  0.00     0.085 C 
HETATM    4  N1  UNL     1      23.191   3.282  51.378  1.00  0.00    -0.341 N 
HETATM    5  C6  UNL     1      23.407   4.146  50.278  1.00  0.00     0.111 C 
HETATM    6  N2  UNL     1      23.146   5.415  50.380  1.00  0.00    -0.228 NA
HETATM    7  C7  UNL     1      24.320   6.294  49.964  1.00  0.00     0.235 C 
HETATM    8  N3  UNL     1      25.511   5.757  49.532  1.00  0.00    -0.246 NA
HETATM    9  C8  UNL     1      25.462   4.304  49.524  1.00  0.00     0.043 C 
HETATM   10  C9  UNL     1      26.437   3.623  50.095  1.00  0.00     0.030 C 
HETATM   11  C10 UNL     1      26.339   2.370  50.896  1.00  0.00     0.034 C 
HETATM   12  C11 UNL     1      25.417   1.891  51.727  1.00  0.00     0.063 C 
HETATM   13  C16 UNL     1      24.088   3.897  48.902  1.00  0.00     0.137 C 
HETATM   14  H5  UNL     1      22.333   3.665  51.783  1.00  0.00     0.167 HD
ENDROOT
BRANCH  12  15
HETATM   15  N4  UNL     1      25.840   1.004  52.679  1.00  0.00    -0.325 N 
HETATM   16  C12 UNL     1      26.389   1.121  53.969  1.00  0.00     0.224 C 
HETATM   17  O1  UNL     1      26.562   2.267  54.447  1.00  0.00    -0.273 OA
HETATM   18  H9  UNL     1      25.800  -0.016  52.539  1.00  0.00     0.169 HD
BRANCH  16  19
HETATM   19  C13 UNL     1      26.835   0.096  54.947  1.00  0.00     0.129 C 
BRANCH  19  20
HETATM   20  C14 UNL     1      28.341   0.042  54.831  1.00  0.00     0.176 C 
BRANCH  20  21
HETATM   21  O2  UNL     1      28.830  -0.002  53.560  1.00  0.00    -0.395 OA
HETATM   22  C15 UNL     1      29.730  -1.050  53.436  1.00  0.00     0.201 C 
ENDBRANCH  20  21
ENDBRANCH  19  20
ENDBRANCH  16  19
ENDBRANCH  12  15
BRANCH   1  23
HETATM   23  C3  UNL     1      22.824   0.230  53.318  1.00  0.00     0.136 C 
HETATM   24  C2  UNL     1      21.862  -0.063  54.215  1.00  0.00     0.013 C 
HETATM   25  C1  UNL     1      22.119  -1.473  54.642  1.00  0.00     0.039 C 
HETATM   26  F1  UNL     1      23.468  -0.990  53.351  1.00  0.00    -0.205 F 
ENDBRANCH   1  23
TORSDOF 5
ENDMDL
MODEL 3
REMARK VINA RESULT:      -7.5      4.347      6.722
REMARK  5 active torsions:
REMARK  status: ('A' for Active; 'I' for Inactive)
REMARK    1  A    between atoms: C3_3  and  C4_5 
REMARK    2  A    between atoms: C11_16  and  N4_17 
REMARK       I    between atoms: N4_17  and  C12_18 
REMARK    3  A    between atoms: C12_18  and  C13_20 
REMARK    4  A    between atoms: C13_20  and  C14_21 
REMARK    5  A    between atoms: C14_21  and  O2_22 
ROOT
HETATM    1  C4  UNL     1      22.483  -0.126  53.009  1.00  0.00     0.101 C 
HETATM    2 CL1  UNL     1      22.279  -1.861  53.136  1.00  0.00    -0.079 Cl
HETATM    3  C5  UNL     1      23.662   0.406  53.112  1.00  0.00     0.085 C 
HETATM    4  N1  UNL     1      24.624  -0.669  53.341  1.00  0.00    -0.341 N 
HETATM    5  C6  UNL     1      25.901  -0.649  53.950  1.00  0.00     0.111 C 
HETATM    6  N2  UNL     1      26.873  -1.357  53.457  1.00  0.00    -0.228 NA
HETATM    7  C7  UNL     1      28.132  -0.535  53.205  1.00  0.00     0.235 C 
HETATM    8  N3  UNL     1      28.188   0.811  53.486  1.00  0.00    -0.246 NA
HETATM    9  C8  UNL     1      26.931   1.287  54.041  1.00  0.00     0.043 C 
HETATM   10  C9  UNL     1      26.370   2.367  53.533  1.00  0.00     0.030 C 
HETATM   11  C10 UNL     1      24.921   2.630  53.304  1.00  0.00     0.034 C 
HETATM   12  C11 UNL     1      23.895   1.851  52.974  1.00  0.00     0.063 C 
HETATM   13  C16 UNL     1      26.472   0.232  55.097  1.00  0.00     0.137 C 
HETATM   14  H5  UNL     1      24.539  -1.648  53.056  1.00  0.00     0.167 HD
ENDROOT
BRANCH  12  15
HETATM   15  N4  UNL     1      22.839   2.448  52.341  1.00  0.00    -0.325 N 
HETATM   16  C12 UNL     1      22.544   2.790  51.008  1.00  0.00     0.224 C 
HETATM   17  O1  UNL     1      23.383   2.514  50.118  1.00  0.00    -0.273 OA
HETATM   18  H9  UNL     1      22.003   2.771  52.850  1.00  0.00     0.169 HD
BRANCH  16  19
HETATM   19  C13 UNL     1      21.363   3.453  50.398  1.00  0.00     0.129 C 
BRANCH  19  20
HETATM   20  C14 UNL     1      20.696   4.217  51.519  1.00  0.00     0.176 C 
BRANCH  20  21
HETATM   21  O2  UNL     1      19.837   3.495  52.291  1.00  0.00    -0.395 OA
HETATM   22  C15 UNL     1      18.673   3.231  51.583  1.00  0.00     0.201 C 
ENDBRANCH  20  21
ENDBRANCH  19  20
ENDBRANCH  16  19
ENDBRANCH  12  15
BRANCH   1  23
HETATM   23  C3  UNL     1      21.064  -0.143  52.826  1.00  0.00     0.136 C 
HETATM   24  C2  UNL     1      19.998  -0.508  53.567  1.00  0.00     0.013 C 
HETATM   25  C1  UNL     1      18.800  -0.261  52.705  1.00  0.00     0.039 C 
HETATM   26  F1  UNL     1      20.367   0.243  51.699  1.00  0.00    -0.205 F 
ENDBRANCH   1  23
TORSDOF 5
ENDMDL
MODEL 4
REMARK VINA RESULT:      -7.4      3.898      6.723
REMARK  5 active torsions:
REMARK  status: ('A' for Active; 'I' for Inactive)
REMARK    1  A    between atoms: C3_3  and  C4_5 
REMARK    2  A    between atoms: C11_16  and  N4_17 
REMARK       I    between atoms: N4_17  and  C12_18 
REMARK    3  A    between atoms: C12_18  and  C13_20 
REMARK    4  A    between atoms: C13_20  and  C14_21 
REMARK    5  A    between atoms: C14_21  and  O2_22 
ROOT
HETATM    1  C4  UNL     1      24.739   2.516  50.554  1.00  0.00     0.101 C 
HETATM    2 CL1  UNL     1      26.087   3.239  49.703  1.00  0.00    -0.079 Cl
HETATM    3  C5  UNL     1      24.943   1.753  51.584  1.00  0.00     0.085 C 
HETATM    4  N1  UNL     1      26.385   1.664  51.799  1.00  0.00    -0.341 N 
HETATM    5  C6  UNL     1      27.160   0.670  52.442  1.00  0.00     0.111 C 
HETATM    6  N2  UNL     1      28.169   1.009  53.191  1.00  0.00    -0.228 NA
HETATM    7  C7  UNL     1      28.109   0.381  54.578  1.00  0.00     0.235 C 
HETATM    8  N3  UNL     1      27.079  -0.451  54.955  1.00  0.00    -0.246 NA
HETATM    9  C8  UNL     1      26.125  -0.631  53.873  1.00  0.00     0.043 C 
HETATM   10  C9  UNL     1      24.838  -0.469  54.115  1.00  0.00     0.030 C 
HETATM   11  C10 UNL     1      23.809   0.157  53.237  1.00  0.00     0.034 C 
HETATM   12  C11 UNL     1      23.846   1.154  52.358  1.00  0.00     0.063 C 
HETATM   13  C16 UNL     1      26.952  -0.866  52.570  1.00  0.00     0.137 C 
HETATM   14  H5  UNL     1      27.095   2.351  51.536  1.00  0.00     0.167 HD
ENDROOT
BRANCH  12  15
HETATM   15  N4  UNL     1      22.673   1.816  52.118  1.00  0.00    -0.325 N 
HETATM   16  C12 UNL     1      21.406   1.445  51.632  1.00  0.00     0.224 C 
HETATM   17  O1  UNL     1      21.207   0.245  51.328  1.00  0.00    -0.273 OA
HETATM   18  H9  UNL     1      22.565   2.825  52.292  1.00  0.00     0.169 HD
BRANCH  16  19
HETATM   19  C13 UNL     1      20.172   2.237  51.391  1.00  0.00     0.129 C 
BRANCH  19  20
HETATM   20  C14 UNL     1      20.448   3.611  51.957  1.00  0.00     0.176 C 
BRANCH  20  21
HETATM   21  O2  UNL     1      21.028   4.494  51.097  1.00  0.00    -0.395 OA
HETATM   22  C15 UNL     1      21.921   5.304  51.784  1.00  0.00     0.201 C 
ENDBRANCH  20  21
ENDBRANCH  19  20
ENDBRANCH  16  19
ENDBRANCH  12  15
BRANCH   1  23
HETATM   23  C3  UNL     1      23.965   3.214  49.573  1.00  0.00     0.136 C 
HETATM   24  C2  UNL     1      23.031   2.878  48.661  1.00  0.00     0.013 C 
HETATM   25  C1  UNL     1      22.674   4.148  47.956  1.00  0.00     0.039 C 
HETATM   26  F1  UNL     1      24.014   4.561  49.281  1.00  0.00    -0.205 F 
ENDBRANCH   1  23
TORSDOF 5
ENDMDL
MODEL 5
REMARK VINA RESULT:      -7.4      2.880      6.249
REMARK  5 active torsions:
REMARK  status: ('A' for Active; 'I' for Inactive)
REMARK    1  A    between atoms: C3_3  and  C4_5 
REMARK    2  A    between atoms: C11_16  and  N4_17 
REMARK       I    between atoms: N4_17  and  C12_18 
REMARK    3  A    between atoms: C12_18  and  C13_20 
REMARK    4  A    between atoms: C13_20  and  C14_21 
REMARK    5  A    between atoms: C14_21  and  O2_22 
ROOT
HETATM    1  C4  UNL     1      24.385   0.744  52.641  1.00  0.00     0.101 C 
HETATM    2 CL1  UNL     1      23.633  -0.815  52.903  1.00  0.00    -0.079 Cl
HETATM    3  C5  UNL     1      25.665   0.892  52.795  1.00  0.00     0.085 C 
HETATM    4  N1  UNL     1      26.221  -0.398  53.198  1.00  0.00    -0.341 N 
HETATM    5  C6  UNL     1      27.405  -0.709  53.908  1.00  0.00     0.111 C 
HETATM    6  N2  UNL     1      28.125  -1.735  53.563  1.00  0.00    -0.228 NA
HETATM    7  C7  UNL     1      29.592  -1.379  53.346  1.00  0.00     0.235 C 
HETATM    8  N3  UNL     1      30.059  -0.094  53.510  1.00  0.00    -0.246 NA
HETATM    9  C8  UNL     1      28.992   0.807  53.914  1.00  0.00     0.043 C 
HETATM   10  C9  UNL     1      28.830   1.945  53.267  1.00  0.00     0.030 C 
HETATM   11  C10 UNL     1      27.555   2.620  52.895  1.00  0.00     0.034 C 
HETATM   12  C11 UNL     1      26.352   2.168  52.550  1.00  0.00     0.063 C 
HETATM   13  C16 UNL     1      28.166   0.071  55.017  1.00  0.00     0.137 C 
HETATM   14  H5  UNL     1      25.845  -1.326  52.995  1.00  0.00     0.167 HD
ENDROOT
BRANCH  12  15
HETATM   15  N4  UNL     1      25.576   2.990  51.781  1.00  0.00    -0.325 N 
HETATM   16  C12 UNL     1      25.609   3.420  50.442  1.00  0.00     0.224 C 
HETATM   17  O1  UNL     1      26.524   2.996  49.697  1.00  0.00    -0.273 OA
HETATM   18  H9  UNL     1      24.743   3.469  52.154  1.00  0.00     0.169 HD
BRANCH  16  19
HETATM   19  C13 UNL     1      24.721   4.333  49.677  1.00  0.00     0.129 C 
BRANCH  19  20
HETATM   20  C14 UNL     1      24.079   5.238  50.703  1.00  0.00     0.176 C 
BRANCH  20  21
HETATM   21  O2  UNL     1      23.147   4.649  51.504  1.00  0.00    -0.395 OA
HETATM   22  C15 UNL     1      22.036   5.472  51.620  1.00  0.00     0.201 C 
ENDBRANCH  20  21
ENDBRANCH  19  20
ENDBRANCH  16  19
ENDBRANCH  12  15
BRANCH   1  23
HETATM   23  C3  UNL     1      23.046   1.151  52.342  1.00  0.00     0.136 C 
HETATM   24  C2  UNL     1      22.317   1.328  51.221  1.00  0.00     0.013 C 
HETATM   25  C1  UNL     1      20.971   1.793  51.680  1.00  0.00     0.039 C 
HETATM   26  F1  UNL     1      22.068   1.519  53.243  1.00  0.00    -0.205 F 
ENDBRANCH   1  23
TORSDOF 5
ENDMDL
MODEL 6
REMARK VINA RESULT:      -7.1      4.069      6.256
REMARK  5 active torsions:
REMARK  status: ('A' for Active; 'I' for Inactive)
REMARK    1  A    between atoms: C3_3  and  C4_5 
REMARK    2  A    between atoms: C11_16  and  N4_17 
REMARK       I    between atoms: N4_17  and  C12_18 
REMARK    3  A    between atoms: C12_18  and  C13_20 
REMARK    4  A    between atoms: C13_20  and  C14_21 
REMARK    5  A    between atoms: C14_21  and  O2_22 
ROOT
HETATM    1  C4  UNL     1      23.551   2.406  52.786  1.00  0.00     0.101 C 
HETATM    2 CL1  UNL     1      23.797   4.140  52.765  1.00  0.00    -0.079 Cl
HETATM    3  C5  UNL     1      24.529   1.606  53.081  1.00  0.00     0.085 C 
HETATM    4  N1  UNL     1      25.714   2.420  53.340  1.00  0.00    -0.341 N 
HETATM    5  C6  UNL     1      27.089   2.098  53.257  1.00  0.00     0.111 C 
HETATM    6  N2  UNL     1      27.923   2.548  54.148  1.00  0.00    -0.228 NA
HETATM    7  C7  UNL     1      28.771   1.446  54.772  1.00  0.00     0.235 C 
HETATM    8  N3  UNL     1      28.635   0.127  54.400  1.00  0.00    -0.246 NA
HETATM    9  C8  UNL     1      27.623  -0.028  53.368  1.00  0.00     0.043 C 
HETATM   10  C9  UNL     1      26.687  -0.945  53.517  1.00  0.00     0.030 C 
HETATM   11  C10 UNL     1      25.243  -0.854  53.156  1.00  0.00     0.034 C 
HETATM   12  C11 UNL     1      24.367   0.147  53.152  1.00  0.00     0.063 C 
HETATM   13  C16 UNL     1      27.854   1.113  52.327  1.00  0.00     0.137 C 
HETATM   14  H5  UNL     1      25.742   3.388  53.668  1.00  0.00     0.167 HD
ENDROOT
BRANCH  12  15
HETATM   15  N4  UNL     1      23.046  -0.183  53.277  1.00  0.00    -0.325 N 
HETATM   16  C12 UNL     1      22.269  -0.812  54.268  1.00  0.00     0.224 C 
HETATM   17  O1  UNL     1      22.832  -1.185  55.325  1.00  0.00    -0.273 OA
HETATM   18  H9  UNL     1      22.354   0.021  52.541  1.00  0.00     0.169 HD
BRANCH  16  19
HETATM   19  C13 UNL     1      20.823  -1.144  54.324  1.00  0.00     0.129 C 
BRANCH  19  20
HETATM   20  C14 UNL     1      20.209  -0.520  53.092  1.00  0.00     0.176 C 
BRANCH  20  21
HETATM   21  O2  UNL     1      18.869  -0.711  52.942  1.00  0.00    -0.395 OA
HETATM   22  C15 UNL     1      18.384   0.107  51.932  1.00  0.00     0.201 C 
ENDBRANCH  20  21
ENDBRANCH  19  20
ENDBRANCH  16  19
ENDBRANCH  12  15
BRANCH   1  23
HETATM   23  C3  UNL     1      22.214   2.762  52.422  1.00  0.00     0.136 C 
HETATM   24  C2  UNL     1      21.636   3.450  51.416  1.00  0.00     0.013 C 
HETATM   25  C1  UNL     1      20.168   3.435  51.703  1.00  0.00     0.039 C 
HETATM   26  F1  UNL     1      21.057   2.463  53.112  1.00  0.00    -0.205 F 
ENDBRANCH   1  23
TORSDOF 5
ENDMDL
MODEL 7
REMARK VINA RESULT:      -6.9      2.859      4.451
REMARK  5 active torsions:
REMARK  status: ('A' for Active; 'I' for Inactive)
REMARK    1  A    between atoms: C3_3  and  C4_5 
REMARK    2  A    between atoms: C11_16  and  N4_17 
REMARK       I    between atoms: N4_17  and  C12_18 
REMARK    3  A    between atoms: C12_18  and  C13_20 
REMARK    4  A    between atoms: C13_20  and  C14_21 
REMARK    5  A    between atoms: C14_21  and  O2_22 
ROOT
HETATM    1  C4  UNL     1      25.216   2.285  51.913  1.00  0.00     0.101 C 
HETATM    2 CL1  UNL     1      26.796   2.272  51.158  1.00  0.00    -0.079 Cl
HETATM    3  C5  UNL     1      24.364   3.225  51.640  1.00  0.00     0.085 C 
HETATM    4  N1  UNL     1      24.992   4.138  50.687  1.00  0.00    -0.341 N 
HETATM    5  C6  UNL     1      24.732   5.501  50.410  1.00  0.00     0.111 C 
HETATM    6  N2  UNL     1      24.763   5.938  49.186  1.00  0.00    -0.228 NA
HETATM    7  C7  UNL     1      23.499   6.697  48.798  1.00  0.00     0.235 C 
HETATM    8  N3  UNL     1      22.461   6.877  49.684  1.00  0.00    -0.246 NA
HETATM    9  C8  UNL     1      22.757   6.274  50.973  1.00  0.00     0.043 C 
HETATM   10  C9  UNL     1      21.864   5.481  51.534  1.00  0.00     0.030 C 
HETATM   11  C10 UNL     1      22.101   4.227  52.304  1.00  0.00     0.034 C 
HETATM   12  C11 UNL     1      23.012   3.262  52.214  1.00  0.00     0.063 C 
HETATM   13  C16 UNL     1      24.230   6.653  51.326  1.00  0.00     0.137 C 
HETATM   14  H5  UNL     1      25.731   3.922  50.015  1.00  0.00     0.167 HD
ENDROOT
BRANCH  12  15
HETATM   15  N4  UNL     1      22.662   2.030  52.695  1.00  0.00    -0.325 N 
HETATM   16  C12 UNL     1      22.048   0.889  52.148  1.00  0.00     0.224 C 
HETATM   17  O1  UNL     1      21.714   0.907  50.940  1.00  0.00    -0.273 OA
HETATM   18  H9  UNL     1      22.834   1.751  53.672  1.00  0.00     0.169 HD
BRANCH  16  19
HETATM   19  C13 UNL     1      21.691  -0.422  52.748  1.00  0.00     0.129 C 
BRANCH  19  20
HETATM   20  C14 UNL     1      21.384  -0.140  54.201  1.00  0.00     0.176 C 
BRANCH  20  21
HETATM   21  O2  UNL     1      21.620  -1.169  55.062  1.00  0.00    -0.395 OA
HETATM   22  C15 UNL     1      22.987  -1.324  55.249  1.00  0.00     0.201 C 
ENDBRANCH  20  21
ENDBRANCH  19  20
ENDBRANCH  16  19
ENDBRANCH  12  15
BRANCH   1  23
HETATM   23  C3  UNL     1      25.695   1.093  52.543  1.00  0.00     0.136 C 
HETATM   24  C2  UNL     1      26.557   0.108  52.220  1.00  0.00     0.013 C 
HETATM   25  C1  UNL     1      26.546  -0.839  53.378  1.00  0.00     0.039 C 
HETATM   26  F1  UNL     1      25.327   0.602  53.779  1.00  0.00    -0.205 F 
ENDBRANCH   1  23
TORSDOF 5
ENDMDL
MODEL 8
REMARK VINA RESULT:      -6.5      3.525      6.643
REMARK  5 active torsions:
REMARK  status: ('A' for Active; 'I' for Inactive)
REMARK    1  A    between atoms: C3_3  and  C4_5 
REMARK    2  A    between atoms: C11_16  and  N4_17 
REMARK       I    between atoms: N4_17  and  C12_18 
REMARK    3  A    between atoms: C12_18  and  C13_20 
REMARK    4  A    between atoms: C13_20  and  C14_21 
REMARK    5  A    between atoms: C14_21  and  O2_22 
ROOT
HETATM    1  C4  UNL     1      24.720   3.864  49.898  1.00  0.00     0.101 C 
HETATM    2 CL1  UNL     1      26.099   4.743  49.273  1.00  0.00    -0.079 Cl
HETATM    3  C5  UNL     1      24.865   3.010  50.863  1.00  0.00     0.085 C 
HETATM    4  N1  UNL     1      26.281   2.975  51.224  1.00  0.00    -0.341 N 
HETATM    5  C6  UNL     1      27.048   1.963  51.846  1.00  0.00     0.111 C 
HETATM    6  N2  UNL     1      27.950   2.274  52.729  1.00  0.00    -0.228 NA
HETATM    7  C7  UNL     1      27.789   1.502  54.034  1.00  0.00     0.235 C 
HETATM    8  N3  UNL     1      26.781   0.582  54.213  1.00  0.00    -0.246 NA
HETATM    9  C8  UNL     1      25.957   0.465  53.021  1.00  0.00     0.043 C 
HETATM   10  C9  UNL     1      24.644   0.533  53.136  1.00  0.00     0.030 C 
HETATM   11  C10 UNL     1      23.672   1.191  52.218  1.00  0.00     0.034 C 
HETATM   12  C11 UNL     1      23.736   2.275  51.450  1.00  0.00     0.063 C 
HETATM   13  C16 UNL     1      26.927   0.413  51.799  1.00  0.00     0.137 C 
HETATM   14  H5  UNL     1      26.969   3.723  51.108  1.00  0.00     0.167 HD
ENDROOT
BRANCH  12  15
HETATM   15  N4  UNL     1      22.554   2.895  51.151  1.00  0.00    -0.325 N 
HETATM   16  C12 UNL     1      21.746   3.854  51.789  1.00  0.00     0.224 C 
HETATM   17  O1  UNL     1      22.119   4.314  52.894  1.00  0.00    -0.273 OA
HETATM   18  H9  UNL     1      22.033   2.699  50.284  1.00  0.00     0.169 HD
BRANCH  16  19
HETATM   19  C13 UNL     1      20.456   4.476  51.396  1.00  0.00     0.129 C 
BRANCH  19  20
HETATM   20  C14 UNL     1      20.813   5.613  50.467  1.00  0.00     0.176 C 
BRANCH  20  21
HETATM   21  O2  UNL     1      21.591   6.591  51.009  1.00  0.00    -0.395 OA
HETATM   22  C15 UNL     1      21.520   7.737  50.229  1.00  0.00     0.201 C 
ENDBRANCH  20  21
ENDBRANCH  19  20
ENDBRANCH  16  19
ENDBRANCH  12  15
BRANCH   1  23
HETATM   23  C3  UNL     1      24.008   4.619  48.911  1.00  0.00     0.136 C 
HETATM   24  C2  UNL     1      22.997   4.377  48.053  1.00  0.00     0.013 C 
HETATM   25  C1  UNL     1      22.788   5.651  47.299  1.00  0.00     0.039 C 
HETATM   26  F1  UNL     1      24.230   5.932  48.550  1.00  0.00    -0.205 F 
ENDBRANCH   1  23
TORSDOF 5
ENDMDL
MODEL 9
REMARK VINA RESULT:      -6.5      3.487      4.468
REMARK  5 active torsions:
REMARK  status: ('A' for Active; 'I' for Inactive)
REMARK    1  A    between atoms: C3_3  and  C4_5 
REMARK    2  A    between atoms: C11_16  and  N4_17 
REMARK       I    between atoms: N4_17  and  C12_18 
REMARK    3  A    between atoms: C12_18  and  C13_20 
REMARK    4  A    between atoms: C13_20  and  C14_21 
REMARK    5  A    between atoms: C14_21  and  O2_22 
ROOT
HETATM    1  C4  UNL     1      21.832   0.739  52.607  1.00  0.00     0.101 C 
HETATM    2 CL1  UNL     1      20.268   0.320  53.272  1.00  0.00    -0.079 Cl
HETATM    3  C5  UNL     1      21.923   1.553  51.600  1.00  0.00     0.085 C 
HETATM    4  N1  UNL     1      20.570   1.951  51.220  1.00  0.00    -0.341 N 
HETATM    5  C6  UNL     1      20.060   2.422  49.987  1.00  0.00     0.111 C 
HETATM    6  N2  UNL     1      19.177   3.375  49.964  1.00  0.00    -0.228 NA
HETATM    7  C7  UNL     1      19.575   4.525  49.046  1.00  0.00     0.235 C 
HETATM    8  N3  UNL     1      20.753   4.512  48.335  1.00  0.00    -0.246 NA
HETATM    9  C8  UNL     1      21.502   3.290  48.579  1.00  0.00     0.043 C 
HETATM   10  C9  UNL     1      22.780   3.369  48.895  1.00  0.00     0.030 C 
HETATM   11  C10 UNL     1      23.539   2.541  49.874  1.00  0.00     0.034 C 
HETATM   12  C11 UNL     1      23.212   1.969  51.029  1.00  0.00     0.063 C 
HETATM   13  C16 UNL     1      20.480   2.110  48.522  1.00  0.00     0.137 C 
HETATM   14  H5  UNL     1      19.742   1.987  51.820  1.00  0.00     0.167 HD
ENDROOT
BRANCH  12  15
HETATM   15  N4  UNL     1      24.226   1.736  51.917  1.00  0.00    -0.325 N 
HETATM   16  C12 UNL     1      24.790   2.451  52.990  1.00  0.00     0.224 C 
HETATM   17  O1  UNL     1      24.310   3.572  53.282  1.00  0.00    -0.273 OA
HETATM   18  H9  UNL     1      24.787   0.872  51.899  1.00  0.00     0.169 HD
BRANCH  16  19
HETATM   19  C13 UNL     1      25.910   2.128  53.911  1.00  0.00     0.129 C 
BRANCH  19  20
HETATM   20  C14 UNL     1      26.871   1.282  53.108  1.00  0.00     0.176 C 
BRANCH  20  21
HETATM   21  O2  UNL     1      26.489  -0.010  52.906  1.00  0.00    -0.395 OA
HETATM   22  C15 UNL     1      27.593  -0.846  52.979  1.00  0.00     0.201 C 
ENDBRANCH  20  21
ENDBRANCH  19  20
ENDBRANCH  16  19
ENDBRANCH  12  15
BRANCH   1  23
HETATM   23  C3  UNL     1      22.313  -0.130  53.637  1.00  0.00     0.136 C 
HETATM   24  C2  UNL     1      21.835  -0.601  54.807  1.00  0.00     0.013 C 
HETATM   25  C1  UNL     1      22.918  -1.465  55.371  1.00  0.00     0.039 C 
HETATM   26  F1  UNL     1      23.541  -0.757  53.688  1.00  0.00    -0.205 F 
ENDBRANCH   1  23
TORSDOF 5
ENDMDL
