MODEL 1
REMARK VINA RESULT:      -8.4      0.000      0.000
REMARK  1 active torsions:
REMARK  status: ('A' for Active; 'I' for Inactive)
REMARK    1  A    between atoms: N5_24  and  C17_25 
ROOT
HETATM    1  C1  UNL     1      20.158   1.146  49.962  1.00  0.00     0.021 C 
HETATM    2  C2  UNL     1      21.385   0.857  49.446  1.00  0.00     0.109 C 
HETATM    3  N1  UNL     1      22.673   1.148  50.048  1.00  0.00    -0.291 N 
HETATM    4  N2  UNL     1      23.225   1.342  51.351  1.00  0.00    -0.179 N 
HETATM    5  N3  UNL     1      24.416   1.920  51.165  1.00  0.00    -0.139 NA
HETATM    6  C3  UNL     1      24.908   3.028  51.240  1.00  0.00     0.147 C 
HETATM    7  C4  UNL     1      26.327   2.971  50.894  1.00  0.00     0.196 C 
HETATM    8  N4  UNL     1      27.144   2.731  52.108  1.00  0.00    -0.399 N 
HETATM    9  C5  UNL     1      26.441   1.629  52.803  1.00  0.00     0.075 A 
HETATM   10  C6  UNL     1      26.147   2.609  53.676  1.00  0.00    -0.007 A 
HETATM   11  C7  UNL     1      25.090   1.741  53.734  1.00  0.00     0.084 A 
HETATM   12  C8  UNL     1      25.149   0.608  52.900  1.00  0.00     0.120 A 
HETATM   13  C9  UNL     1      25.657  -0.231  51.997  1.00  0.00     0.013 A 
HETATM   14  C10 UNL     1      26.730   0.624  51.918  1.00  0.00     0.008 A 
HETATM   15  O1  UNL     1      23.806   0.180  53.316  1.00  0.00    -0.344 OA
HETATM   16  C11 UNL     1      22.812   1.047  52.700  1.00  0.00     0.272 C 
HETATM   17  C12 UNL     1      21.442   0.638  52.976  1.00  0.00     0.121 C 
HETATM   18  C13 UNL     1      20.491   1.670  52.392  1.00  0.00     0.051 C 
HETATM   19  C14 UNL     1      19.704   1.663  51.297  1.00  0.00     0.034 C 
HETATM   20  O2  UNL     1      20.343   2.931  53.060  1.00  0.00    -0.345 OA
HETATM   21  C15 UNL     1      20.588   3.999  52.153  1.00  0.00     0.250 C 
HETATM   22  S1  UNL     1      21.785   5.206  52.577  1.00  0.00    -0.122 SA
HETATM   23  C16 UNL     1      23.481   4.745  52.730  1.00  0.00     0.206 C 
HETATM   24  N5  UNL     1      24.105   4.145  51.589  1.00  0.00    -0.323 N 
HETATM   25  H3  UNL     1      23.362   1.224  49.242  1.00  0.00     0.188 HD
HETATM   26  H6  UNL     1      28.018   3.352  52.213  1.00  0.00     0.155 HD
ENDROOT
BRANCH  24  27
HETATM   27  C17 UNL     1      24.006   4.706  50.312  1.00  0.00     0.036 A 
HETATM   28  C18 UNL     1      24.826   5.844  50.234  1.00  0.00     0.029 A 
HETATM   29  C19 UNL     1      24.874   6.607  49.053  1.00  0.00     0.002 A 
HETATM   30  C20 UNL     1      24.129   6.289  47.908  1.00  0.00     0.000 A 
HETATM   31  C21 UNL     1      23.327   5.173  47.983  1.00  0.00     0.002 A 
HETATM   32  C22 UNL     1      23.325   4.473  49.164  1.00  0.00     0.029 A 
ENDBRANCH  24  27
TORSDOF 1
ENDMDL
MODEL 2
REMARK VINA RESULT:      -8.1      9.214     12.280
REMARK  1 active torsions:
REMARK  status: ('A' for Active; 'I' for Inactive)
REMARK    1  A    between atoms: N5_24  and  C17_25 
ROOT
HETATM    1  C1  UNL     1      33.204   8.607  42.640  1.00  0.00     0.021 C 
HETATM    2  C2  UNL     1      32.257   7.667  42.914  1.00  0.00     0.109 C 
HETATM    3  N1  UNL     1      31.624   7.418  44.196  1.00  0.00    -0.291 N 
HETATM    4  N2  UNL     1      31.313   8.134  45.393  1.00  0.00    -0.179 N 
HETATM    5  N3  UNL     1      31.032   7.207  46.314  1.00  0.00    -0.139 NA
HETATM    6  C3  UNL     1      31.576   6.675  47.262  1.00  0.00     0.147 C 
HETATM    7  C4  UNL     1      30.675   5.704  47.877  1.00  0.00     0.196 C 
HETATM    8  N4  UNL     1      29.870   6.351  48.943  1.00  0.00    -0.399 N 
HETATM    9  C5  UNL     1      29.395   7.608  48.321  1.00  0.00     0.075 A 
HETATM   10  C6  UNL     1      30.262   8.154  49.192  1.00  0.00    -0.007 A 
HETATM   11  C7  UNL     1      30.245   9.001  48.117  1.00  0.00     0.084 A 
HETATM   12  C8  UNL     1      29.404   8.651  47.043  1.00  0.00     0.120 A 
HETATM   13  C9  UNL     1      28.515   7.929  46.360  1.00  0.00     0.013 A 
HETATM   14  C10 UNL     1      28.513   7.063  47.426  1.00  0.00     0.008 A 
HETATM   15  O1  UNL     1      29.876   9.793  46.247  1.00  0.00    -0.344 OA
HETATM   16  C11 UNL     1      31.224   9.521  45.769  1.00  0.00     0.272 C 
HETATM   17  C12 UNL     1      31.740  10.558  44.886  1.00  0.00     0.121 C 
HETATM   18  C13 UNL     1      33.187  10.239  44.543  1.00  0.00     0.051 C 
HETATM   19  C14 UNL     1      33.771   9.751  43.430  1.00  0.00     0.034 C 
HETATM   20  O2  UNL     1      34.198  10.459  45.537  1.00  0.00    -0.345 OA
HETATM   21  C15 UNL     1      34.952   9.271  45.742  1.00  0.00     0.250 C 
HETATM   22  S1  UNL     1      35.101   8.638  47.369  1.00  0.00    -0.122 SA
HETATM   23  C16 UNL     1      33.669   8.057  48.220  1.00  0.00     0.206 C 
HETATM   24  N5  UNL     1      32.914   7.011  47.598  1.00  0.00    -0.323 N 
HETATM   25  H3  UNL     1      31.321   6.398  44.180  1.00  0.00     0.188 HD
HETATM   26  H6  UNL     1      29.796   5.805  49.868  1.00  0.00     0.155 HD
ENDROOT
BRANCH  24  27
HETATM   27  C17 UNL     1      33.523   5.854  47.103  1.00  0.00     0.036 A 
HETATM   28  C18 UNL     1      34.050   5.107  48.169  1.00  0.00     0.029 A 
HETATM   29  C19 UNL     1      34.745   3.909  47.924  1.00  0.00     0.002 A 
HETATM   30  C20 UNL     1      34.950   3.395  46.636  1.00  0.00     0.000 A 
HETATM   31  C21 UNL     1      34.431   4.125  45.591  1.00  0.00     0.002 A 
HETATM   32  C22 UNL     1      33.765   5.285  45.897  1.00  0.00     0.029 A 
ENDBRANCH  24  27
TORSDOF 1
ENDMDL
MODEL 3
REMARK VINA RESULT:      -7.8      7.867     10.930
REMARK  1 active torsions:
REMARK  status: ('A' for Active; 'I' for Inactive)
REMARK    1  A    between atoms: N5_24  and  C17_25 
ROOT
HETATM    1  C1  UNL     1      30.099  12.657  48.414  1.00  0.00     0.021 C 
HETATM    2  C2  UNL     1      30.543  11.754  49.332  1.00  0.00     0.109 C 
HETATM    3  N1  UNL     1      30.907  10.371  49.087  1.00  0.00    -0.291 N 
HETATM    4  N2  UNL     1      31.387   9.566  48.009  1.00  0.00    -0.179 N 
HETATM    5  N3  UNL     1      31.181   8.297  48.375  1.00  0.00    -0.139 NA
HETATM    6  C3  UNL     1      30.388   7.405  48.146  1.00  0.00     0.147 C 
HETATM    7  C4  UNL     1      30.750   6.208  48.902  1.00  0.00     0.196 C 
HETATM    8  N4  UNL     1      31.659   5.349  48.104  1.00  0.00    -0.399 N 
HETATM    9  C5  UNL     1      32.665   6.294  47.565  1.00  0.00     0.075 A 
HETATM   10  C6  UNL     1      32.034   6.022  46.408  1.00  0.00    -0.007 A 
HETATM   11  C7  UNL     1      32.491   7.306  46.280  1.00  0.00     0.084 A 
HETATM   12  C8  UNL     1      33.195   7.844  47.373  1.00  0.00     0.120 A 
HETATM   13  C9  UNL     1      33.756   7.874  48.583  1.00  0.00     0.013 A 
HETATM   14  C10 UNL     1      33.310   6.584  48.738  1.00  0.00     0.008 A 
HETATM   15  O1  UNL     1      33.308   9.152  46.710  1.00  0.00    -0.344 OA
HETATM   16  C11 UNL     1      32.014   9.817  46.736  1.00  0.00     0.272 C 
HETATM   17  C12 UNL     1      32.050  11.165  46.187  1.00  0.00     0.121 C 
HETATM   18  C13 UNL     1      30.636  11.722  46.150  1.00  0.00     0.051 C 
HETATM   19  C14 UNL     1      29.996  12.628  46.916  1.00  0.00     0.034 C 
HETATM   20  O2  UNL     1      29.730  11.243  45.146  1.00  0.00    -0.345 OA
HETATM   21  C15 UNL     1      28.536  10.762  45.751  1.00  0.00     0.250 C 
HETATM   22  S1  UNL     1      28.003   9.134  45.388  1.00  0.00    -0.122 SA
HETATM   23  C16 UNL     1      28.988   7.756  45.883  1.00  0.00     0.206 C 
HETATM   24  N5  UNL     1      29.288   7.630  47.278  1.00  0.00    -0.323 N 
HETATM   25  H3  UNL     1      30.758   9.861  50.008  1.00  0.00     0.188 HD
HETATM   26  H6  UNL     1      31.423   4.299  48.097  1.00  0.00     0.155 HD
ENDROOT
BRANCH  24  27
HETATM   27  C17 UNL     1      28.297   7.725  48.258  1.00  0.00     0.036 A 
HETATM   28  C18 UNL     1      27.475   6.586  48.207  1.00  0.00     0.029 A 
HETATM   29  C19 UNL     1      26.378   6.461  49.079  1.00  0.00     0.002 A 
HETATM   30  C20 UNL     1      26.043   7.435  50.029  1.00  0.00     0.000 A 
HETATM   31  C21 UNL     1      26.848   8.549  50.081  1.00  0.00     0.002 A 
HETATM   32  C22 UNL     1      27.902   8.612  49.204  1.00  0.00     0.029 A 
ENDBRANCH  24  27
TORSDOF 1
ENDMDL
MODEL 4
REMARK VINA RESULT:      -7.7      9.927     12.363
REMARK  1 active torsions:
REMARK  status: ('A' for Active; 'I' for Inactive)
REMARK    1  A    between atoms: N5_24  and  C17_25 
ROOT
HETATM    1  C1  UNL     1      35.032   9.799  43.724  1.00  0.00     0.021 C 
HETATM    2  C2  UNL     1      35.421   9.548  45.005  1.00  0.00     0.109 C 
HETATM    3  N1  UNL     1      34.789   8.641  45.944  1.00  0.00    -0.291 N 
HETATM    4  N2  UNL     1      33.989   7.458  45.916  1.00  0.00    -0.179 N 
HETATM    5  N3  UNL     1      33.462   7.339  47.139  1.00  0.00    -0.139 NA
HETATM    6  C3  UNL     1      32.401   7.549  47.694  1.00  0.00     0.147 C 
HETATM    7  C4  UNL     1      32.493   7.181  49.104  1.00  0.00     0.196 C 
HETATM    8  N4  UNL     1      32.097   5.764  49.295  1.00  0.00    -0.399 N 
HETATM    9  C5  UNL     1      32.825   5.041  48.227  1.00  0.00     0.075 A 
HETATM   10  C6  UNL     1      31.585   4.908  47.723  1.00  0.00    -0.007 A 
HETATM   11  C7  UNL     1      32.417   4.942  46.636  1.00  0.00     0.084 A 
HETATM   12  C8  UNL     1      33.794   5.082  46.893  1.00  0.00     0.120 A 
HETATM   13  C9  UNL     1      34.905   5.208  47.621  1.00  0.00     0.013 A 
HETATM   14  C10 UNL     1      34.092   5.176  48.728  1.00  0.00     0.008 A 
HETATM   15  O1  UNL     1      34.098   5.150  45.456  1.00  0.00    -0.344 OA
HETATM   16  C11 UNL     1      33.682   6.445  44.938  1.00  0.00     0.272 C 
HETATM   17  C12 UNL     1      34.032   6.643  43.539  1.00  0.00     0.121 C 
HETATM   18  C13 UNL     1      33.451   7.966  43.067  1.00  0.00     0.051 C 
HETATM   19  C14 UNL     1      34.010   9.169  42.821  1.00  0.00     0.034 C 
HETATM   20  O2  UNL     1      32.041   8.053  42.817  1.00  0.00    -0.345 OA
HETATM   21  C15 UNL     1      31.476   9.126  43.559  1.00  0.00     0.250 C 
HETATM   22  S1  UNL     1      30.115   8.799  44.612  1.00  0.00    -0.122 SA
HETATM   23  C16 UNL     1      30.320   7.741  46.009  1.00  0.00     0.206 C 
HETATM   24  N5  UNL     1      31.315   8.109  46.971  1.00  0.00    -0.323 N 
HETATM   25  H3  UNL     1      35.027   9.010  46.913  1.00  0.00     0.188 HD
HETATM   26  H6  UNL     1      31.426   5.573  50.116  1.00  0.00     0.155 HD
ENDROOT
BRANCH  24  27
HETATM   27  C17 UNL     1      31.394   9.403  47.494  1.00  0.00     0.036 A 
HETATM   28  C18 UNL     1      30.335   9.613  48.393  1.00  0.00     0.029 A 
HETATM   29  C19 UNL     1      30.178  10.858  49.029  1.00  0.00     0.002 A 
HETATM   30  C20 UNL     1      31.044  11.939  48.816  1.00  0.00     0.000 A 
HETATM   31  C21 UNL     1      32.084  11.733  47.938  1.00  0.00     0.002 A 
HETATM   32  C22 UNL     1      32.182  10.497  47.350  1.00  0.00     0.029 A 
ENDBRANCH  24  27
TORSDOF 1
ENDMDL
MODEL 5
REMARK VINA RESULT:      -7.4      9.952     12.453
REMARK  1 active torsions:
REMARK  status: ('A' for Active; 'I' for Inactive)
REMARK    1  A    between atoms: N5_24  and  C17_25 
ROOT
HETATM    1  C1  UNL     1      35.160   5.638  48.135  1.00  0.00     0.021 C 
HETATM    2  C2  UNL     1      35.073   6.929  48.560  1.00  0.00     0.109 C 
HETATM    3  N1  UNL     1      34.013   7.874  48.261  1.00  0.00    -0.291 N 
HETATM    4  N2  UNL     1      32.626   7.853  47.921  1.00  0.00    -0.179 N 
HETATM    5  N3  UNL     1      32.345   9.069  47.441  1.00  0.00    -0.139 NA
HETATM    6  C3  UNL     1      32.180   9.602  46.362  1.00  0.00     0.147 C 
HETATM    7  C4  UNL     1      31.882  11.021  46.545  1.00  0.00     0.196 C 
HETATM    8  N4  UNL     1      30.418  11.229  46.660  1.00  0.00    -0.399 N 
HETATM    9  C5  UNL     1      29.980  10.186  47.616  1.00  0.00     0.075 A 
HETATM   10  C6  UNL     1      29.420   9.664  46.510  1.00  0.00    -0.007 A 
HETATM   11  C7  UNL     1      29.729   8.591  47.303  1.00  0.00     0.084 A 
HETATM   12  C8  UNL     1      30.340   8.869  48.541  1.00  0.00     0.120 A 
HETATM   13  C9  UNL     1      30.851   9.612  49.523  1.00  0.00     0.013 A 
HETATM   14  C10 UNL     1      30.552  10.706  48.747  1.00  0.00     0.008 A 
HETATM   15  O1  UNL     1      30.494   7.436  48.833  1.00  0.00    -0.344 OA
HETATM   16  C11 UNL     1      31.559   6.888  48.005  1.00  0.00     0.272 C 
HETATM   17  C12 UNL     1      31.851   5.492  48.296  1.00  0.00     0.121 C 
HETATM   18  C13 UNL     1      32.886   4.987  47.303  1.00  0.00     0.051 C 
HETATM   19  C14 UNL     1      34.205   4.730  47.416  1.00  0.00     0.034 C 
HETATM   20  O2  UNL     1      32.476   4.712  45.955  1.00  0.00    -0.345 OA
HETATM   21  C15 UNL     1      33.295   5.426  45.037  1.00  0.00     0.250 C 
HETATM   22  S1  UNL     1      32.527   6.461  43.852  1.00  0.00    -0.122 SA
HETATM   23  C16 UNL     1      31.621   7.880  44.380  1.00  0.00     0.206 C 
HETATM   24  N5  UNL     1      32.321   8.852  45.165  1.00  0.00    -0.323 N 
HETATM   25  H3  UNL     1      34.452   8.840  48.335  1.00  0.00     0.188 HD
HETATM   26  H6  UNL     1      30.015  12.042  46.080  1.00  0.00     0.155 HD
ENDROOT
BRANCH  24  27
HETATM   27  C17 UNL     1      33.568   9.354  44.780  1.00  0.00     0.036 A 
HETATM   28  C18 UNL     1      33.403  10.259  43.718  1.00  0.00     0.029 A 
HETATM   29  C19 UNL     1      34.521  10.877  43.130  1.00  0.00     0.002 A 
HETATM   30  C20 UNL     1      35.836  10.638  43.554  1.00  0.00     0.000 A 
HETATM   31  C21 UNL     1      35.998   9.754  44.595  1.00  0.00     0.002 A 
HETATM   32  C22 UNL     1      34.867   9.184  45.125  1.00  0.00     0.029 A 
ENDBRANCH  24  27
TORSDOF 1
ENDMDL
MODEL 6
REMARK VINA RESULT:      -7.2      6.806     10.071
REMARK  1 active torsions:
REMARK  status: ('A' for Active; 'I' for Inactive)
REMARK    1  A    between atoms: N5_24  and  C17_25 
ROOT
HETATM    1  C1  UNL     1      29.048  10.850  43.973  1.00  0.00     0.021 C 
HETATM    2  C2  UNL     1      28.518   9.596  44.015  1.00  0.00     0.109 C 
HETATM    3  N1  UNL     1      28.016   8.903  45.187  1.00  0.00    -0.291 N 
HETATM    4  N2  UNL     1      27.456   9.223  46.462  1.00  0.00    -0.179 N 
HETATM    5  N3  UNL     1      27.535   8.105  47.191  1.00  0.00    -0.139 NA
HETATM    6  C3  UNL     1      28.234   7.645  48.072  1.00  0.00     0.147 C 
HETATM    7  C4  UNL     1      27.755   6.317  48.448  1.00  0.00     0.196 C 
HETATM    8  N4  UNL     1      26.763   6.418  49.546  1.00  0.00    -0.399 N 
HETATM    9  C5  UNL     1      25.856   7.506  49.113  1.00  0.00     0.075 A 
HETATM   10  C6  UNL     1      26.455   8.161  50.124  1.00  0.00    -0.007 A 
HETATM   11  C7  UNL     1      26.129   9.125  49.208  1.00  0.00     0.084 A 
HETATM   12  C8  UNL     1      25.484   8.696  48.033  1.00  0.00     0.120 A 
HETATM   13  C9  UNL     1      24.930   7.838  47.175  1.00  0.00     0.013 A 
HETATM   14  C10 UNL     1      25.246   6.851  48.076  1.00  0.00     0.008 A 
HETATM   15  O1  UNL     1      25.501  10.057  47.476  1.00  0.00    -0.344 OA
HETATM   16  C11 UNL     1      26.855  10.388  47.059  1.00  0.00     0.272 C 
HETATM   17  C12 UNL     1      26.953  11.685  46.403  1.00  0.00     0.121 C 
HETATM   18  C13 UNL     1      28.416  11.984  46.118  1.00  0.00     0.051 C 
HETATM   19  C14 UNL     1      29.145  11.956  44.984  1.00  0.00     0.034 C 
HETATM   20  O2  UNL     1      29.268  12.372  47.205  1.00  0.00    -0.345 OA
HETATM   21  C15 UNL     1      30.409  11.525  47.261  1.00  0.00     0.250 C 
HETATM   22  S1  UNL     1      30.775  10.703  48.764  1.00  0.00    -0.122 SA
HETATM   23  C16 UNL     1      29.658   9.493  49.399  1.00  0.00     0.206 C 
HETATM   24  N5  UNL     1      29.349   8.377  48.557  1.00  0.00    -0.323 N 
HETATM   25  H3  UNL     1      28.115   7.865  44.978  1.00  0.00     0.188 HD
HETATM   26  H6  UNL     1      26.892   5.722  50.358  1.00  0.00     0.155 HD
ENDROOT
BRANCH  24  27
HETATM   27  C17 UNL     1      30.347   7.634  47.919  1.00  0.00     0.036 A 
HETATM   28  C18 UNL     1      31.075   6.906  48.875  1.00  0.00     0.029 A 
HETATM   29  C19 UNL     1      32.160   6.102  48.482  1.00  0.00     0.002 A 
HETATM   30  C20 UNL     1      32.574   5.976  47.149  1.00  0.00     0.000 A 
HETATM   31  C21 UNL     1      31.860   6.687  46.211  1.00  0.00     0.002 A 
HETATM   32  C22 UNL     1      30.813   7.453  46.659  1.00  0.00     0.029 A 
ENDBRANCH  24  27
TORSDOF 1
ENDMDL
MODEL 7
REMARK VINA RESULT:      -7.2      9.502     11.450
REMARK  1 active torsions:
REMARK  status: ('A' for Active; 'I' for Inactive)
REMARK    1  A    between atoms: N5_24  and  C17_25 
ROOT
HETATM    1  C1  UNL     1      28.367   9.433  46.683  1.00  0.00     0.021 C 
HETATM    2  C2  UNL     1      28.691   8.227  46.139  1.00  0.00     0.109 C 
HETATM    3  N1  UNL     1      29.955   7.525  46.271  1.00  0.00    -0.291 N 
HETATM    4  N2  UNL     1      31.043   7.444  47.192  1.00  0.00    -0.179 N 
HETATM    5  N3  UNL     1      32.046   6.859  46.528  1.00  0.00    -0.139 NA
HETATM    6  C3  UNL     1      33.076   7.184  45.973  1.00  0.00     0.147 C 
HETATM    7  C4  UNL     1      33.745   6.004  45.429  1.00  0.00     0.196 C 
HETATM    8  N4  UNL     1      34.683   5.436  46.427  1.00  0.00    -0.399 N 
HETATM    9  C5  UNL     1      33.897   5.408  47.683  1.00  0.00     0.075 A 
HETATM   10  C6  UNL     1      34.750   6.391  48.025  1.00  0.00    -0.007 A 
HETATM   11  C7  UNL     1      33.587   6.670  48.691  1.00  0.00     0.084 A 
HETATM   12  C8  UNL     1      32.513   5.780  48.498  1.00  0.00     0.120 A 
HETATM   13  C9  UNL     1      31.865   4.716  48.022  1.00  0.00     0.013 A 
HETATM   14  C10 UNL     1      33.020   4.413  47.342  1.00  0.00     0.008 A 
HETATM   15  O1  UNL     1      31.621   6.613  49.318  1.00  0.00    -0.344 OA
HETATM   16  C11 UNL     1      31.255   7.806  48.570  1.00  0.00     0.272 C 
HETATM   17  C12 UNL     1      30.292   8.648  49.266  1.00  0.00     0.121 C 
HETATM   18  C13 UNL     1      30.071   9.917  48.459  1.00  0.00     0.051 C 
HETATM   19  C14 UNL     1      29.055  10.329  47.673  1.00  0.00     0.034 C 
HETATM   20  O2  UNL     1      31.090  10.927  48.464  1.00  0.00    -0.345 OA
HETATM   21  C15 UNL     1      31.470  11.248  47.132  1.00  0.00     0.250 C 
HETATM   22  S1  UNL     1      33.164  11.154  46.693  1.00  0.00    -0.122 SA
HETATM   23  C16 UNL     1      33.991   9.596  46.715  1.00  0.00     0.206 C 
HETATM   24  N5  UNL     1      33.449   8.552  45.899  1.00  0.00    -0.323 N 
HETATM   25  H3  UNL     1      30.036   6.907  45.409  1.00  0.00     0.188 HD
HETATM   26  H6  UNL     1      35.658   5.172  46.055  1.00  0.00     0.155 HD
ENDROOT
BRANCH  24  27
HETATM   27  C17 UNL     1      33.123   8.759  44.555  1.00  0.00     0.036 A 
HETATM   28  C18 UNL     1      34.298   8.964  43.812  1.00  0.00     0.029 A 
HETATM   29  C19 UNL     1      34.230   9.228  42.433  1.00  0.00     0.002 A 
HETATM   30  C20 UNL     1      33.021   9.299  41.727  1.00  0.00     0.000 A 
HETATM   31  C21 UNL     1      31.870   9.096  42.453  1.00  0.00     0.002 A 
HETATM   32  C22 UNL     1      32.003   8.843  43.796  1.00  0.00     0.029 A 
ENDBRANCH  24  27
TORSDOF 1
ENDMDL
MODEL 8
REMARK VINA RESULT:      -7.0      2.766      4.517
REMARK  1 active torsions:
REMARK  status: ('A' for Active; 'I' for Inactive)
REMARK    1  A    between atoms: N5_24  and  C17_25 
ROOT
HETATM    1  C1  UNL     1      21.021   5.128  45.390  1.00  0.00     0.021 C 
HETATM    2  C2  UNL     1      21.917   4.201  45.830  1.00  0.00     0.109 C 
HETATM    3  N1  UNL     1      22.119   3.769  47.201  1.00  0.00    -0.291 N 
HETATM    4  N2  UNL     1      21.373   3.680  48.416  1.00  0.00    -0.179 N 
HETATM    5  N3  UNL     1      22.273   3.513  49.390  1.00  0.00    -0.139 NA
HETATM    6  C3  UNL     1      22.812   4.179  50.252  1.00  0.00     0.147 C 
HETATM    7  C4  UNL     1      23.735   3.350  51.023  1.00  0.00     0.196 C 
HETATM    8  N4  UNL     1      23.039   2.750  52.187  1.00  0.00    -0.399 N 
HETATM    9  C5  UNL     1      21.773   2.230  51.621  1.00  0.00     0.075 A 
HETATM   10  C6  UNL     1      21.250   3.245  52.332  1.00  0.00    -0.007 A 
HETATM   11  C7  UNL     1      20.420   3.091  51.255  1.00  0.00     0.084 A 
HETATM   12  C8  UNL     1      20.751   2.078  50.335  1.00  0.00     0.120 A 
HETATM   13  C9  UNL     1      21.446   1.065  49.816  1.00  0.00     0.013 A 
HETATM   14  C10 UNL     1      22.295   1.198  50.888  1.00  0.00     0.008 A 
HETATM   15  O1  UNL     1      19.642   2.461  49.449  1.00  0.00    -0.344 OA
HETATM   16  C11 UNL     1      19.977   3.705  48.772  1.00  0.00     0.272 C 
HETATM   17  C12 UNL     1      18.977   4.115  47.795  1.00  0.00     0.121 C 
HETATM   18  C13 UNL     1      19.360   5.475  47.236  1.00  0.00     0.051 C 
HETATM   19  C14 UNL     1      19.890   5.857  46.056  1.00  0.00     0.034 C 
HETATM   20  O2  UNL     1      19.167   6.638  48.053  1.00  0.00    -0.345 OA
HETATM   21  C15 UNL     1      20.382   7.369  48.163  1.00  0.00     0.250 C 
HETATM   22  S1  UNL     1      20.996   7.750  49.759  1.00  0.00    -0.122 SA
HETATM   23  C16 UNL     1      21.504   6.449  50.838  1.00  0.00     0.206 C 
HETATM   24  N5  UNL     1      22.527   5.565  50.366  1.00  0.00    -0.323 N 
HETATM   25  H3  UNL     1      23.126   3.429  47.256  1.00  0.00     0.188 HD
HETATM   26  H6  UNL     1      23.567   2.802  53.124  1.00  0.00     0.155 HD
ENDROOT
BRANCH  24  27
HETATM   27  C17 UNL     1      23.715   6.043  49.806  1.00  0.00     0.036 A 
HETATM   28  C18 UNL     1      24.443   6.748  50.780  1.00  0.00     0.029 A 
HETATM   29  C19 UNL     1      25.668   7.357  50.450  1.00  0.00     0.002 A 
HETATM   30  C20 UNL     1      26.227   7.301  49.166  1.00  0.00     0.000 A 
HETATM   31  C21 UNL     1      25.517   6.608  48.213  1.00  0.00     0.002 A 
HETATM   32  C22 UNL     1      24.329   6.038  48.598  1.00  0.00     0.029 A 
ENDBRANCH  24  27
TORSDOF 1
ENDMDL
MODEL 9
REMARK VINA RESULT:      -6.9      2.897      5.420
REMARK  1 active torsions:
REMARK  status: ('A' for Active; 'I' for Inactive)
REMARK    1  A    between atoms: N5_24  and  C17_25 
ROOT
HETATM    1  C1  UNL     1      23.206   2.004  50.754  1.00  0.00     0.021 C 
HETATM    2  C2  UNL     1      24.130   2.511  49.891  1.00  0.00     0.109 C 
HETATM    3  N1  UNL     1      24.238   3.887  49.443  1.00  0.00    -0.291 N 
HETATM    4  N2  UNL     1      23.900   5.194  49.909  1.00  0.00    -0.179 N 
HETATM    5  N3  UNL     1      23.968   5.996  48.842  1.00  0.00    -0.139 NA
HETATM    6  C3  UNL     1      23.208   6.527  48.057  1.00  0.00     0.147 C 
HETATM    7  C4  UNL     1      23.962   7.315  47.085  1.00  0.00     0.196 C 
HETATM    8  N4  UNL     1      24.133   8.707  47.570  1.00  0.00    -0.399 N 
HETATM    9  C5  UNL     1      24.560   8.546  48.979  1.00  0.00     0.075 A 
HETATM   10  C6  UNL     1      23.328   9.033  49.217  1.00  0.00    -0.007 A 
HETATM   11  C7  UNL     1      23.605   8.210  50.276  1.00  0.00     0.084 A 
HETATM   12  C8  UNL     1      24.854   7.560  50.268  1.00  0.00     0.120 A 
HETATM   13  C9  UNL     1      26.064   7.223  49.821  1.00  0.00     0.013 A 
HETATM   14  C10 UNL     1      25.812   8.043  48.748  1.00  0.00     0.008 A 
HETATM   15  O1  UNL     1      24.523   6.821  51.495  1.00  0.00    -0.344 OA
HETATM   16  C11 UNL     1      23.558   5.778  51.182  1.00  0.00     0.272 C 
HETATM   17  C12 UNL     1      23.243   4.926  52.320  1.00  0.00     0.121 C 
HETATM   18  C13 UNL     1      22.145   3.953  51.920  1.00  0.00     0.051 C 
HETATM   19  C14 UNL     1      22.159   2.638  51.624  1.00  0.00     0.034 C 
HETATM   20  O2  UNL     1      20.800   4.439  51.799  1.00  0.00    -0.345 OA
HETATM   21  C15 UNL     1      20.276   4.120  50.516  1.00  0.00     0.250 C 
HETATM   22  S1  UNL     1      19.620   5.410  49.529  1.00  0.00    -0.122 SA
HETATM   23  C16 UNL     1      20.680   6.694  48.944  1.00  0.00     0.206 C 
HETATM   24  N5  UNL     1      21.809   6.305  48.154  1.00  0.00    -0.323 N 
HETATM   25  H3  UNL     1      24.715   3.849  48.493  1.00  0.00     0.188 HD
HETATM   26  H6  UNL     1      23.939   9.481  46.847  1.00  0.00     0.155 HD
ENDROOT
BRANCH  24  27
HETATM   27  C17 UNL     1      21.687   5.429  47.072  1.00  0.00     0.036 A 
HETATM   28  C18 UNL     1      21.027   6.077  46.014  1.00  0.00     0.029 A 
HETATM   29  C19 UNL     1      20.754   5.389  44.818  1.00  0.00     0.002 A 
HETATM   30  C20 UNL     1      21.113   4.050  44.608  1.00  0.00     0.000 A 
HETATM   31  C21 UNL     1      21.762   3.416  45.642  1.00  0.00     0.002 A 
HETATM   32  C22 UNL     1      21.998   4.142  46.783  1.00  0.00     0.029 A 
ENDBRANCH  24  27
TORSDOF 1
ENDMDL
