MODEL 1
REMARK VINA RESULT:      -7.4      0.000      0.000
REMARK  9 active torsions:
REMARK  status: ('A' for Active; 'I' for Inactive)
REMARK    1  A    between atoms: N1_1  and  C1_2 
REMARK    2  A    between atoms: C3_5  and  C4_6 
REMARK    3  A    between atoms: C4_6  and  C5_7 
REMARK    4  A    between atoms: C5_7  and  C6_8 
REMARK    5  A    between atoms: C6_8  and  O1_9 
REMARK    6  A    between atoms: C8_11  and  C9_12 
REMARK    7  A    between atoms: C9_12  and  N3_13 
REMARK    8  A    between atoms: C10_14  and  N4_15 
REMARK    9  A    between atoms: N4_15  and  C11_16 
ROOT
HETATM    1  C1  UNL     1      21.530  -0.071  53.903  1.00  0.00     0.097 C 
HETATM    2  N2  UNL     1      22.501  -0.816  54.365  1.00  0.00    -0.247 NA
HETATM    3  C2  UNL     1      23.919  -0.751  54.101  1.00  0.00     0.125 C 
HETATM    4  C3  UNL     1      24.812  -0.086  53.350  1.00  0.00    -0.040 C 
HETATM    5  C7  UNL     1      24.414   0.991  52.398  1.00  0.00     0.013 C 
HETATM    6  C8  UNL     1      23.346   1.435  51.700  1.00  0.00    -0.059 C 
HETATM    7  C17 UNL     1      21.947   0.876  51.651  1.00  0.00     0.043 C 
HETATM    8  C18 UNL     1      21.285   1.098  52.983  1.00  0.00     0.082 C 
ENDROOT
BRANCH   6   9
HETATM    9  C9  UNL     1      23.517   2.625  50.856  1.00  0.00     0.184 C 
BRANCH   9  10
HETATM   10  N3  UNL     1      24.916   2.985  50.735  1.00  0.00    -0.281 NA
HETATM   11  C10 UNL     1      25.259   3.597  49.627  1.00  0.00     0.201 C 
BRANCH  11  12
HETATM   12  N4  UNL     1      26.630   3.949  49.512  1.00  0.00    -0.351 N 
HETATM   13  H15 UNL     1      27.354   3.308  49.937  1.00  0.00     0.166 HD
BRANCH  12  14
HETATM   14  C11 UNL     1      27.077   5.115  48.850  1.00  0.00     0.034 A 
HETATM   15  C12 UNL     1      26.344   6.215  48.528  1.00  0.00     0.029 A 
HETATM   16  C13 UNL     1      26.868   7.321  47.881  1.00  0.00     0.004 A 
HETATM   17  C14 UNL     1      28.178   7.367  47.524  1.00  0.00     0.024 A 
HETATM   18  C15 UNL     1      28.962   6.288  47.823  1.00  0.00     0.036 A 
HETATM   19 CL1  UNL     1      30.655   6.310  47.378  1.00  0.00    -0.084 Cl
HETATM   20  C16 UNL     1      28.415   5.218  48.459  1.00  0.00     0.053 A 
ENDBRANCH  12  14
ENDBRANCH  11  12
ENDBRANCH   9  10
ENDBRANCH   6   9
BRANCH   4  21
HETATM   21  C4  UNL     1      26.247  -0.190  53.243  1.00  0.00     0.042 C 
BRANCH  21  22
HETATM   22  C5  UNL     1      26.987   0.615  52.261  1.00  0.00     0.030 C 
BRANCH  22  23
HETATM   23  C6  UNL     1      27.897   1.676  52.768  1.00  0.00     0.164 C 
BRANCH  23  24
HETATM   24  O1  UNL     1      27.651   2.920  52.140  1.00  0.00    -0.401 OA
HETATM   25  H10 UNL     1      28.330   3.078  51.435  1.00  0.00     0.209 HD
ENDBRANCH  23  24
ENDBRANCH  22  23
ENDBRANCH  21  22
ENDBRANCH   4  21
BRANCH   1  26
HETATM   26  N1  UNL     1      20.389  -0.633  54.534  1.00  0.00    -0.387 N 
HETATM   27  H1  UNL     1      20.714  -1.267  55.310  1.00  0.00     0.157 HD
HETATM   28  H2  UNL     1      19.407  -0.420  54.236  1.00  0.00     0.157 HD
ENDBRANCH   1  26
TORSDOF 9
ENDMDL
MODEL 2
REMARK VINA RESULT:      -7.3      2.790      4.232
REMARK  9 active torsions:
REMARK  status: ('A' for Active; 'I' for Inactive)
REMARK    1  A    between atoms: N1_1  and  C1_2 
REMARK    2  A    between atoms: C3_5  and  C4_6 
REMARK    3  A    between atoms: C4_6  and  C5_7 
REMARK    4  A    between atoms: C5_7  and  C6_8 
REMARK    5  A    between atoms: C6_8  and  O1_9 
REMARK    6  A    between atoms: C8_11  and  C9_12 
REMARK    7  A    between atoms: C9_12  and  N3_13 
REMARK    8  A    between atoms: C10_14  and  N4_15 
REMARK    9  A    between atoms: N4_15  and  C11_16 
ROOT
HETATM    1  C1  UNL     1      26.519  -0.028  54.329  1.00  0.00     0.097 C 
HETATM    2  N2  UNL     1      25.752  -0.731  55.121  1.00  0.00    -0.247 NA
HETATM    3  C2  UNL     1      24.340  -1.018  55.021  1.00  0.00     0.125 C 
HETATM    4  C3  UNL     1      23.266  -0.730  54.267  1.00  0.00    -0.040 C 
HETATM    5  C7  UNL     1      23.339   0.176  53.084  1.00  0.00     0.013 C 
HETATM    6  C8  UNL     1      24.095   1.165  52.563  1.00  0.00    -0.059 C 
HETATM    7  C17 UNL     1      25.351   1.790  53.116  1.00  0.00     0.043 C 
HETATM    8  C18 UNL     1      26.465   0.782  53.058  1.00  0.00     0.082 C 
ENDROOT
BRANCH   6   9
HETATM    9  C9  UNL     1      23.684   1.749  51.279  1.00  0.00     0.184 C 
BRANCH   9  10
HETATM   10  N3  UNL     1      24.165   3.110  51.145  1.00  0.00    -0.281 NA
HETATM   11  C10 UNL     1      24.012   3.661  49.964  1.00  0.00     0.201 C 
BRANCH  11  12
HETATM   12  N4  UNL     1      24.484   4.994  49.836  1.00  0.00    -0.351 N 
HETATM   13  H15 UNL     1      23.867   5.783  50.168  1.00  0.00     0.166 HD
BRANCH  12  14
HETATM   14  C11 UNL     1      25.747   5.319  49.289  1.00  0.00     0.034 A 
HETATM   15  C12 UNL     1      26.806   4.486  49.102  1.00  0.00     0.029 A 
HETATM   16  C13 UNL     1      28.009   4.890  48.550  1.00  0.00     0.004 A 
HETATM   17  C14 UNL     1      28.201   6.177  48.156  1.00  0.00     0.024 A 
HETATM   18  C15 UNL     1      27.169   7.059  48.322  1.00  0.00     0.036 A 
HETATM   19 CL1  UNL     1      27.379   8.724  47.827  1.00  0.00    -0.084 Cl
HETATM   20  C16 UNL     1      26.000   6.627  48.867  1.00  0.00     0.053 A 
ENDBRANCH  12  14
ENDBRANCH  11  12
ENDBRANCH   9  10
ENDBRANCH   6   9
BRANCH   4  21
HETATM   21  C4  UNL     1      21.890  -1.151  54.352  1.00  0.00     0.042 C 
BRANCH  21  22
HETATM   22  C5  UNL     1      20.800  -0.165  54.327  1.00  0.00     0.030 C 
BRANCH  22  23
HETATM   23  C6  UNL     1      19.719  -0.341  53.320  1.00  0.00     0.164 C 
BRANCH  23  24
HETATM   24  O1  UNL     1      18.659  -1.130  53.825  1.00  0.00    -0.401 OA
HETATM   25  H10 UNL     1      18.269  -1.674  53.093  1.00  0.00     0.209 HD
ENDBRANCH  23  24
ENDBRANCH  22  23
ENDBRANCH  21  22
ENDBRANCH   4  21
BRANCH   1  26
HETATM   26  N1  UNL     1      27.784  -0.125  54.967  1.00  0.00    -0.387 N 
HETATM   27  H1  UNL     1      27.629  -0.243  56.002  1.00  0.00     0.157 HD
HETATM   28  H2  UNL     1      28.693  -0.081  54.447  1.00  0.00     0.157 HD
ENDBRANCH   1  26
TORSDOF 9
ENDMDL
MODEL 3
REMARK VINA RESULT:      -7.3      4.167      5.316
REMARK  9 active torsions:
REMARK  status: ('A' for Active; 'I' for Inactive)
REMARK    1  A    between atoms: N1_1  and  C1_2 
REMARK    2  A    between atoms: C3_5  and  C4_6 
REMARK    3  A    between atoms: C4_6  and  C5_7 
REMARK    4  A    between atoms: C5_7  and  C6_8 
REMARK    5  A    between atoms: C6_8  and  O1_9 
REMARK    6  A    between atoms: C8_11  and  C9_12 
REMARK    7  A    between atoms: C9_12  and  N3_13 
REMARK    8  A    between atoms: C10_14  and  N4_15 
REMARK    9  A    between atoms: N4_15  and  C11_16 
ROOT
HETATM    1  C1  UNL     1      19.062  -0.149  52.244  1.00  0.00     0.097 C 
HETATM    2  N2  UNL     1      19.337  -0.906  53.274  1.00  0.00    -0.247 NA
HETATM    3  C2  UNL     1      20.561  -1.026  54.031  1.00  0.00     0.125 C 
HETATM    4  C3  UNL     1      21.827  -0.578  54.046  1.00  0.00    -0.040 C 
HETATM    5  C7  UNL     1      22.352   0.373  53.024  1.00  0.00     0.013 C 
HETATM    6  C8  UNL     1      22.108   0.809  51.770  1.00  0.00    -0.059 C 
HETATM    7  C17 UNL     1      21.015   0.391  50.818  1.00  0.00     0.043 C 
HETATM    8  C18 UNL     1      19.695   0.883  51.344  1.00  0.00     0.082 C 
ENDROOT
BRANCH   6   9
HETATM    9  C9  UNL     1      22.999   1.830  51.205  1.00  0.00     0.184 C 
BRANCH   9  10
HETATM   10  N3  UNL     1      24.065   2.164  52.128  1.00  0.00    -0.281 NA
HETATM   11  C10 UNL     1      25.270   2.234  51.616  1.00  0.00     0.201 C 
BRANCH  11  12
HETATM   12  N4  UNL     1      26.312   2.561  52.524  1.00  0.00    -0.351 N 
HETATM   13  H15 UNL     1      26.351   3.540  52.918  1.00  0.00     0.166 HD
BRANCH  12  14
HETATM   14  C11 UNL     1      27.301   1.637  52.932  1.00  0.00     0.034 A 
HETATM   15  C12 UNL     1      28.462   1.905  53.590  1.00  0.00     0.029 A 
HETATM   16  C13 UNL     1      29.375   0.932  53.957  1.00  0.00     0.004 A 
HETATM   17  C14 UNL     1      29.154  -0.378  53.672  1.00  0.00     0.024 A 
HETATM   18  C15 UNL     1      28.003  -0.705  53.011  1.00  0.00     0.036 A 
HETATM   19 CL1  UNL     1      27.685  -2.382  52.626  1.00  0.00    -0.084 Cl
HETATM   20  C16 UNL     1      27.128   0.277  52.665  1.00  0.00     0.053 A 
ENDBRANCH  12  14
ENDBRANCH  11  12
ENDBRANCH   9  10
ENDBRANCH   6   9
BRANCH   4  21
HETATM   21  C4  UNL     1      22.930  -0.839  54.938  1.00  0.00     0.042 C 
BRANCH  21  22
HETATM   22  C5  UNL     1      24.318  -0.760  54.461  1.00  0.00     0.030 C 
BRANCH  22  23
HETATM   23  C6  UNL     1      25.410  -0.984  55.444  1.00  0.00     0.164 C 
BRANCH  23  24
HETATM   24  O1  UNL     1      24.904  -1.381  56.705  1.00  0.00    -0.401 OA
HETATM   25  H10 UNL     1      23.931  -1.555  56.635  1.00  0.00     0.209 HD
ENDBRANCH  23  24
ENDBRANCH  22  23
ENDBRANCH  21  22
ENDBRANCH   4  21
BRANCH   1  26
HETATM   26  N1  UNL     1      17.712  -0.489  51.968  1.00  0.00    -0.387 N 
HETATM   27  H1  UNL     1      17.086   0.112  52.565  1.00  0.00     0.157 HD
HETATM   28  H2  UNL     1      17.437  -1.227  51.276  1.00  0.00     0.157 HD
ENDBRANCH   1  26
TORSDOF 9
ENDMDL
MODEL 4
REMARK VINA RESULT:      -7.3      4.896      8.446
REMARK  9 active torsions:
REMARK  status: ('A' for Active; 'I' for Inactive)
REMARK    1  A    between atoms: N1_1  and  C1_2 
REMARK    2  A    between atoms: C3_5  and  C4_6 
REMARK    3  A    between atoms: C4_6  and  C5_7 
REMARK    4  A    between atoms: C5_7  and  C6_8 
REMARK    5  A    between atoms: C6_8  and  O1_9 
REMARK    6  A    between atoms: C8_11  and  C9_12 
REMARK    7  A    between atoms: C9_12  and  N3_13 
REMARK    8  A    between atoms: C10_14  and  N4_15 
REMARK    9  A    between atoms: N4_15  and  C11_16 
ROOT
HETATM    1  C1  UNL     1      24.456   2.820  50.913  1.00  0.00     0.097 C 
HETATM    2  N2  UNL     1      25.760   2.914  50.911  1.00  0.00    -0.247 NA
HETATM    3  C2  UNL     1      26.747   2.057  51.525  1.00  0.00     0.125 C 
HETATM    4  C3  UNL     1      26.845   0.975  52.316  1.00  0.00    -0.040 C 
HETATM    5  C7  UNL     1      25.647   0.266  52.853  1.00  0.00     0.013 C 
HETATM    6  C8  UNL     1      24.338   0.465  53.117  1.00  0.00    -0.059 C 
HETATM    7  C17 UNL     1      23.509   1.708  52.914  1.00  0.00     0.043 C 
HETATM    8  C18 UNL     1      23.343   1.950  51.439  1.00  0.00     0.082 C 
ENDROOT
BRANCH   6   9
HETATM    9  C9  UNL     1      23.567  -0.651  53.679  1.00  0.00     0.184 C 
BRANCH   9  10
HETATM   10  N3  UNL     1      22.189  -0.269  53.918  1.00  0.00    -0.281 NA
HETATM   11  C10 UNL     1      21.319  -1.249  53.965  1.00  0.00     0.201 C 
BRANCH  11  12
HETATM   12  N4  UNL     1      19.971  -0.870  54.199  1.00  0.00    -0.351 N 
HETATM   13  H15 UNL     1      19.653  -0.716  55.194  1.00  0.00     0.166 HD
BRANCH  12  14
HETATM   14  C11 UNL     1      19.028  -0.684  53.161  1.00  0.00     0.034 A 
HETATM   15  C12 UNL     1      19.156   0.103  52.060  1.00  0.00     0.029 A 
HETATM   16  C13 UNL     1      18.179   0.222  51.086  1.00  0.00     0.004 A 
HETATM   17  C14 UNL     1      17.008  -0.461  51.184  1.00  0.00     0.024 A 
HETATM   18  C15 UNL     1      16.825  -1.268  52.272  1.00  0.00     0.036 A 
HETATM   19 CL1  UNL     1      15.329  -2.162  52.432  1.00  0.00    -0.084 Cl
HETATM   20  C16 UNL     1      17.806  -1.361  53.209  1.00  0.00     0.053 A 
ENDBRANCH  12  14
ENDBRANCH  11  12
ENDBRANCH   9  10
ENDBRANCH   6   9
BRANCH   4  21
HETATM   21  C4  UNL     1      27.985   0.255  52.825  1.00  0.00     0.042 C 
BRANCH  21  22
HETATM   22  C5  UNL     1      27.852  -1.134  53.286  1.00  0.00     0.030 C 
BRANCH  22  23
HETATM   23  C6  UNL     1      29.056  -2.006  53.238  1.00  0.00     0.164 C 
BRANCH  23  24
HETATM   24  O1  UNL     1      28.716  -3.373  53.373  1.00  0.00    -0.401 OA
HETATM   25  H10 UNL     1      29.072  -3.884  52.601  1.00  0.00     0.209 HD
ENDBRANCH  23  24
ENDBRANCH  22  23
ENDBRANCH  21  22
ENDBRANCH   4  21
BRANCH   1  26
HETATM   26  N1  UNL     1      24.069   3.950  50.144  1.00  0.00    -0.387 N 
HETATM   27  H1  UNL     1      23.105   4.247  50.447  1.00  0.00     0.157 HD
HETATM   28  H2  UNL     1      24.681   4.378  49.408  1.00  0.00     0.157 HD
ENDBRANCH   1  26
TORSDOF 9
ENDMDL
MODEL 5
REMARK VINA RESULT:      -7.2      4.436      7.764
REMARK  9 active torsions:
REMARK  status: ('A' for Active; 'I' for Inactive)
REMARK    1  A    between atoms: N1_1  and  C1_2 
REMARK    2  A    between atoms: C3_5  and  C4_6 
REMARK    3  A    between atoms: C4_6  and  C5_7 
REMARK    4  A    between atoms: C5_7  and  C6_8 
REMARK    5  A    between atoms: C6_8  and  O1_9 
REMARK    6  A    between atoms: C8_11  and  C9_12 
REMARK    7  A    between atoms: C9_12  and  N3_13 
REMARK    8  A    between atoms: C10_14  and  N4_15 
REMARK    9  A    between atoms: N4_15  and  C11_16 
ROOT
HETATM    1  C1  UNL     1      28.005   1.268  53.395  1.00  0.00     0.097 C 
HETATM    2  N2  UNL     1      27.658   2.054  52.408  1.00  0.00    -0.247 NA
HETATM    3  C2  UNL     1      26.351   2.315  51.854  1.00  0.00     0.125 C 
HETATM    4  C3  UNL     1      25.069   1.929  51.973  1.00  0.00    -0.040 C 
HETATM    5  C7  UNL     1      24.634   0.889  52.950  1.00  0.00     0.013 C 
HETATM    6  C8  UNL     1      25.118  -0.148  53.666  1.00  0.00    -0.059 C 
HETATM    7  C17 UNL     1      26.524  -0.691  53.717  1.00  0.00     0.043 C 
HETATM    8  C18 UNL     1      27.411   0.313  54.399  1.00  0.00     0.082 C 
ENDROOT
BRANCH   6   9
HETATM    9  C9  UNL     1      24.189  -0.884  54.534  1.00  0.00     0.184 C 
BRANCH   9  10
HETATM   10  N3  UNL     1      22.848  -0.886  53.983  1.00  0.00    -0.281 NA
HETATM   11  C10 UNL     1      21.872  -0.724  54.844  1.00  0.00     0.201 C 
BRANCH  11  12
HETATM   12  N4  UNL     1      20.559  -0.727  54.301  1.00  0.00    -0.351 N 
HETATM   13  H15 UNL     1      19.865  -1.437  54.659  1.00  0.00     0.166 HD
BRANCH  12  14
HETATM   14  C11 UNL     1      20.132   0.180  53.305  1.00  0.00     0.034 A 
HETATM   15  C12 UNL     1      20.548   1.462  53.121  1.00  0.00     0.029 A 
HETATM   16  C13 UNL     1      20.078   2.282  52.109  1.00  0.00     0.004 A 
HETATM   17  C14 UNL     1      19.149   1.836  51.223  1.00  0.00     0.024 A 
HETATM   18  C15 UNL     1      18.694   0.554  51.361  1.00  0.00     0.036 A 
HETATM   19 CL1  UNL     1      17.497  -0.055  50.239  1.00  0.00    -0.084 Cl
HETATM   20  C16 UNL     1      19.178  -0.223  52.367  1.00  0.00     0.053 A 
ENDBRANCH  12  14
ENDBRANCH  11  12
ENDBRANCH   9  10
ENDBRANCH   6   9
BRANCH   4  21
HETATM   21  C4  UNL     1      23.871   2.345  51.286  1.00  0.00     0.042 C 
BRANCH  21  22
HETATM   22  C5  UNL     1      23.478   3.760  51.251  1.00  0.00     0.030 C 
BRANCH  22  23
HETATM   23  C6  UNL     1      23.291   4.468  52.545  1.00  0.00     0.164 C 
BRANCH  23  24
HETATM   24  O1  UNL     1      23.928   5.732  52.546  1.00  0.00    -0.401 OA
HETATM   25  H10 UNL     1      23.568   6.287  53.285  1.00  0.00     0.209 HD
ENDBRANCH  23  24
ENDBRANCH  22  23
ENDBRANCH  21  22
ENDBRANCH   4  21
BRANCH   1  26
HETATM   26  N1  UNL     1      29.412   1.453  53.449  1.00  0.00    -0.387 N 
HETATM   27  H1  UNL     1      29.611   2.476  53.599  1.00  0.00     0.157 HD
HETATM   28  H2  UNL     1      30.097   0.665  53.348  1.00  0.00     0.157 HD
ENDBRANCH   1  26
TORSDOF 9
ENDMDL
MODEL 6
REMARK VINA RESULT:      -7.1      2.868      4.339
REMARK  9 active torsions:
REMARK  status: ('A' for Active; 'I' for Inactive)
REMARK    1  A    between atoms: N1_1  and  C1_2 
REMARK    2  A    between atoms: C3_5  and  C4_6 
REMARK    3  A    between atoms: C4_6  and  C5_7 
REMARK    4  A    between atoms: C5_7  and  C6_8 
REMARK    5  A    between atoms: C6_8  and  O1_9 
REMARK    6  A    between atoms: C8_11  and  C9_12 
REMARK    7  A    between atoms: C9_12  and  N3_13 
REMARK    8  A    between atoms: C10_14  and  N4_15 
REMARK    9  A    between atoms: N4_15  and  C11_16 
ROOT
HETATM    1  C1  UNL     1      27.581   0.095  54.101  1.00  0.00     0.097 C 
HETATM    2  N2  UNL     1      26.534  -0.318  54.768  1.00  0.00    -0.247 NA
HETATM    3  C2  UNL     1      25.133  -0.231  54.430  1.00  0.00     0.125 C 
HETATM    4  C3  UNL     1      24.313   0.269  53.491  1.00  0.00    -0.040 C 
HETATM    5  C7  UNL     1      24.818   1.030  52.311  1.00  0.00     0.013 C 
HETATM    6  C8  UNL     1      25.889   1.742  51.899  1.00  0.00    -0.059 C 
HETATM    7  C17 UNL     1      27.162   2.056  52.645  1.00  0.00     0.043 C 
HETATM    8  C18 UNL     1      27.954   0.789  52.815  1.00  0.00     0.082 C 
ENDROOT
BRANCH   6   9
HETATM    9  C9  UNL     1      25.863   2.311  50.546  1.00  0.00     0.184 C 
BRANCH   9  10
HETATM   10  N3  UNL     1      26.907   3.303  50.375  1.00  0.00    -0.281 NA
HETATM   11  C10 UNL     1      26.707   4.192  49.432  1.00  0.00     0.201 C 
BRANCH  11  12
HETATM   12  N4  UNL     1      27.731   5.162  49.268  1.00  0.00    -0.351 N 
HETATM   13  H15 UNL     1      28.607   5.078  49.852  1.00  0.00     0.166 HD
BRANCH  12  14
HETATM   14  C11 UNL     1      27.640   6.237  48.354  1.00  0.00     0.034 A 
HETATM   15  C12 UNL     1      28.639   6.768  47.600  1.00  0.00     0.029 A 
HETATM   16  C13 UNL     1      28.458   7.823  46.722  1.00  0.00     0.004 A 
HETATM   17  C14 UNL     1      27.237   8.399  46.565  1.00  0.00     0.024 A 
HETATM   18  C15 UNL     1      26.195   7.906  47.299  1.00  0.00     0.036 A 
HETATM   19 CL1  UNL     1      24.609   8.623  47.123  1.00  0.00    -0.084 Cl
HETATM   20  C16 UNL     1      26.410   6.868  48.152  1.00  0.00     0.053 A 
ENDBRANCH  12  14
ENDBRANCH  11  12
ENDBRANCH   9  10
ENDBRANCH   6   9
BRANCH   4  21
HETATM   21  C4  UNL     1      22.879   0.233  53.347  1.00  0.00     0.042 C 
BRANCH  21  22
HETATM   22  C5  UNL     1      22.177  -1.041  53.140  1.00  0.00     0.030 C 
BRANCH  22  23
HETATM   23  C6  UNL     1      21.375  -1.590  54.266  1.00  0.00     0.164 C 
BRANCH  23  24
HETATM   24  O1  UNL     1      22.180  -1.853  55.400  1.00  0.00    -0.401 OA
HETATM   25  H10 UNL     1      22.683  -2.697  55.264  1.00  0.00     0.209 HD
ENDBRANCH  23  24
ENDBRANCH  22  23
ENDBRANCH  21  22
ENDBRANCH   4  21
BRANCH   1  26
HETATM   26  N1  UNL     1      28.652  -0.281  54.953  1.00  0.00    -0.387 N 
HETATM   27  H1  UNL     1      28.631   0.334  55.808  1.00  0.00     0.157 HD
HETATM   28  H2  UNL     1      29.325  -1.051  54.722  1.00  0.00     0.157 HD
ENDBRANCH   1  26
TORSDOF 9
ENDMDL
MODEL 7
REMARK VINA RESULT:      -7.1      2.607      3.986
REMARK  9 active torsions:
REMARK  status: ('A' for Active; 'I' for Inactive)
REMARK    1  A    between atoms: N1_1  and  C1_2 
REMARK    2  A    between atoms: C3_5  and  C4_6 
REMARK    3  A    between atoms: C4_6  and  C5_7 
REMARK    4  A    between atoms: C5_7  and  C6_8 
REMARK    5  A    between atoms: C6_8  and  O1_9 
REMARK    6  A    between atoms: C8_11  and  C9_12 
REMARK    7  A    between atoms: C9_12  and  N3_13 
REMARK    8  A    between atoms: C10_14  and  N4_15 
REMARK    9  A    between atoms: N4_15  and  C11_16 
ROOT
HETATM    1  C1  UNL     1      26.956   0.076  53.973  1.00  0.00     0.097 C 
HETATM    2  N2  UNL     1      26.216  -0.861  54.505  1.00  0.00    -0.247 NA
HETATM    3  C2  UNL     1      24.785  -1.046  54.455  1.00  0.00     0.125 C 
HETATM    4  C3  UNL     1      23.670  -0.453  53.997  1.00  0.00    -0.040 C 
HETATM    5  C7  UNL     1      23.699   0.846  53.263  1.00  0.00     0.013 C 
HETATM    6  C8  UNL     1      24.472   1.939  53.091  1.00  0.00    -0.059 C 
HETATM    7  C17 UNL     1      25.812   2.258  53.704  1.00  0.00     0.043 C 
HETATM    8  C18 UNL     1      26.845   1.325  53.134  1.00  0.00     0.082 C 
ENDROOT
BRANCH   6   9
HETATM    9  C9  UNL     1      23.989   2.995  52.192  1.00  0.00     0.184 C 
BRANCH   9  10
HETATM   10  N3  UNL     1      24.709   2.981  50.933  1.00  0.00    -0.281 NA
HETATM   11  C10 UNL     1      25.091   4.149  50.475  1.00  0.00     0.201 C 
BRANCH  11  12
HETATM   12  N4  UNL     1      25.795   4.131  49.242  1.00  0.00    -0.351 N 
HETATM   13  H15 UNL     1      25.674   3.301  48.602  1.00  0.00     0.166 HD
BRANCH  12  14
HETATM   14  C11 UNL     1      26.651   5.176  48.825  1.00  0.00     0.034 A 
HETATM   15  C12 UNL     1      26.328   6.484  48.636  1.00  0.00     0.029 A 
HETATM   16  C13 UNL     1      27.237   7.446  48.229  1.00  0.00     0.004 A 
HETATM   17  C14 UNL     1      28.535   7.124  47.989  1.00  0.00     0.024 A 
HETATM   18  C15 UNL     1      28.916   5.822  48.162  1.00  0.00     0.036 A 
HETATM   19 CL1  UNL     1      30.580   5.370  47.863  1.00  0.00    -0.084 Cl
HETATM   20  C16 UNL     1      27.997   4.904  48.563  1.00  0.00     0.053 A 
ENDBRANCH  12  14
ENDBRANCH  11  12
ENDBRANCH   9  10
ENDBRANCH   6   9
BRANCH   4  21
HETATM   21  C4  UNL     1      22.281  -0.834  54.061  1.00  0.00     0.042 C 
BRANCH  21  22
HETATM   22  C5  UNL     1      21.223   0.186  54.096  1.00  0.00     0.030 C 
BRANCH  22  23
HETATM   23  C6  UNL     1      20.015  -0.030  53.256  1.00  0.00     0.164 C 
BRANCH  23  24
HETATM   24  O1  UNL     1      19.135  -0.973  53.839  1.00  0.00    -0.401 OA
HETATM   25  H10 UNL     1      18.209  -0.803  53.528  1.00  0.00     0.209 HD
ENDBRANCH  23  24
ENDBRANCH  22  23
ENDBRANCH  21  22
ENDBRANCH   4  21
BRANCH   1  26
HETATM   26  N1  UNL     1      28.263  -0.302  54.379  1.00  0.00    -0.387 N 
HETATM   27  H1  UNL     1      28.925  -0.136  53.576  1.00  0.00     0.157 HD
HETATM   28  H2  UNL     1      28.480  -0.679  55.333  1.00  0.00     0.157 HD
ENDBRANCH   1  26
TORSDOF 9
ENDMDL
MODEL 8
REMARK VINA RESULT:      -6.9      1.996      3.392
REMARK  9 active torsions:
REMARK  status: ('A' for Active; 'I' for Inactive)
REMARK    1  A    between atoms: N1_1  and  C1_2 
REMARK    2  A    between atoms: C3_5  and  C4_6 
REMARK    3  A    between atoms: C4_6  and  C5_7 
REMARK    4  A    between atoms: C5_7  and  C6_8 
REMARK    5  A    between atoms: C6_8  and  O1_9 
REMARK    6  A    between atoms: C8_11  and  C9_12 
REMARK    7  A    between atoms: C9_12  and  N3_13 
REMARK    8  A    between atoms: C10_14  and  N4_15 
REMARK    9  A    between atoms: N4_15  and  C11_16 
ROOT
HETATM    1  C1  UNL     1      24.819  -0.866  54.856  1.00  0.00     0.097 C 
HETATM    2  N2  UNL     1      23.524  -0.787  54.691  1.00  0.00    -0.247 NA
HETATM    3  C2  UNL     1      22.765  -0.134  53.651  1.00  0.00     0.125 C 
HETATM    4  C3  UNL     1      22.931   0.636  52.563  1.00  0.00    -0.040 C 
HETATM    5  C7  UNL     1      24.276   1.084  52.097  1.00  0.00     0.013 C 
HETATM    6  C8  UNL     1      25.535   1.273  52.548  1.00  0.00    -0.059 C 
HETATM    7  C17 UNL     1      26.090   1.049  53.931  1.00  0.00     0.043 C 
HETATM    8  C18 UNL     1      26.112  -0.427  54.216  1.00  0.00     0.082 C 
ENDROOT
BRANCH   6   9
HETATM    9  C9  UNL     1      26.543   1.763  51.599  1.00  0.00     0.184 C 
BRANCH   9  10
HETATM   10  N3  UNL     1      26.182   3.067  51.078  1.00  0.00    -0.281 NA
HETATM   11  C10 UNL     1      26.195   3.189  49.772  1.00  0.00     0.201 C 
BRANCH  11  12
HETATM   12  N4  UNL     1      25.842   4.468  49.266  1.00  0.00    -0.351 N 
HETATM   13  H15 UNL     1      24.825   4.751  49.273  1.00  0.00     0.166 HD
BRANCH  12  14
HETATM   14  C11 UNL     1      26.787   5.386  48.753  1.00  0.00     0.034 A 
HETATM   15  C12 UNL     1      26.581   6.691  48.431  1.00  0.00     0.029 A 
HETATM   16  C13 UNL     1      27.571   7.523  47.937  1.00  0.00     0.004 A 
HETATM   17  C14 UNL     1      28.836   7.065  47.742  1.00  0.00     0.024 A 
HETATM   18  C15 UNL     1      29.100   5.759  48.048  1.00  0.00     0.036 A 
HETATM   19 CL1  UNL     1      30.717   5.134  47.810  1.00  0.00    -0.084 Cl
HETATM   20  C16 UNL     1      28.103   4.970  48.532  1.00  0.00     0.053 A 
ENDBRANCH  12  14
ENDBRANCH  11  12
ENDBRANCH   9  10
ENDBRANCH   6   9
BRANCH   4  21
HETATM   21  C4  UNL     1      21.988   1.197  51.627  1.00  0.00     0.042 C 
BRANCH  21  22
HETATM   22  C5  UNL     1      21.989   2.636  51.330  1.00  0.00     0.030 C 
BRANCH  22  23
HETATM   23  C6  UNL     1      21.167   3.529  52.189  1.00  0.00     0.164 C 
BRANCH  23  24
HETATM   24  O1  UNL     1      20.104   2.827  52.805  1.00  0.00    -0.401 OA
HETATM   25  H10 UNL     1      19.570   3.450  53.362  1.00  0.00     0.209 HD
ENDBRANCH  23  24
ENDBRANCH  22  23
ENDBRANCH  21  22
ENDBRANCH   4  21
BRANCH   1  26
HETATM   26  N1  UNL     1      24.927  -1.631  56.047  1.00  0.00    -0.387 N 
HETATM   27  H1  UNL     1      25.254  -2.600  55.795  1.00  0.00     0.157 HD
HETATM   28  H2  UNL     1      24.704  -1.246  56.997  1.00  0.00     0.157 HD
ENDBRANCH   1  26
TORSDOF 9
ENDMDL
MODEL 9
REMARK VINA RESULT:      -6.8      3.614      6.175
REMARK  9 active torsions:
REMARK  status: ('A' for Active; 'I' for Inactive)
REMARK    1  A    between atoms: N1_1  and  C1_2 
REMARK    2  A    between atoms: C3_5  and  C4_6 
REMARK    3  A    between atoms: C4_6  and  C5_7 
REMARK    4  A    between atoms: C5_7  and  C6_8 
REMARK    5  A    between atoms: C6_8  and  O1_9 
REMARK    6  A    between atoms: C8_11  and  C9_12 
REMARK    7  A    between atoms: C9_12  and  N3_13 
REMARK    8  A    between atoms: C10_14  and  N4_15 
REMARK    9  A    between atoms: N4_15  and  C11_16 
ROOT
HETATM    1  C1  UNL     1      25.434   3.210  51.152  1.00  0.00     0.097 C 
HETATM    2  N2  UNL     1      26.601   2.619  51.147  1.00  0.00    -0.247 NA
HETATM    3  C2  UNL     1      26.976   1.313  51.637  1.00  0.00     0.125 C 
HETATM    4  C3  UNL     1      26.463   0.254  52.284  1.00  0.00    -0.040 C 
HETATM    5  C7  UNL     1      25.044   0.206  52.742  1.00  0.00     0.013 C 
HETATM    6  C8  UNL     1      24.009   1.018  53.044  1.00  0.00    -0.059 C 
HETATM    7  C17 UNL     1      23.945   2.524  53.009  1.00  0.00     0.043 C 
HETATM    8  C18 UNL     1      24.006   2.983  51.579  1.00  0.00     0.082 C 
ENDROOT
BRANCH   6   9
HETATM    9  C9  UNL     1      22.746   0.402  53.472  1.00  0.00     0.184 C 
BRANCH   9  10
HETATM   10  N3  UNL     1      21.642   0.839  52.640  1.00  0.00    -0.281 NA
HETATM   11  C10 UNL     1      20.879  -0.108  52.150  1.00  0.00     0.201 C 
BRANCH  11  12
HETATM   12  N4  UNL     1      19.799   0.324  51.336  1.00  0.00    -0.351 N 
HETATM   13  H15 UNL     1      18.837  -0.069  51.521  1.00  0.00     0.166 HD
BRANCH  12  14
HETATM   14  C11 UNL     1      19.946   1.261  50.288  1.00  0.00     0.034 A 
HETATM   15  C12 UNL     1      19.108   2.284  49.970  1.00  0.00     0.029 A 
HETATM   16  C13 UNL     1      19.335   3.162  48.924  1.00  0.00     0.004 A 
HETATM   17  C14 UNL     1      20.437   3.044  48.138  1.00  0.00     0.024 A 
HETATM   18  C15 UNL     1      21.315   2.032  48.412  1.00  0.00     0.036 A 
HETATM   19 CL1  UNL     1      22.745   1.848  47.421  1.00  0.00    -0.084 Cl
HETATM   20  C16 UNL     1      21.061   1.188  49.447  1.00  0.00     0.053 A 
ENDBRANCH  12  14
ENDBRANCH  11  12
ENDBRANCH   9  10
ENDBRANCH   6   9
BRANCH   4  21
HETATM   21  C4  UNL     1      27.045  -1.003  52.685  1.00  0.00     0.042 C 
BRANCH  21  22
HETATM   22  C5  UNL     1      28.342  -1.045  53.375  1.00  0.00     0.030 C 
BRANCH  22  23
HETATM   23  C6  UNL     1      29.220  -2.222  53.144  1.00  0.00     0.164 C 
BRANCH  23  24
HETATM   24  O1  UNL     1      28.537  -3.438  53.385  1.00  0.00    -0.401 OA
HETATM   25  H10 UNL     1      29.175  -4.118  53.725  1.00  0.00     0.209 HD
ENDBRANCH  23  24
ENDBRANCH  22  23
ENDBRANCH  21  22
ENDBRANCH   4  21
BRANCH   1  26
HETATM   26  N1  UNL     1      25.723   4.456  50.536  1.00  0.00    -0.387 N 
HETATM   27  H1  UNL     1      25.734   4.320  49.492  1.00  0.00     0.157 HD
HETATM   28  H2  UNL     1      25.891   5.338  51.078  1.00  0.00     0.157 HD
ENDBRANCH   1  26
TORSDOF 9
ENDMDL
