MODEL 1
REMARK VINA RESULT:      -7.7      0.000      0.000
REMARK  6 active torsions:
REMARK  status: ('A' for Active; 'I' for Inactive)
REMARK    1  A    between atoms: C2_2  and  N1_3 
REMARK       I    between atoms: N1_3  and  C3_4 
REMARK    2  A    between atoms: C3_4  and  C4_6 
REMARK    3  A    between atoms: N2_8  and  C6_9 
REMARK    4  A    between atoms: C6_9  and  C7_10 
REMARK    5  A    between atoms: C11_15  and  O3_16 
REMARK    6  A    between atoms: C14_19  and  O4_20 
ROOT
HETATM    1  C4  UNL     1      22.342  -0.390  53.415  1.00  0.00     0.080 C 
HETATM    2  C5  UNL     1      23.638  -0.128  53.270  1.00  0.00     0.105 C 
HETATM    3  N2  UNL     1      24.807  -0.350  54.085  1.00  0.00    -0.383 N 
HETATM    4  C12 UNL     1      24.511  -1.186  55.207  1.00  0.00     0.152 C 
HETATM    5  C13 UNL     1      23.055  -1.448  55.362  1.00  0.00     0.030 C 
HETATM    6  C14 UNL     1      22.012  -1.144  54.626  1.00  0.00     0.080 C 
ENDROOT
BRANCH   3   7
HETATM    7  C6  UNL     1      25.952   0.327  53.580  1.00  0.00     0.162 C 
BRANCH   7   8
HETATM    8  C7  UNL     1      27.228   0.359  54.350  1.00  0.00     0.201 A 
HETATM    9  O2  UNL     1      27.827  -0.942  54.134  1.00  0.00    -0.349 OA
HETATM   10  C8  UNL     1      29.064  -1.208  53.681  1.00  0.00     0.136 A 
HETATM   11  C9  UNL     1      29.939  -0.254  53.395  1.00  0.00     0.026 A 
HETATM   12  C10 UNL     1      29.447   1.123  53.607  1.00  0.00     0.036 A 
HETATM   13  C11 UNL     1      28.205   1.401  54.048  1.00  0.00     0.074 A 
BRANCH  13  14
HETATM   14  O3  UNL     1      28.246   2.787  54.088  1.00  0.00    -0.362 OA
HETATM   15  H12 UNL     1      27.677   3.292  54.751  1.00  0.00     0.217 HD
ENDBRANCH  13  14
ENDBRANCH   7   8
ENDBRANCH   3   7
BRANCH   1  16
HETATM   16  C3  UNL     1      21.271  -0.090  52.485  1.00  0.00     0.256 C 
HETATM   17  N1  UNL     1      19.913   0.103  52.828  1.00  0.00    -0.350 N 
HETATM   18  H4  UNL     1      19.609   0.036  53.800  1.00  0.00     0.163 HD
HETATM   19  O1  UNL     1      21.531   0.013  51.270  1.00  0.00    -0.268 OA
BRANCH  17  20
HETATM   20  C2  UNL     1      19.184   0.374  51.637  1.00  0.00     0.107 C 
HETATM   21  C1  UNL     1      18.068  -0.395  51.697  1.00  0.00     0.029 C 
ENDBRANCH  17  20
ENDBRANCH   1  16
BRANCH   6  22
HETATM   22  O4  UNL     1      20.734  -1.523  54.999  1.00  0.00    -0.360 OA
HETATM   23  H16 UNL     1      20.672  -2.061  55.857  1.00  0.00     0.217 HD
ENDBRANCH   6  22
TORSDOF 6
ENDMDL
MODEL 2
REMARK VINA RESULT:      -7.4      3.542      5.072
REMARK  6 active torsions:
REMARK  status: ('A' for Active; 'I' for Inactive)
REMARK    1  A    between atoms: C2_2  and  N1_3 
REMARK       I    between atoms: N1_3  and  C3_4 
REMARK    2  A    between atoms: C3_4  and  C4_6 
REMARK    3  A    between atoms: N2_8  and  C6_9 
REMARK    4  A    between atoms: C6_9  and  C7_10 
REMARK    5  A    between atoms: C11_15  and  O3_16 
REMARK    6  A    between atoms: C14_19  and  O4_20 
ROOT
HETATM    1  C4  UNL     1      24.964   2.839  51.215  1.00  0.00     0.080 C 
HETATM    2  C5  UNL     1      25.491   1.655  51.518  1.00  0.00     0.105 C 
HETATM    3  N2  UNL     1      25.182   0.636  52.490  1.00  0.00    -0.383 N 
HETATM    4  C12 UNL     1      23.936   0.896  53.142  1.00  0.00     0.152 C 
HETATM    5  C13 UNL     1      23.377   2.232  52.806  1.00  0.00     0.030 C 
HETATM    6  C14 UNL     1      23.752   3.168  51.967  1.00  0.00     0.080 C 
ENDROOT
BRANCH   3   7
HETATM    7  C6  UNL     1      26.197  -0.359  52.567  1.00  0.00     0.162 C 
BRANCH   7   8
HETATM    8  C7  UNL     1      27.166  -0.383  53.699  1.00  0.00     0.201 A 
HETATM    9  O2  UNL     1      27.987  -1.551  53.464  1.00  0.00    -0.349 OA
HETATM   10  C8  UNL     1      29.328  -1.608  53.394  1.00  0.00     0.136 A 
HETATM   11  C9  UNL     1      30.097  -0.545  53.576  1.00  0.00     0.026 A 
HETATM   12  C10 UNL     1      29.367   0.709  53.855  1.00  0.00     0.036 A 
HETATM   13  C11 UNL     1      28.023   0.779  53.914  1.00  0.00     0.074 A 
BRANCH  13  14
HETATM   14  O3  UNL     1      27.844   2.124  54.207  1.00  0.00    -0.362 OA
HETATM   15  H12 UNL     1      28.636   2.697  54.459  1.00  0.00     0.217 HD
ENDBRANCH  13  14
ENDBRANCH   7   8
ENDBRANCH   3   7
BRANCH   1  16
HETATM   16  C3  UNL     1      25.407   3.766  50.191  1.00  0.00     0.256 C 
HETATM   17  N1  UNL     1      26.710   4.304  50.076  1.00  0.00    -0.350 N 
HETATM   18  H4  UNL     1      27.437   4.050  50.746  1.00  0.00     0.163 HD
HETATM   19  O1  UNL     1      24.597   4.144  49.323  1.00  0.00    -0.268 OA
BRANCH  17  20
HETATM   20  C2  UNL     1      26.737   5.171  48.948  1.00  0.00     0.107 C 
HETATM   21  C1  UNL     1      28.019   5.167  48.504  1.00  0.00     0.029 C 
ENDBRANCH  17  20
ENDBRANCH   1  16
BRANCH   6  22
HETATM   22  O4  UNL     1      23.035   4.345  51.835  1.00  0.00    -0.360 OA
HETATM   23  H16 UNL     1      23.574   5.154  51.544  1.00  0.00     0.217 HD
ENDBRANCH   6  22
TORSDOF 6
ENDMDL
MODEL 3
REMARK VINA RESULT:      -7.3      2.772      4.312
REMARK  6 active torsions:
REMARK  status: ('A' for Active; 'I' for Inactive)
REMARK    1  A    between atoms: C2_2  and  N1_3 
REMARK       I    between atoms: N1_3  and  C3_4 
REMARK    2  A    between atoms: C3_4  and  C4_6 
REMARK    3  A    between atoms: N2_8  and  C6_9 
REMARK    4  A    between atoms: C6_9  and  C7_10 
REMARK    5  A    between atoms: C11_15  and  O3_16 
REMARK    6  A    between atoms: C14_19  and  O4_20 
ROOT
HETATM    1  C4  UNL     1      24.118   1.689  51.993  1.00  0.00     0.080 C 
HETATM    2  C5  UNL     1      24.979   0.835  52.538  1.00  0.00     0.105 C 
HETATM    3  N2  UNL     1      24.865  -0.233  53.500  1.00  0.00    -0.383 N 
HETATM    4  C12 UNL     1      23.497  -0.535  53.786  1.00  0.00     0.152 C 
HETATM    5  C13 UNL     1      22.553   0.444  53.184  1.00  0.00     0.030 C 
HETATM    6  C14 UNL     1      22.723   1.463  52.375  1.00  0.00     0.080 C 
ENDROOT
BRANCH   3   7
HETATM    7  C6  UNL     1      26.135  -0.706  53.933  1.00  0.00     0.162 C 
BRANCH   7   8
HETATM    8  C7  UNL     1      27.299  -0.745  53.003  1.00  0.00     0.201 A 
HETATM    9  O2  UNL     1      28.059   0.451  53.304  1.00  0.00    -0.349 OA
HETATM   10  C8  UNL     1      29.363   0.533  53.619  1.00  0.00     0.136 A 
HETATM   11  C9  UNL     1      30.156  -0.528  53.659  1.00  0.00     0.026 A 
HETATM   12  C10 UNL     1      29.494  -1.809  53.337  1.00  0.00     0.036 A 
HETATM   13  C11 UNL     1      28.185  -1.905  53.033  1.00  0.00     0.074 A 
BRANCH  13  14
HETATM   14  O3  UNL     1      28.068  -3.269  52.807  1.00  0.00    -0.362 OA
HETATM   15  H12 UNL     1      27.159  -3.683  52.661  1.00  0.00     0.217 HD
ENDBRANCH  13  14
ENDBRANCH   7   8
ENDBRANCH   3   7
BRANCH   1  16
HETATM   16  C3  UNL     1      24.400   2.731  51.024  1.00  0.00     0.256 C 
HETATM   17  N1  UNL     1      25.497   3.624  51.072  1.00  0.00    -0.350 N 
HETATM   18  H4  UNL     1      26.175   3.570  51.833  1.00  0.00     0.163 HD
HETATM   19  O1  UNL     1      23.633   2.884  50.055  1.00  0.00    -0.268 OA
BRANCH  17  20
HETATM   20  C2  UNL     1      25.417   4.491  49.947  1.00  0.00     0.107 C 
HETATM   21  C1  UNL     1      26.608   4.385  49.308  1.00  0.00     0.029 C 
ENDBRANCH  17  20
ENDBRANCH   1  16
BRANCH   6  22
HETATM   22  O4  UNL     1      21.651   2.228  51.947  1.00  0.00    -0.360 OA
HETATM   23  H16 UNL     1      21.577   3.149  52.366  1.00  0.00     0.217 HD
ENDBRANCH   6  22
TORSDOF 6
ENDMDL
MODEL 4
REMARK VINA RESULT:      -7.3      0.983      1.747
REMARK  6 active torsions:
REMARK  status: ('A' for Active; 'I' for Inactive)
REMARK    1  A    between atoms: C2_2  and  N1_3 
REMARK       I    between atoms: N1_3  and  C3_4 
REMARK    2  A    between atoms: C3_4  and  C4_6 
REMARK    3  A    between atoms: N2_8  and  C6_9 
REMARK    4  A    between atoms: C6_9  and  C7_10 
REMARK    5  A    between atoms: C11_15  and  O3_16 
REMARK    6  A    between atoms: C14_19  and  O4_20 
ROOT
HETATM    1  C4  UNL     1      22.498  -0.299  53.444  1.00  0.00     0.080 C 
HETATM    2  C5  UNL     1      23.738   0.145  53.253  1.00  0.00     0.105 C 
HETATM    3  N2  UNL     1      24.970   0.040  53.994  1.00  0.00    -0.383 N 
HETATM    4  C12 UNL     1      24.851  -0.888  55.076  1.00  0.00     0.152 C 
HETATM    5  C13 UNL     1      23.454  -1.354  55.285  1.00  0.00     0.030 C 
HETATM    6  C14 UNL     1      22.341  -1.155  54.621  1.00  0.00     0.080 C 
ENDROOT
BRANCH   3   7
HETATM    7  C6  UNL     1      25.984   0.893  53.477  1.00  0.00     0.162 C 
BRANCH   7   8
HETATM    8  C7  UNL     1      27.132   0.341  52.703  1.00  0.00     0.201 A 
HETATM    9  O2  UNL     1      28.297   1.030  53.219  1.00  0.00    -0.349 OA
HETATM   10  C8  UNL     1      29.423   0.482  53.704  1.00  0.00     0.136 A 
HETATM   11  C9  UNL     1      29.623  -0.828  53.736  1.00  0.00     0.026 A 
HETATM   12  C10 UNL     1      28.508  -1.638  53.203  1.00  0.00     0.036 A 
HETATM   13  C11 UNL     1      27.368  -1.099  52.728  1.00  0.00     0.074 A 
BRANCH  13  14
HETATM   14  O3  UNL     1      26.676  -2.241  52.351  1.00  0.00    -0.362 OA
HETATM   15  H12 UNL     1      26.745  -3.082  52.906  1.00  0.00     0.217 HD
ENDBRANCH  13  14
ENDBRANCH   7   8
ENDBRANCH   3   7
BRANCH   1  16
HETATM   16  C3  UNL     1      21.346  -0.097  52.587  1.00  0.00     0.256 C 
HETATM   17  N1  UNL     1      19.998  -0.070  53.014  1.00  0.00    -0.350 N 
HETATM   18  H4  UNL     1      19.763  -0.198  53.999  1.00  0.00     0.163 HD
HETATM   19  O1  UNL     1      21.519   0.069  51.364  1.00  0.00    -0.268 OA
BRANCH  17  20
HETATM   20  C2  UNL     1      19.172   0.149  51.876  1.00  0.00     0.107 C 
HETATM   21  C1  UNL     1      18.049  -0.584  52.080  1.00  0.00     0.029 C 
ENDBRANCH  17  20
ENDBRANCH   1  16
BRANCH   6  22
HETATM   22  O4  UNL     1      21.147  -1.724  55.031  1.00  0.00    -0.360 OA
HETATM   23  H16 UNL     1      20.936  -2.632  54.629  1.00  0.00     0.217 HD
ENDBRANCH   6  22
TORSDOF 6
ENDMDL
MODEL 5
REMARK VINA RESULT:      -7.2      1.842      7.615
REMARK  6 active torsions:
REMARK  status: ('A' for Active; 'I' for Inactive)
REMARK    1  A    between atoms: C2_2  and  N1_3 
REMARK       I    between atoms: N1_3  and  C3_4 
REMARK    2  A    between atoms: C3_4  and  C4_6 
REMARK    3  A    between atoms: N2_8  and  C6_9 
REMARK    4  A    between atoms: C6_9  and  C7_10 
REMARK    5  A    between atoms: C11_15  and  O3_16 
REMARK    6  A    between atoms: C14_19  and  O4_20 
ROOT
HETATM    1  C4  UNL     1      25.395   0.709  53.238  1.00  0.00     0.080 C 
HETATM    2  C5  UNL     1      24.185   0.421  52.768  1.00  0.00     0.105 C 
HETATM    3  N2  UNL     1      22.998   1.196  52.502  1.00  0.00    -0.383 N 
HETATM    4  C12 UNL     1      23.255   2.598  52.612  1.00  0.00     0.152 C 
HETATM    5  C13 UNL     1      24.605   2.897  53.159  1.00  0.00     0.030 C 
HETATM    6  C14 UNL     1      25.628   2.135  53.469  1.00  0.00     0.080 C 
ENDROOT
BRANCH   3   7
HETATM    7  C6  UNL     1      21.872   0.375  52.214  1.00  0.00     0.162 C 
BRANCH   7   8
HETATM    8  C7  UNL     1      20.663   0.395  53.085  1.00  0.00     0.201 A 
HETATM    9  O2  UNL     1      19.572   0.749  52.201  1.00  0.00    -0.349 OA
HETATM   10  C8  UNL     1      18.419   0.083  52.019  1.00  0.00     0.136 A 
HETATM   11  C9  UNL     1      18.117  -1.019  52.690  1.00  0.00     0.026 A 
HETATM   12  C10 UNL     1      19.149  -1.462  53.650  1.00  0.00     0.036 A 
HETATM   13  C11 UNL     1      20.315  -0.810  53.831  1.00  0.00     0.074 A 
BRANCH  13  14
HETATM   14  O3  UNL     1      20.903  -1.594  54.813  1.00  0.00    -0.362 OA
HETATM   15  H12 UNL     1      20.531  -1.596  55.751  1.00  0.00     0.217 HD
ENDBRANCH  13  14
ENDBRANCH   7   8
ENDBRANCH   3   7
BRANCH   1  16
HETATM   16  C3  UNL     1      26.499  -0.207  53.457  1.00  0.00     0.256 C 
HETATM   17  N1  UNL     1      27.837   0.004  53.050  1.00  0.00    -0.350 N 
HETATM   18  H4  UNL     1      28.100   0.858  52.556  1.00  0.00     0.163 HD
HETATM   19  O1  UNL     1      26.288  -1.283  54.050  1.00  0.00    -0.268 OA
BRANCH  17  20
HETATM   20  C2  UNL     1      28.609  -1.123  53.447  1.00  0.00     0.107 C 
HETATM   21  C1  UNL     1      29.891  -0.688  53.533  1.00  0.00     0.029 C 
ENDBRANCH  17  20
ENDBRANCH   1  16
BRANCH   6  22
HETATM   22  O4  UNL     1      26.802   2.676  53.965  1.00  0.00    -0.360 OA
HETATM   23  H16 UNL     1      27.371   3.176  53.290  1.00  0.00     0.217 HD
ENDBRANCH   6  22
TORSDOF 6
ENDMDL
MODEL 6
REMARK VINA RESULT:      -7.1      1.589      2.431
REMARK  6 active torsions:
REMARK  status: ('A' for Active; 'I' for Inactive)
REMARK    1  A    between atoms: C2_2  and  N1_3 
REMARK       I    between atoms: N1_3  and  C3_4 
REMARK    2  A    between atoms: C3_4  and  C4_6 
REMARK    3  A    between atoms: N2_8  and  C6_9 
REMARK    4  A    between atoms: C6_9  and  C7_10 
REMARK    5  A    between atoms: C11_15  and  O3_16 
REMARK    6  A    between atoms: C14_19  and  O4_20 
ROOT
HETATM    1  C4  UNL     1      22.645   0.744  52.918  1.00  0.00     0.080 C 
HETATM    2  C5  UNL     1      23.896   0.292  52.921  1.00  0.00     0.105 C 
HETATM    3  N2  UNL     1      25.166   0.842  52.517  1.00  0.00    -0.383 N 
HETATM    4  C12 UNL     1      25.058   2.235  52.211  1.00  0.00     0.152 C 
HETATM    5  C13 UNL     1      23.651   2.714  52.192  1.00  0.00     0.030 C 
HETATM    6  C14 UNL     1      22.510   2.138  52.489  1.00  0.00     0.080 C 
ENDROOT
BRANCH   3   7
HETATM    7  C6  UNL     1      26.198  -0.137  52.509  1.00  0.00     0.162 C 
BRANCH   7   8
HETATM    8  C7  UNL     1      27.152  -0.259  53.648  1.00  0.00     0.201 A 
HETATM    9  O2  UNL     1      27.871  -1.491  53.404  1.00  0.00    -0.349 OA
HETATM   10  C8  UNL     1      29.202  -1.663  53.343  1.00  0.00     0.136 A 
HETATM   11  C9  UNL     1      30.059  -0.673  53.545  1.00  0.00     0.026 A 
HETATM   12  C10 UNL     1      29.438   0.635  53.835  1.00  0.00     0.036 A 
HETATM   13  C11 UNL     1      28.104   0.822  53.885  1.00  0.00     0.074 A 
BRANCH  13  14
HETATM   14  O3  UNL     1      28.041   2.173  54.194  1.00  0.00    -0.362 OA
HETATM   15  H12 UNL     1      28.889   2.703  54.329  1.00  0.00     0.217 HD
ENDBRANCH  13  14
ENDBRANCH   7   8
ENDBRANCH   3   7
BRANCH   1  16
HETATM   16  C3  UNL     1      21.453   0.048  53.362  1.00  0.00     0.256 C 
HETATM   17  N1  UNL     1      20.211   0.028  52.685  1.00  0.00    -0.350 N 
HETATM   18  H4  UNL     1      20.093   0.531  51.805  1.00  0.00     0.163 HD
HETATM   19  O1  UNL     1      21.487  -0.597  54.428  1.00  0.00    -0.268 OA
BRANCH  17  20
HETATM   20  C2  UNL     1      19.300  -0.760  53.443  1.00  0.00     0.107 C 
HETATM   21  C1  UNL     1      18.175  -0.859  52.692  1.00  0.00     0.029 C 
ENDBRANCH  17  20
ENDBRANCH   1  16
BRANCH   6  22
HETATM   22  O4  UNL     1      21.312   2.823  52.393  1.00  0.00    -0.360 OA
HETATM   23  H16 UNL     1      20.475   2.251  52.451  1.00  0.00     0.217 HD
ENDBRANCH   6  22
TORSDOF 6
ENDMDL
MODEL 7
REMARK VINA RESULT:      -7.0      1.676      7.385
REMARK  6 active torsions:
REMARK  status: ('A' for Active; 'I' for Inactive)
REMARK    1  A    between atoms: C2_2  and  N1_3 
REMARK       I    between atoms: N1_3  and  C3_4 
REMARK    2  A    between atoms: C3_4  and  C4_6 
REMARK    3  A    between atoms: N2_8  and  C6_9 
REMARK    4  A    between atoms: C6_9  and  C7_10 
REMARK    5  A    between atoms: C11_15  and  O3_16 
REMARK    6  A    between atoms: C14_19  and  O4_20 
ROOT
HETATM    1  C4  UNL     1      24.895  -0.296  54.465  1.00  0.00     0.080 C 
HETATM    2  C5  UNL     1      23.932   0.005  53.598  1.00  0.00     0.105 C 
HETATM    3  N2  UNL     1      22.550  -0.379  53.456  1.00  0.00    -0.383 N 
HETATM    4  C12 UNL     1      22.089  -1.103  54.600  1.00  0.00     0.152 C 
HETATM    5  C13 UNL     1      23.184  -1.447  55.545  1.00  0.00     0.030 C 
HETATM    6  C14 UNL     1      24.459  -1.139  55.579  1.00  0.00     0.080 C 
ENDROOT
BRANCH   3   7
HETATM    7  C6  UNL     1      21.998   0.042  52.214  1.00  0.00     0.162 C 
BRANCH   7   8
HETATM    8  C7  UNL     1      20.722   0.810  52.160  1.00  0.00     0.201 A 
HETATM    9  O2  UNL     1      20.748   1.490  50.882  1.00  0.00    -0.349 OA
HETATM   10  C8  UNL     1      19.812   1.457  49.919  1.00  0.00     0.136 A 
HETATM   11  C9  UNL     1      18.677   0.786  50.050  1.00  0.00     0.026 A 
HETATM   12  C10 UNL     1      18.523   0.072  51.334  1.00  0.00     0.036 A 
HETATM   13  C11 UNL     1      19.461   0.087  52.301  1.00  0.00     0.074 A 
BRANCH  13  14
HETATM   14  O3  UNL     1      18.850  -0.695  53.271  1.00  0.00    -0.362 OA
HETATM   15  H12 UNL     1      18.758  -1.691  53.135  1.00  0.00     0.217 HD
ENDBRANCH  13  14
ENDBRANCH   7   8
ENDBRANCH   3   7
BRANCH   1  16
HETATM   16  C3  UNL     1      26.265   0.180  54.463  1.00  0.00     0.256 C 
HETATM   17  N1  UNL     1      27.420  -0.636  54.492  1.00  0.00    -0.350 N 
HETATM   18  H4  UNL     1      27.335  -1.653  54.517  1.00  0.00     0.163 HD
HETATM   19  O1  UNL     1      26.483   1.407  54.436  1.00  0.00    -0.268 OA
BRANCH  17  20
HETATM   20  C2  UNL     1      28.565   0.208  54.483  1.00  0.00     0.107 C 
HETATM   21  C1  UNL     1      29.488  -0.420  53.712  1.00  0.00     0.029 C 
ENDBRANCH  17  20
ENDBRANCH   1  16
BRANCH   6  22
HETATM   22  O4  UNL     1      25.281  -1.592  56.597  1.00  0.00    -0.360 OA
HETATM   23  H16 UNL     1      26.093  -2.123  56.298  1.00  0.00     0.217 HD
ENDBRANCH   6  22
TORSDOF 6
ENDMDL
MODEL 8
REMARK VINA RESULT:      -7.0      3.266      6.328
REMARK  6 active torsions:
REMARK  status: ('A' for Active; 'I' for Inactive)
REMARK    1  A    between atoms: C2_2  and  N1_3 
REMARK       I    between atoms: N1_3  and  C3_4 
REMARK    2  A    between atoms: C3_4  and  C4_6 
REMARK    3  A    between atoms: N2_8  and  C6_9 
REMARK    4  A    between atoms: C6_9  and  C7_10 
REMARK    5  A    between atoms: C11_15  and  O3_16 
REMARK    6  A    between atoms: C14_19  and  O4_20 
ROOT
HETATM    1  C4  UNL     1      25.212   0.142  53.960  1.00  0.00     0.080 C 
HETATM    2  C5  UNL     1      24.491   0.814  53.066  1.00  0.00     0.105 C 
HETATM    3  N2  UNL     1      23.115   0.760  52.638  1.00  0.00    -0.383 N 
HETATM    4  C12 UNL     1      22.335  -0.084  53.489  1.00  0.00     0.152 C 
HETATM    5  C13 UNL     1      23.163  -0.840  54.466  1.00  0.00     0.030 C 
HETATM    6  C14 UNL     1      24.442  -0.814  54.758  1.00  0.00     0.080 C 
ENDROOT
BRANCH   3   7
HETATM    7  C6  UNL     1      22.884   1.543  51.472  1.00  0.00     0.162 C 
BRANCH   7   8
HETATM    8  C7  UNL     1      23.872   2.565  51.024  1.00  0.00     0.201 A 
HETATM    9  O2  UNL     1      23.646   2.703  49.600  1.00  0.00    -0.349 OA
HETATM   10  C8  UNL     1      23.402   3.834  48.917  1.00  0.00     0.136 A 
HETATM   11  C9  UNL     1      23.371   5.025  49.496  1.00  0.00     0.026 A 
HETATM   12  C10 UNL     1      23.620   5.013  50.953  1.00  0.00     0.036 A 
HETATM   13  C11 UNL     1      23.852   3.883  51.650  1.00  0.00     0.074 A 
BRANCH  13  14
HETATM   14  O3  UNL     1      24.030   4.396  52.926  1.00  0.00    -0.362 OA
HETATM   15  H12 UNL     1      24.288   3.785  53.688  1.00  0.00     0.217 HD
ENDBRANCH  13  14
ENDBRANCH   7   8
ENDBRANCH   3   7
BRANCH   1  16
HETATM   16  C3  UNL     1      26.617   0.317  54.273  1.00  0.00     0.256 C 
HETATM   17  N1  UNL     1      27.607  -0.691  54.203  1.00  0.00    -0.350 N 
HETATM   18  H4  UNL     1      27.362  -1.639  53.914  1.00  0.00     0.163 HD
HETATM   19  O1  UNL     1      27.024   1.436  54.639  1.00  0.00    -0.268 OA
BRANCH  17  20
HETATM   20  C2  UNL     1      28.853  -0.122  54.589  1.00  0.00     0.107 C 
HETATM   21  C1  UNL     1      29.771  -0.604  53.715  1.00  0.00     0.029 C 
ENDBRANCH  17  20
ENDBRANCH   1  16
BRANCH   6  22
HETATM   22  O4  UNL     1      24.972  -1.634  55.739  1.00  0.00    -0.360 OA
HETATM   23  H16 UNL     1      24.294  -2.156  56.285  1.00  0.00     0.217 HD
ENDBRANCH   6  22
TORSDOF 6
ENDMDL
MODEL 9
REMARK VINA RESULT:      -6.9      2.757      7.013
REMARK  6 active torsions:
REMARK  status: ('A' for Active; 'I' for Inactive)
REMARK    1  A    between atoms: C2_2  and  N1_3 
REMARK       I    between atoms: N1_3  and  C3_4 
REMARK    2  A    between atoms: C3_4  and  C4_6 
REMARK    3  A    between atoms: N2_8  and  C6_9 
REMARK    4  A    between atoms: C6_9  and  C7_10 
REMARK    5  A    between atoms: C11_15  and  O3_16 
REMARK    6  A    between atoms: C14_19  and  O4_20 
ROOT
HETATM    1  C4  UNL     1      25.115   0.096  53.949  1.00  0.00     0.080 C 
HETATM    2  C5  UNL     1      24.380   0.735  53.043  1.00  0.00     0.105 C 
HETATM    3  N2  UNL     1      23.006   0.642  52.615  1.00  0.00    -0.383 N 
HETATM    4  C12 UNL     1      22.245  -0.204  53.481  1.00  0.00     0.152 C 
HETATM    5  C13 UNL     1      23.089  -0.923  54.472  1.00  0.00     0.030 C 
HETATM    6  C14 UNL     1      24.367  -0.863  54.764  1.00  0.00     0.080 C 
ENDROOT
BRANCH   3   7
HETATM    7  C6  UNL     1      22.757   1.398  51.436  1.00  0.00     0.162 C 
BRANCH   7   8
HETATM    8  C7  UNL     1      22.368   2.835  51.512  1.00  0.00     0.201 A 
HETATM    9  O2  UNL     1      22.704   3.382  50.214  1.00  0.00    -0.349 OA
HETATM   10  C8  UNL     1      21.898   4.058  49.378  1.00  0.00     0.136 A 
HETATM   11  C9  UNL     1      20.640   4.346  49.677  1.00  0.00     0.026 A 
HETATM   12  C10 UNL     1      20.190   3.862  50.999  1.00  0.00     0.036 A 
HETATM   13  C11 UNL     1      20.986   3.171  51.839  1.00  0.00     0.074 A 
BRANCH  13  14
HETATM   14  O3  UNL     1      20.124   2.970  52.908  1.00  0.00    -0.362 OA
HETATM   15  H12 UNL     1      19.173   3.305  52.863  1.00  0.00     0.217 HD
ENDBRANCH  13  14
ENDBRANCH   7   8
ENDBRANCH   3   7
BRANCH   1  16
HETATM   16  C3  UNL     1      26.516   0.309  54.259  1.00  0.00     0.256 C 
HETATM   17  N1  UNL     1      27.529  -0.677  54.209  1.00  0.00    -0.350 N 
HETATM   18  H4  UNL     1      27.306  -1.636  53.938  1.00  0.00     0.163 HD
HETATM   19  O1  UNL     1      26.897   1.444  54.603  1.00  0.00    -0.268 OA
BRANCH  17  20
HETATM   20  C2  UNL     1      28.761  -0.073  54.584  1.00  0.00     0.107 C 
HETATM   21  C1  UNL     1      29.692  -0.552  53.721  1.00  0.00     0.029 C 
ENDBRANCH  17  20
ENDBRANCH   1  16
BRANCH   6  22
HETATM   22  O4  UNL     1      24.916  -1.653  55.759  1.00  0.00    -0.360 OA
HETATM   23  H16 UNL     1      25.753  -1.283  56.198  1.00  0.00     0.217 HD
ENDBRANCH   6  22
TORSDOF 6
ENDMDL
