MODEL 1
REMARK VINA RESULT:      -7.7      0.000      0.000
REMARK  7 active torsions:
REMARK  status: ('A' for Active; 'I' for Inactive)
REMARK    1  A    between atoms: C2_2  and  N4_20 
REMARK    2  A    between atoms: C3_3  and  C4_4 
REMARK    3  A    between atoms: C9_10  and  N2_11 
REMARK    4  A    between atoms: N2_11  and  C10_12 
REMARK    5  A    between atoms: N4_20  and  C16_21 
REMARK    6  A    between atoms: C16_21  and  C17_22 
REMARK    7  A    between atoms: C17_22  and  N5_23 
ROOT
HETATM    1  C4  UNL     1      22.665   1.337  53.218  1.00  0.00     0.094 C 
HETATM    2  C5  UNL     1      21.295   0.439  53.399  1.00  0.00     0.093 C 
HETATM    3  C6  UNL     1      22.416  -0.856  53.998  1.00  0.00     0.408 A 
HETATM    4  C7  UNL     1      21.335  -1.055  54.411  1.00  0.00     0.340 A 
HETATM    5  N1  UNL     1      22.505  -0.824  53.959  1.00  0.00     0.198 N 
HETATM    6  C8  UNL     1      23.385   0.041  53.418  1.00  0.00     0.437 A 
HETATM    7  C9  UNL     1      24.625  -0.370  53.147  1.00  0.00     0.296 A 
HETATM    8  N3  UNL     1      23.638  -0.938  53.628  1.00  0.00     0.228 N 
ENDROOT
BRANCH   1   9
HETATM    9  C3  UNL     1      22.666   1.916  51.908  1.00  0.00     0.007 C 
HETATM   10  C2  UNL     1      22.218   3.055  51.355  1.00  0.00    -0.003 C 
HETATM   11  C1  UNL     1      21.503   4.168  52.037  1.00  0.00     0.067 C 
BRANCH  10  12
HETATM   12  N4  UNL     1      22.475   3.140  49.969  1.00  0.00    -0.392 N 
HETATM   13  H14 UNL     1      21.463   3.039  49.677  1.00  0.00     0.159 HD
BRANCH  12  14
HETATM   14  C16 UNL     1      23.537   3.282  49.010  1.00  0.00     0.150 C 
BRANCH  14  15
HETATM   15  C17 UNL     1      24.638   4.211  49.455  1.00  0.00     0.290 C 
BRANCH  15  16
HETATM   16  N5  UNL     1      25.877   3.383  49.486  1.00  0.00     0.081 N 
HETATM   17  C18 UNL     1      26.087   2.812  50.773  1.00  0.00     0.309 C 
HETATM   18  C19 UNL     1      26.980   4.251  49.182  1.00  0.00     0.309 C 
ENDBRANCH  15  16
ENDBRANCH  14  15
ENDBRANCH  12  14
ENDBRANCH  10  12
ENDBRANCH   1   9
BRANCH   7  19
HETATM   19  N2  UNL     1      25.932  -0.741  52.853  1.00  0.00    -0.334 N 
HETATM   20  H9  UNL     1      25.877  -1.432  52.116  1.00  0.00     0.167 HD
BRANCH  19  21
HETATM   21  C10 UNL     1      27.223  -0.521  53.208  1.00  0.00     0.035 A 
HETATM   22  C11 UNL     1      27.978  -1.673  52.994  1.00  0.00     0.029 A 
HETATM   23  C12 UNL     1      29.277  -1.595  53.260  1.00  0.00     0.004 A 
HETATM   24  C13 UNL     1      30.015  -0.538  53.728  1.00  0.00     0.024 A 
HETATM   25  C14 UNL     1      29.199   0.588  53.916  1.00  0.00     0.036 A 
HETATM   26 CL1  UNL     1      29.656   2.181  54.497  1.00  0.00    -0.084 Cl
HETATM   27  C15 UNL     1      27.847   0.595  53.664  1.00  0.00     0.053 A 
ENDBRANCH  19  21
ENDBRANCH   7  19
TORSDOF 7
ENDMDL
MODEL 2
REMARK VINA RESULT:      -7.6      2.386      5.610
REMARK  7 active torsions:
REMARK  status: ('A' for Active; 'I' for Inactive)
REMARK    1  A    between atoms: C2_2  and  N4_20 
REMARK    2  A    between atoms: C3_3  and  C4_4 
REMARK    3  A    between atoms: C9_10  and  N2_11 
REMARK    4  A    between atoms: N2_11  and  C10_12 
REMARK    5  A    between atoms: N4_20  and  C16_21 
REMARK    6  A    between atoms: C16_21  and  C17_22 
REMARK    7  A    between atoms: C17_22  and  N5_23 
ROOT
HETATM    1  C4  UNL     1      26.996   1.290  52.324  1.00  0.00     0.094 C 
HETATM    2  C5  UNL     1      28.252   1.679  53.318  1.00  0.00     0.093 C 
HETATM    3  C6  UNL     1      27.657   0.303  54.341  1.00  0.00     0.408 A 
HETATM    4  C7  UNL     1      28.791   0.502  54.576  1.00  0.00     0.340 A 
HETATM    5  N1  UNL     1      27.562   0.294  54.308  1.00  0.00     0.198 N 
HETATM    6  C8  UNL     1      26.518   0.453  53.469  1.00  0.00     0.437 A 
HETATM    7  C9  UNL     1      25.338  -0.081  53.784  1.00  0.00     0.296 A 
HETATM    8  N3  UNL     1      26.434  -0.070  54.356  1.00  0.00     0.228 N 
ENDROOT
BRANCH   1   9
HETATM    9  C3  UNL     1      26.272   2.484  52.011  1.00  0.00     0.007 C 
HETATM   10  C2  UNL     1      26.056   3.223  50.910  1.00  0.00    -0.003 C 
HETATM   11  C1  UNL     1      26.581   2.973  49.539  1.00  0.00     0.067 C 
BRANCH  10  12
HETATM   12  N4  UNL     1      25.242   4.352  51.146  1.00  0.00    -0.392 N 
HETATM   13  H14 UNL     1      25.924   4.827  51.802  1.00  0.00     0.159 HD
BRANCH  12  14
HETATM   14  C16 UNL     1      23.966   4.930  50.821  1.00  0.00     0.150 C 
BRANCH  14  15
HETATM   15  C17 UNL     1      22.803   3.996  51.032  1.00  0.00     0.290 C 
BRANCH  15  16
HETATM   16  N5  UNL     1      22.605   3.297  49.731  1.00  0.00     0.081 N 
HETATM   17  C18 UNL     1      21.344   3.623  49.154  1.00  0.00     0.309 C 
HETATM   18  C19 UNL     1      22.640   1.886  49.992  1.00  0.00     0.309 C 
ENDBRANCH  15  16
ENDBRANCH  14  15
ENDBRANCH  12  14
ENDBRANCH  10  12
ENDBRANCH   1   9
BRANCH   7  19
HETATM   19  N2  UNL     1      24.087  -0.625  54.056  1.00  0.00    -0.334 N 
HETATM   20  H9  UNL     1      24.250  -1.478  54.576  1.00  0.00     0.167 HD
BRANCH  19  21
HETATM   21  C10 UNL     1      22.759  -0.430  53.860  1.00  0.00     0.035 A 
HETATM   22  C11 UNL     1      22.048  -1.558  54.266  1.00  0.00     0.029 A 
HETATM   23  C12 UNL     1      20.724  -1.497  54.171  1.00  0.00     0.004 A 
HETATM   24  C13 UNL     1      19.923  -0.479  53.722  1.00  0.00     0.024 A 
HETATM   25  C14 UNL     1      20.698   0.625  53.336  1.00  0.00     0.036 A 
HETATM   26 CL1  UNL     1      20.156   2.168  52.694  1.00  0.00    -0.084 Cl
HETATM   27  C15 UNL     1      22.072   0.648  53.403  1.00  0.00     0.053 A 
ENDBRANCH  19  21
ENDBRANCH   7  19
TORSDOF 7
ENDMDL
MODEL 3
REMARK VINA RESULT:      -7.6      2.598      5.439
REMARK  7 active torsions:
REMARK  status: ('A' for Active; 'I' for Inactive)
REMARK    1  A    between atoms: C2_2  and  N4_20 
REMARK    2  A    between atoms: C3_3  and  C4_4 
REMARK    3  A    between atoms: C9_10  and  N2_11 
REMARK    4  A    between atoms: N2_11  and  C10_12 
REMARK    5  A    between atoms: N4_20  and  C16_21 
REMARK    6  A    between atoms: C16_21  and  C17_22 
REMARK    7  A    between atoms: C17_22  and  N5_23 
ROOT
HETATM    1  C4  UNL     1      27.016   1.165  52.379  1.00  0.00     0.094 C 
HETATM    2  C5  UNL     1      28.298   1.529  53.350  1.00  0.00     0.093 C 
HETATM    3  C6  UNL     1      27.657   0.207  54.416  1.00  0.00     0.408 A 
HETATM    4  C7  UNL     1      28.800   0.365  54.635  1.00  0.00     0.340 A 
HETATM    5  N1  UNL     1      27.561   0.201  54.384  1.00  0.00     0.198 N 
HETATM    6  C8  UNL     1      26.516   0.382  53.551  1.00  0.00     0.437 A 
HETATM    7  C9  UNL     1      25.318  -0.094  53.891  1.00  0.00     0.296 A 
HETATM    8  N3  UNL     1      26.420  -0.113  54.453  1.00  0.00     0.228 N 
ENDROOT
BRANCH   1   9
HETATM    9  C3  UNL     1      26.339   2.380  52.039  1.00  0.00     0.007 C 
HETATM   10  C2  UNL     1      25.167   2.707  51.471  1.00  0.00    -0.003 C 
HETATM   11  C1  UNL     1      24.118   1.778  50.970  1.00  0.00     0.067 C 
BRANCH  10  12
HETATM   12  N4  UNL     1      24.973   4.101  51.355  1.00  0.00    -0.392 N 
HETATM   13  H14 UNL     1      24.697   4.244  52.367  1.00  0.00     0.159 HD
BRANCH  12  14
HETATM   14  C16 UNL     1      25.018   5.187  50.413  1.00  0.00     0.150 C 
BRANCH  14  15
HETATM   15  C17 UNL     1      25.988   4.970  49.281  1.00  0.00     0.290 C 
BRANCH  15  16
HETATM   16  N5  UNL     1      26.312   6.329  48.762  1.00  0.00     0.081 N 
HETATM   17  C18 UNL     1      27.680   6.424  48.375  1.00  0.00     0.309 C 
HETATM   18  C19 UNL     1      26.070   7.263  49.825  1.00  0.00     0.309 C 
ENDBRANCH  15  16
ENDBRANCH  14  15
ENDBRANCH  12  14
ENDBRANCH  10  12
ENDBRANCH   1   9
BRANCH   7  19
HETATM   19  N2  UNL     1      24.049  -0.577  54.190  1.00  0.00    -0.334 N 
HETATM   20  H9  UNL     1      24.178  -1.358  54.820  1.00  0.00     0.167 HD
BRANCH  19  21
HETATM   21  C10 UNL     1      22.731  -0.386  53.927  1.00  0.00     0.035 A 
HETATM   22  C11 UNL     1      22.008  -1.527  54.274  1.00  0.00     0.029 A 
HETATM   23  C12 UNL     1      20.691  -1.472  54.110  1.00  0.00     0.004 A 
HETATM   24  C13 UNL     1      19.907  -0.451  53.638  1.00  0.00     0.024 A 
HETATM   25  C14 UNL     1      20.693   0.665  53.314  1.00  0.00     0.036 A 
HETATM   26 CL1  UNL     1      20.175   2.216  52.673  1.00  0.00    -0.084 Cl
HETATM   27  C15 UNL     1      22.062   0.695  53.455  1.00  0.00     0.053 A 
ENDBRANCH  19  21
ENDBRANCH   7  19
TORSDOF 7
ENDMDL
MODEL 4
REMARK VINA RESULT:      -7.2      2.450      6.041
REMARK  7 active torsions:
REMARK  status: ('A' for Active; 'I' for Inactive)
REMARK    1  A    between atoms: C2_2  and  N4_20 
REMARK    2  A    between atoms: C3_3  and  C4_4 
REMARK    3  A    between atoms: C9_10  and  N2_11 
REMARK    4  A    between atoms: N2_11  and  C10_12 
REMARK    5  A    between atoms: N4_20  and  C16_21 
REMARK    6  A    between atoms: C16_21  and  C17_22 
REMARK    7  A    between atoms: C17_22  and  N5_23 
ROOT
HETATM    1  C4  UNL     1      25.113   0.582  53.420  1.00  0.00     0.094 C 
HETATM    2  C5  UNL     1      25.920  -0.852  53.325  1.00  0.00     0.093 C 
HETATM    3  C6  UNL     1      27.283   0.144  52.656  1.00  0.00     0.408 A 
HETATM    4  C7  UNL     1      27.712  -0.854  53.104  1.00  0.00     0.340 A 
HETATM    5  N1  UNL     1      27.233   0.227  52.626  1.00  0.00     0.198 N 
HETATM    6  C8  UNL     1      26.218   1.112  52.561  1.00  0.00     0.437 A 
HETATM    7  C9  UNL     1      26.341   2.193  51.790  1.00  0.00     0.296 A 
HETATM    8  N3  UNL     1      27.093   1.241  52.028  1.00  0.00     0.228 N 
ENDROOT
BRANCH   1   9
HETATM    9  C3  UNL     1      23.818   0.419  52.832  1.00  0.00     0.007 C 
HETATM   10  C2  UNL     1      22.656  -0.147  53.196  1.00  0.00    -0.003 C 
HETATM   11  C1  UNL     1      22.359  -0.857  54.470  1.00  0.00     0.067 C 
BRANCH  10  12
HETATM   12  N4  UNL     1      21.648  -0.033  52.214  1.00  0.00    -0.392 N 
HETATM   13  H14 UNL     1      22.225  -0.455  51.433  1.00  0.00     0.159 HD
BRANCH  12  14
HETATM   14  C16 UNL     1      20.302   0.430  52.005  1.00  0.00     0.150 C 
BRANCH  14  15
HETATM   15  C17 UNL     1      20.210   1.656  51.134  1.00  0.00     0.290 C 
BRANCH  15  16
HETATM   16  N5  UNL     1      19.867   2.779  52.052  1.00  0.00     0.081 N 
HETATM   17  C18 UNL     1      18.846   3.605  51.502  1.00  0.00     0.309 C 
HETATM   18  C19 UNL     1      21.054   3.568  52.226  1.00  0.00     0.309 C 
ENDBRANCH  15  16
ENDBRANCH  14  15
ENDBRANCH  12  14
ENDBRANCH  10  12
ENDBRANCH   1   9
BRANCH   7  19
HETATM   19  N2  UNL     1      26.418   3.342  51.012  1.00  0.00    -0.334 N 
HETATM   20  H9  UNL     1      27.333   3.743  51.177  1.00  0.00     0.167 HD
BRANCH  19  21
HETATM   21  C10 UNL     1      25.711   4.108  50.143  1.00  0.00     0.035 A 
HETATM   22  C11 UNL     1      24.440   3.565  49.957  1.00  0.00     0.029 A 
HETATM   23  C12 UNL     1      23.615   4.234  49.158  1.00  0.00     0.004 A 
HETATM   24  C13 UNL     1      23.818   5.399  48.464  1.00  0.00     0.024 A 
HETATM   25  C14 UNL     1      25.109   5.894  48.699  1.00  0.00     0.036 A 
HETATM   26 CL1  UNL     1      25.856   7.345  48.050  1.00  0.00    -0.084 Cl
HETATM   27  C15 UNL     1      26.026   5.268  49.512  1.00  0.00     0.053 A 
ENDBRANCH  19  21
ENDBRANCH   7  19
TORSDOF 7
ENDMDL
MODEL 5
REMARK VINA RESULT:      -7.1      2.862      5.794
REMARK  7 active torsions:
REMARK  status: ('A' for Active; 'I' for Inactive)
REMARK    1  A    between atoms: C2_2  and  N4_20 
REMARK    2  A    between atoms: C3_3  and  C4_4 
REMARK    3  A    between atoms: C9_10  and  N2_11 
REMARK    4  A    between atoms: N2_11  and  C10_12 
REMARK    5  A    between atoms: N4_20  and  C16_21 
REMARK    6  A    between atoms: C16_21  and  C17_22 
REMARK    7  A    between atoms: C17_22  and  N5_23 
ROOT
HETATM    1  C4  UNL     1      26.803   0.178  52.347  1.00  0.00     0.094 C 
HETATM    2  C5  UNL     1      27.973   0.872  53.279  1.00  0.00     0.093 C 
HETATM    3  C6  UNL     1      27.150   0.025  54.657  1.00  0.00     0.408 A 
HETATM    4  C7  UNL     1      28.265   0.255  54.950  1.00  0.00     0.340 A 
HETATM    5  N1  UNL     1      27.059   0.007  54.617  1.00  0.00     0.198 N 
HETATM    6  C8  UNL     1      26.132  -0.130  53.648  1.00  0.00     0.437 A 
HETATM    7  C9  UNL     1      24.882  -0.455  53.980  1.00  0.00     0.296 A 
HETATM    8  N3  UNL     1      25.905  -0.265  54.647  1.00  0.00     0.228 N 
ENDROOT
BRANCH   1   9
HETATM    9  C3  UNL     1      26.226   1.184  51.509  1.00  0.00     0.007 C 
HETATM   10  C2  UNL     1      25.527   2.316  51.699  1.00  0.00    -0.003 C 
HETATM   11  C1  UNL     1      25.103   2.907  52.998  1.00  0.00     0.067 C 
BRANCH  10  12
HETATM   12  N4  UNL     1      25.178   2.964  50.494  1.00  0.00    -0.392 N 
HETATM   13  H14 UNL     1      26.147   3.347  50.306  1.00  0.00     0.159 HD
BRANCH  12  14
HETATM   14  C16 UNL     1      24.070   3.222  49.614  1.00  0.00     0.150 C 
BRANCH  14  15
HETATM   15  C17 UNL     1      22.960   2.208  49.720  1.00  0.00     0.290 C 
BRANCH  15  16
HETATM   16  N5  UNL     1      22.171   2.341  48.464  1.00  0.00     0.081 N 
HETATM   17  C18 UNL     1      22.291   3.649  47.913  1.00  0.00     0.309 C 
HETATM   18  C19 UNL     1      20.793   2.107  48.796  1.00  0.00     0.309 C 
ENDBRANCH  15  16
ENDBRANCH  14  15
ENDBRANCH  12  14
ENDBRANCH  10  12
ENDBRANCH   1   9
BRANCH   7  19
HETATM   19  N2  UNL     1      23.566  -0.801  54.266  1.00  0.00    -0.334 N 
HETATM   20  H9  UNL     1      23.603  -1.482  55.014  1.00  0.00     0.167 HD
BRANCH  19  21
HETATM   21  C10 UNL     1      22.282  -0.567  53.894  1.00  0.00     0.035 A 
HETATM   22  C11 UNL     1      22.194   0.658  53.236  1.00  0.00     0.029 A 
HETATM   23  C12 UNL     1      20.996   1.005  52.775  1.00  0.00     0.004 A 
HETATM   24  C13 UNL     1      19.801   0.337  52.849  1.00  0.00     0.024 A 
HETATM   25  C14 UNL     1      19.960  -0.886  53.516  1.00  0.00     0.036 A 
HETATM   26 CL1  UNL     1      18.743  -2.103  53.870  1.00  0.00    -0.084 Cl
HETATM   27  C15 UNL     1      21.163  -1.324  54.022  1.00  0.00     0.053 A 
ENDBRANCH  19  21
ENDBRANCH   7  19
TORSDOF 7
ENDMDL
MODEL 6
REMARK VINA RESULT:      -7.1      3.088      5.912
REMARK  7 active torsions:
REMARK  status: ('A' for Active; 'I' for Inactive)
REMARK    1  A    between atoms: C2_2  and  N4_20 
REMARK    2  A    between atoms: C3_3  and  C4_4 
REMARK    3  A    between atoms: C9_10  and  N2_11 
REMARK    4  A    between atoms: N2_11  and  C10_12 
REMARK    5  A    between atoms: N4_20  and  C16_21 
REMARK    6  A    between atoms: C16_21  and  C17_22 
REMARK    7  A    between atoms: C17_22  and  N5_23 
ROOT
HETATM    1  C4  UNL     1      26.438   1.140  52.176  1.00  0.00     0.094 C 
HETATM    2  C5  UNL     1      27.736   1.430  53.150  1.00  0.00     0.093 C 
HETATM    3  C6  UNL     1      27.074   0.076  54.162  1.00  0.00     0.408 A 
HETATM    4  C7  UNL     1      28.223   0.198  54.377  1.00  0.00     0.340 A 
HETATM    5  N1  UNL     1      26.978   0.074  54.130  1.00  0.00     0.198 N 
HETATM    6  C8  UNL     1      25.931   0.315  53.317  1.00  0.00     0.437 A 
HETATM    7  C9  UNL     1      24.725  -0.149  53.647  1.00  0.00     0.296 A 
HETATM    8  N3  UNL     1      25.830  -0.218  54.196  1.00  0.00     0.228 N 
ENDROOT
BRANCH   1   9
HETATM    9  C3  UNL     1      25.786   2.384  51.899  1.00  0.00     0.007 C 
HETATM   10  C2  UNL     1      25.771   3.262  50.882  1.00  0.00    -0.003 C 
HETATM   11  C1  UNL     1      26.529   3.174  49.604  1.00  0.00     0.067 C 
BRANCH  10  12
HETATM   12  N4  UNL     1      24.933   4.374  51.118  1.00  0.00    -0.392 N 
HETATM   13  H14 UNL     1      24.851   4.214  52.161  1.00  0.00     0.159 HD
BRANCH  12  14
HETATM   14  C16 UNL     1      24.264   5.462  50.456  1.00  0.00     0.150 C 
BRANCH  14  15
HETATM   15  C17 UNL     1      24.867   6.812  50.744  1.00  0.00     0.290 C 
BRANCH  15  16
HETATM   16  N5  UNL     1      23.732   7.777  50.707  1.00  0.00     0.081 N 
HETATM   17  C18 UNL     1      22.478   7.102  50.714  1.00  0.00     0.309 C 
HETATM   18  C19 UNL     1      23.845   8.525  49.486  1.00  0.00     0.309 C 
ENDBRANCH  15  16
ENDBRANCH  14  15
ENDBRANCH  12  14
ENDBRANCH  10  12
ENDBRANCH   1   9
BRANCH   7  19
HETATM   19  N2  UNL     1      23.448  -0.616  53.936  1.00  0.00    -0.334 N 
HETATM   20  H9  UNL     1      23.559  -1.361  54.612  1.00  0.00     0.167 HD
BRANCH  19  21
HETATM   21  C10 UNL     1      22.138  -0.442  53.626  1.00  0.00     0.035 A 
HETATM   22  C11 UNL     1      21.972   0.744  52.913  1.00  0.00     0.029 A 
HETATM   23  C12 UNL     1      20.740   1.029  52.504  1.00  0.00     0.004 A 
HETATM   24  C13 UNL     1      19.574   0.328  52.678  1.00  0.00     0.024 A 
HETATM   25  C14 UNL     1      19.812  -0.854  53.394  1.00  0.00     0.036 A 
HETATM   26 CL1  UNL     1      18.658  -2.089  53.875  1.00  0.00    -0.084 Cl
HETATM   27  C15 UNL     1      21.054  -1.227  53.853  1.00  0.00     0.053 A 
ENDBRANCH  19  21
ENDBRANCH   7  19
TORSDOF 7
ENDMDL
MODEL 7
REMARK VINA RESULT:      -7.1      2.618      5.998
REMARK  7 active torsions:
REMARK  status: ('A' for Active; 'I' for Inactive)
REMARK    1  A    between atoms: C2_2  and  N4_20 
REMARK    2  A    between atoms: C3_3  and  C4_4 
REMARK    3  A    between atoms: C9_10  and  N2_11 
REMARK    4  A    between atoms: N2_11  and  C10_12 
REMARK    5  A    between atoms: N4_20  and  C16_21 
REMARK    6  A    between atoms: C16_21  and  C17_22 
REMARK    7  A    between atoms: C17_22  and  N5_23 
ROOT
HETATM    1  C4  UNL     1      24.770   2.170  52.867  1.00  0.00     0.094 C 
HETATM    2  C5  UNL     1      24.752   0.557  53.209  1.00  0.00     0.093 C 
HETATM    3  C6  UNL     1      26.287   0.500  52.243  1.00  0.00     0.408 A 
HETATM    4  C7  UNL     1      26.250  -0.421  52.972  1.00  0.00     0.340 A 
HETATM    5  N1  UNL     1      26.280   0.586  52.190  1.00  0.00     0.198 N 
HETATM    6  C8  UNL     1      25.826   1.814  51.869  1.00  0.00     0.437 A 
HETATM    7  C9  UNL     1      26.323   2.436  50.799  1.00  0.00     0.296 A 
HETATM    8  N3  UNL     1      26.548   1.332  51.309  1.00  0.00     0.228 N 
ENDROOT
BRANCH   1   9
HETATM    9  C3  UNL     1      23.479   2.550  52.379  1.00  0.00     0.007 C 
HETATM   10  C2  UNL     1      22.850   3.705  52.107  1.00  0.00    -0.003 C 
HETATM   11  C1  UNL     1      23.390   5.084  52.262  1.00  0.00     0.067 C 
BRANCH  10  12
HETATM   12  N4  UNL     1      21.531   3.525  51.635  1.00  0.00    -0.392 N 
HETATM   13  H14 UNL     1      21.366   4.548  51.419  1.00  0.00     0.159 HD
BRANCH  12  14
HETATM   14  C16 UNL     1      20.521   2.524  51.420  1.00  0.00     0.150 C 
BRANCH  14  15
HETATM   15  C17 UNL     1      20.007   1.896  52.690  1.00  0.00     0.290 C 
BRANCH  15  16
HETATM   16  N5  UNL     1      20.137   0.425  52.493  1.00  0.00     0.081 N 
HETATM   17  C18 UNL     1      18.872  -0.177  52.236  1.00  0.00     0.309 C 
HETATM   18  C19 UNL     1      20.670  -0.125  53.707  1.00  0.00     0.309 C 
ENDBRANCH  15  16
ENDBRANCH  14  15
ENDBRANCH  12  14
ENDBRANCH  10  12
ENDBRANCH   1   9
BRANCH   7  19
HETATM   19  N2  UNL     1      26.811   3.135  49.701  1.00  0.00    -0.334 N 
HETATM   20  H9  UNL     1      27.314   2.466  49.133  1.00  0.00     0.167 HD
BRANCH  19  21
HETATM   21  C10 UNL     1      26.865   4.372  49.145  1.00  0.00     0.035 A 
HETATM   22  C11 UNL     1      25.621   4.993  49.247  1.00  0.00     0.029 A 
HETATM   23  C12 UNL     1      25.532   6.233  48.778  1.00  0.00     0.004 A 
HETATM   24  C13 UNL     1      26.488   7.020  48.190  1.00  0.00     0.024 A 
HETATM   25  C14 UNL     1      27.713   6.340  48.124  1.00  0.00     0.036 A 
HETATM   26 CL1  UNL     1      29.241   6.904  47.465  1.00  0.00    -0.084 Cl
HETATM   27  C15 UNL     1      27.895   5.057  48.587  1.00  0.00     0.053 A 
ENDBRANCH  19  21
ENDBRANCH   7  19
TORSDOF 7
ENDMDL
MODEL 8
REMARK VINA RESULT:      -7.0      1.759      2.314
REMARK  7 active torsions:
REMARK  status: ('A' for Active; 'I' for Inactive)
REMARK    1  A    between atoms: C2_2  and  N4_20 
REMARK    2  A    between atoms: C3_3  and  C4_4 
REMARK    3  A    between atoms: C9_10  and  N2_11 
REMARK    4  A    between atoms: N2_11  and  C10_12 
REMARK    5  A    between atoms: N4_20  and  C16_21 
REMARK    6  A    between atoms: C16_21  and  C17_22 
REMARK    7  A    between atoms: C17_22  and  N5_23 
ROOT
HETATM    1  C4  UNL     1      23.199   2.439  52.997  1.00  0.00     0.094 C 
HETATM    2  C5  UNL     1      21.838   2.119  52.123  1.00  0.00     0.093 C 
HETATM    3  C6  UNL     1      22.249   0.377  52.426  1.00  0.00     0.408 A 
HETATM    4  C7  UNL     1      21.101   0.473  52.192  1.00  0.00     0.340 A 
HETATM    5  N1  UNL     1      22.347   0.384  52.449  1.00  0.00     0.198 N 
HETATM    6  C8  UNL     1      23.495   0.982  52.825  1.00  0.00     0.437 A 
HETATM    7  C9  UNL     1      24.606   0.254  52.939  1.00  0.00     0.296 A 
HETATM    8  N3  UNL     1      23.446  -0.028  52.617  1.00  0.00     0.228 N 
ENDROOT
BRANCH   1   9
HETATM    9  C3  UNL     1      23.998   3.382  52.274  1.00  0.00     0.007 C 
HETATM   10  C2  UNL     1      24.318   3.590  50.986  1.00  0.00    -0.003 C 
HETATM   11  C1  UNL     1      23.879   2.794  49.807  1.00  0.00     0.067 C 
BRANCH  10  12
HETATM   12  N4  UNL     1      25.177   4.695  50.797  1.00  0.00    -0.392 N 
HETATM   13  H14 UNL     1      25.863   4.415  51.553  1.00  0.00     0.159 HD
BRANCH  12  14
HETATM   14  C16 UNL     1      25.346   5.892  50.018  1.00  0.00     0.150 C 
BRANCH  14  15
HETATM   15  C17 UNL     1      26.460   5.807  49.006  1.00  0.00     0.290 C 
BRANCH  15  16
HETATM   16  N5  UNL     1      26.913   7.209  48.787  1.00  0.00     0.081 N 
HETATM   17  C18 UNL     1      26.526   8.053  49.866  1.00  0.00     0.309 C 
HETATM   18  C19 UNL     1      26.284   7.681  47.586  1.00  0.00     0.309 C 
ENDBRANCH  15  16
ENDBRANCH  14  15
ENDBRANCH  12  14
ENDBRANCH  10  12
ENDBRANCH   1   9
BRANCH   7  19
HETATM   19  N2  UNL     1      25.791  -0.458  53.084  1.00  0.00    -0.334 N 
HETATM   20  H9  UNL     1      25.562  -1.434  52.942  1.00  0.00     0.167 HD
BRANCH  19  21
HETATM   21  C10 UNL     1      27.112  -0.312  53.359  1.00  0.00     0.035 A 
HETATM   22  C11 UNL     1      27.797  -1.483  53.035  1.00  0.00     0.029 A 
HETATM   23  C12 UNL     1      29.114  -1.474  53.214  1.00  0.00     0.004 A 
HETATM   24  C13 UNL     1      29.929  -0.476  53.681  1.00  0.00     0.024 A 
HETATM   25  C14 UNL     1      29.181   0.672  53.981  1.00  0.00     0.036 A 
HETATM   26 CL1  UNL     1      29.749   2.212  54.607  1.00  0.00    -0.084 Cl
HETATM   27  C15 UNL     1      27.816   0.750  53.824  1.00  0.00     0.053 A 
ENDBRANCH  19  21
ENDBRANCH   7  19
TORSDOF 7
ENDMDL
MODEL 9
REMARK VINA RESULT:      -6.9      3.236      6.664
REMARK  7 active torsions:
REMARK  status: ('A' for Active; 'I' for Inactive)
REMARK    1  A    between atoms: C2_2  and  N4_20 
REMARK    2  A    between atoms: C3_3  and  C4_4 
REMARK    3  A    between atoms: C9_10  and  N2_11 
REMARK    4  A    between atoms: N2_11  and  C10_12 
REMARK    5  A    between atoms: N4_20  and  C16_21 
REMARK    6  A    between atoms: C16_21  and  C17_22 
REMARK    7  A    between atoms: C17_22  and  N5_23 
ROOT
HETATM    1  C4  UNL     1      22.865   4.938  52.572  1.00  0.00     0.094 C 
HETATM    2  C5  UNL     1      22.897   5.871  51.213  1.00  0.00     0.093 C 
HETATM    3  C6  UNL     1      21.170   5.348  51.010  1.00  0.00     0.408 A 
HETATM    4  C7  UNL     1      21.345   6.353  50.427  1.00  0.00     0.340 A 
HETATM    5  N1  UNL     1      21.168   5.265  51.068  1.00  0.00     0.198 N 
HETATM    6  C8  UNL     1      21.582   4.403  52.018  1.00  0.00     0.437 A 
HETATM    7  C9  UNL     1      20.866   3.305  52.262  1.00  0.00     0.296 A 
HETATM    8  N3  UNL     1      20.725   4.240  51.465  1.00  0.00     0.228 N 
ENDROOT
BRANCH   1   9
HETATM    9  C3  UNL     1      24.012   4.082  52.568  1.00  0.00     0.007 C 
HETATM   10  C2  UNL     1      24.570   3.217  51.705  1.00  0.00    -0.003 C 
HETATM   11  C1  UNL     1      24.084   2.862  50.344  1.00  0.00     0.067 C 
BRANCH  10  12
HETATM   12  N4  UNL     1      25.738   2.602  52.208  1.00  0.00    -0.392 N 
HETATM   13  H14 UNL     1      26.249   2.594  51.281  1.00  0.00     0.159 HD
BRANCH  12  14
HETATM   14  C16 UNL     1      26.320   2.063  53.407  1.00  0.00     0.150 C 
BRANCH  14  15
HETATM   15  C17 UNL     1      27.599   1.301  53.173  1.00  0.00     0.290 C 
BRANCH  15  16
HETATM   16  N5  UNL     1      27.524   0.105  54.058  1.00  0.00     0.081 N 
HETATM   17  C18 UNL     1      26.455   0.218  54.992  1.00  0.00     0.309 C 
HETATM   18  C19 UNL     1      28.761   0.029  54.782  1.00  0.00     0.309 C 
ENDBRANCH  15  16
ENDBRANCH  14  15
ENDBRANCH  12  14
ENDBRANCH  10  12
ENDBRANCH   1   9
BRANCH   7  19
HETATM   19  N2  UNL     1      20.154   2.149  52.565  1.00  0.00    -0.334 N 
HETATM   20  H9  UNL     1      19.182   2.350  52.369  1.00  0.00     0.167 HD
BRANCH  19  21
HETATM   21  C10 UNL     1      20.297   0.885  53.035  1.00  0.00     0.035 A 
HETATM   22  C11 UNL     1      21.597   0.697  53.505  1.00  0.00     0.029 A 
HETATM   23  C12 UNL     1      21.875  -0.489  54.036  1.00  0.00     0.004 A 
HETATM   24  C13 UNL     1      21.071  -1.588  54.197  1.00  0.00     0.024 A 
HETATM   25  C14 UNL     1      19.781  -1.331  53.712  1.00  0.00     0.036 A 
HETATM   26 CL1  UNL     1      18.391  -2.405  53.685  1.00  0.00    -0.084 Cl
HETATM   27  C15 UNL     1      19.407  -0.132  53.149  1.00  0.00     0.053 A 
ENDBRANCH  19  21
ENDBRANCH   7  19
TORSDOF 7
ENDMDL
