MODEL 1
REMARK VINA RESULT:      -9.6      0.000      0.000
REMARK  5 active torsions:
REMARK  status: ('A' for Active; 'I' for Inactive)
REMARK    1  A    between atoms: C6_7  and  C7_8 
REMARK    2  A    between atoms: C8_9  and  S1_10 
REMARK    3  A    between atoms: S1_10  and  C9_11 
REMARK    4  A    between atoms: C9_11  and  C10_12 
REMARK    5  A    between atoms: N1_18  and  O2_19 
ROOT
HETATM    1  C7  UNL     1      24.681   0.668  52.929  1.00  0.00     0.026 A 
HETATM    2  C8  UNL     1      24.343   1.887  52.430  1.00  0.00     0.112 A 
HETATM    3  N1  UNL     1      23.030   2.133  52.528  1.00  0.00    -0.217 N 
HETATM    4  C16 UNL     1      22.433   1.060  53.112  1.00  0.00     0.074 A 
HETATM    5  C17 UNL     1      21.102   0.806  53.455  1.00  0.00     0.033 A 
HETATM    6  C18 UNL     1      20.753  -0.372  54.062  1.00  0.00     0.002 A 
HETATM    7  C19 UNL     1      21.744  -1.282  54.321  1.00  0.00     0.001 A 
HETATM    8  C20 UNL     1      23.035  -0.981  53.962  1.00  0.00     0.015 A 
HETATM    9  C21 UNL     1      23.467   0.171  53.350  1.00  0.00     0.007 A 
ENDROOT
BRANCH   2  10
HETATM   10  S1  UNL     1      25.285   3.172  51.655  1.00  0.00    -0.104 SA
BRANCH  10  11
HETATM   11  C9  UNL     1      24.945   3.217  49.871  1.00  0.00     0.119 C 
BRANCH  11  12
HETATM   12  C10 UNL     1      25.680   4.392  49.313  1.00  0.00    -0.049 A 
HETATM   13  C11 UNL     1      27.039   4.152  49.084  1.00  0.00     0.008 A 
HETATM   14  C12 UNL     1      27.904   5.098  48.572  1.00  0.00     0.001 A 
HETATM   15  C13 UNL     1      27.379   6.340  48.277  1.00  0.00     0.000 A 
HETATM   16  C14 UNL     1      26.043   6.594  48.497  1.00  0.00     0.001 A 
HETATM   17  C15 UNL     1      25.187   5.642  49.008  1.00  0.00     0.008 A 
ENDBRANCH  11  12
ENDBRANCH  10  11
ENDBRANCH   2  10
BRANCH   1  18
HETATM   18  C6  UNL     1      25.989   0.083  53.058  1.00  0.00     0.024 A 
HETATM   19  C1  UNL     1      27.023   0.649  53.913  1.00  0.00     0.163 A 
HETATM   20  O1  UNL     1      26.952   1.690  54.592  1.00  0.00    -0.292 OA
HETATM   21  C2  UNL     1      28.392   0.165  54.210  1.00  0.00     0.111 A 
HETATM   22  C3  UNL     1      28.646  -1.120  53.502  1.00  0.00    -0.019 A 
HETATM   23  C4  UNL     1      27.720  -1.648  52.732  1.00  0.00    -0.003 A 
HETATM   24  C5  UNL     1      26.435  -1.030  52.537  1.00  0.00     0.016 A 
ENDBRANCH   1  18
BRANCH   3  25
HETATM   25  O2  UNL     1      22.257   3.232  52.153  1.00  0.00    -0.282 OA
HETATM   26  H13 UNL     1      21.279   3.251  52.430  1.00  0.00     0.245 HD
ENDBRANCH   3  25
TORSDOF 5
ENDMDL
MODEL 2
REMARK VINA RESULT:      -9.5      2.745      6.187
REMARK  5 active torsions:
REMARK  status: ('A' for Active; 'I' for Inactive)
REMARK    1  A    between atoms: C6_7  and  C7_8 
REMARK    2  A    between atoms: C8_9  and  S1_10 
REMARK    3  A    between atoms: S1_10  and  C9_11 
REMARK    4  A    between atoms: C9_11  and  C10_12 
REMARK    5  A    between atoms: N1_18  and  O2_19 
ROOT
HETATM    1  C7  UNL     1      25.042   1.317  52.750  1.00  0.00     0.026 A 
HETATM    2  C8  UNL     1      24.569   0.220  53.400  1.00  0.00     0.112 A 
HETATM    3  N1  UNL     1      25.487  -0.334  54.202  1.00  0.00    -0.217 N 
HETATM    4  C16 UNL     1      26.633   0.394  54.113  1.00  0.00     0.074 A 
HETATM    5  C17 UNL     1      27.873   0.260  54.742  1.00  0.00     0.033 A 
HETATM    6  C18 UNL     1      28.881   1.153  54.489  1.00  0.00     0.002 A 
HETATM    7  C19 UNL     1      28.633   2.173  53.609  1.00  0.00     0.001 A 
HETATM    8  C20 UNL     1      27.396   2.256  53.018  1.00  0.00     0.015 A 
HETATM    9  C21 UNL     1      26.336   1.404  53.215  1.00  0.00     0.007 A 
ENDROOT
BRANCH   2  10
HETATM   10  S1  UNL     1      23.011  -0.623  53.360  1.00  0.00    -0.104 SA
BRANCH  10  11
HETATM   11  C9  UNL     1      21.691   0.457  53.984  1.00  0.00     0.119 C 
BRANCH  11  12
HETATM   12  C10 UNL     1      21.045   1.093  52.796  1.00  0.00    -0.049 A 
HETATM   13  C11 UNL     1      21.098   0.311  51.637  1.00  0.00     0.008 A 
HETATM   14  C12 UNL     1      20.564   0.705  50.427  1.00  0.00     0.001 A 
HETATM   15  C13 UNL     1      19.947   1.939  50.381  1.00  0.00     0.000 A 
HETATM   16  C14 UNL     1      19.886   2.723  51.512  1.00  0.00     0.001 A 
HETATM   17  C15 UNL     1      20.423   2.320  52.716  1.00  0.00     0.008 A 
ENDBRANCH  11  12
ENDBRANCH  10  11
ENDBRANCH   2  10
BRANCH   1  18
HETATM   18  C6  UNL     1      24.339   2.206  51.864  1.00  0.00     0.024 A 
HETATM   19  C1  UNL     1      23.869   3.520  52.279  1.00  0.00     0.163 A 
HETATM   20  O1  UNL     1      23.959   4.029  53.412  1.00  0.00    -0.292 OA
HETATM   21  C2  UNL     1      23.182   4.582  51.505  1.00  0.00     0.111 A 
HETATM   22  C3  UNL     1      23.022   4.158  50.086  1.00  0.00    -0.019 A 
HETATM   23  C4  UNL     1      23.448   2.977  49.694  1.00  0.00    -0.003 A 
HETATM   24  C5  UNL     1      24.084   2.050  50.592  1.00  0.00     0.016 A 
ENDBRANCH   1  18
BRANCH   3  25
HETATM   25  O2  UNL     1      25.443  -1.448  55.041  1.00  0.00    -0.282 OA
HETATM   26  H13 UNL     1      24.699  -1.504  55.730  1.00  0.00     0.245 HD
ENDBRANCH   3  25
TORSDOF 5
ENDMDL
MODEL 3
REMARK VINA RESULT:      -9.3      2.208      5.860
REMARK  5 active torsions:
REMARK  status: ('A' for Active; 'I' for Inactive)
REMARK    1  A    between atoms: C6_7  and  C7_8 
REMARK    2  A    between atoms: C8_9  and  S1_10 
REMARK    3  A    between atoms: S1_10  and  C9_11 
REMARK    4  A    between atoms: C9_11  and  C10_12 
REMARK    5  A    between atoms: N1_18  and  O2_19 
ROOT
HETATM    1  C7  UNL     1      23.500   1.491  51.970  1.00  0.00     0.026 A 
HETATM    2  C8  UNL     1      24.654   2.173  52.198  1.00  0.00     0.112 A 
HETATM    3  N1  UNL     1      24.973   2.988  51.183  1.00  0.00    -0.217 N 
HETATM    4  C16 UNL     1      24.019   2.873  50.221  1.00  0.00     0.074 A 
HETATM    5  C17 UNL     1      23.865   3.501  48.982  1.00  0.00     0.033 A 
HETATM    6  C18 UNL     1      22.783   3.219  48.190  1.00  0.00     0.002 A 
HETATM    7  C19 UNL     1      21.867   2.310  48.650  1.00  0.00     0.001 A 
HETATM    8  C20 UNL     1      22.069   1.723  49.874  1.00  0.00     0.015 A 
HETATM    9  C21 UNL     1      23.123   1.948  50.727  1.00  0.00     0.007 A 
ENDROOT
BRANCH   2  10
HETATM   10  S1  UNL     1      25.813   2.163  53.537  1.00  0.00    -0.104 SA
BRANCH  10  11
HETATM   11  C9  UNL     1      27.503   1.940  52.910  1.00  0.00     0.119 C 
BRANCH  11  12
HETATM   12  C10 UNL     1      27.807   0.479  52.976  1.00  0.00    -0.049 A 
HETATM   13  C11 UNL     1      26.782  -0.336  52.482  1.00  0.00     0.008 A 
HETATM   14  C12 UNL     1      26.853  -1.713  52.448  1.00  0.00     0.001 A 
HETATM   15  C13 UNL     1      28.006  -2.298  52.932  1.00  0.00     0.000 A 
HETATM   16  C14 UNL     1      29.025  -1.512  53.423  1.00  0.00     0.001 A 
HETATM   17  C15 UNL     1      28.945  -0.136  53.452  1.00  0.00     0.008 A 
ENDBRANCH  11  12
ENDBRANCH  10  11
ENDBRANCH   2  10
BRANCH   1  18
HETATM   18  C6  UNL     1      22.809   0.583  52.846  1.00  0.00     0.024 A 
HETATM   19  C1  UNL     1      21.463   0.838  53.341  1.00  0.00     0.163 A 
HETATM   20  O1  UNL     1      20.762   1.845  53.130  1.00  0.00    -0.292 OA
HETATM   21  C2  UNL     1      20.583   0.007  54.197  1.00  0.00     0.111 A 
HETATM   22  C3  UNL     1      21.253  -1.282  54.523  1.00  0.00    -0.019 A 
HETATM   23  C4  UNL     1      22.465  -1.531  54.077  1.00  0.00    -0.003 A 
HETATM   24  C5  UNL     1      23.195  -0.595  53.263  1.00  0.00     0.016 A 
ENDBRANCH   1  18
BRANCH   3  25
HETATM   25  O2  UNL     1      26.047   3.858  50.988  1.00  0.00    -0.282 OA
HETATM   26  H13 UNL     1      26.647   4.068  51.781  1.00  0.00     0.245 HD
ENDBRANCH   3  25
TORSDOF 5
ENDMDL
MODEL 4
REMARK VINA RESULT:      -9.0      1.425      6.181
REMARK  5 active torsions:
REMARK  status: ('A' for Active; 'I' for Inactive)
REMARK    1  A    between atoms: C6_7  and  C7_8 
REMARK    2  A    between atoms: C8_9  and  S1_10 
REMARK    3  A    between atoms: S1_10  and  C9_11 
REMARK    4  A    between atoms: C9_11  and  C10_12 
REMARK    5  A    between atoms: N1_18  and  O2_19 
ROOT
HETATM    1  C7  UNL     1      25.500   3.018  51.348  1.00  0.00     0.026 A 
HETATM    2  C8  UNL     1      24.263   3.545  51.554  1.00  0.00     0.112 A 
HETATM    3  N1  UNL     1      24.029   4.615  50.784  1.00  0.00    -0.217 N 
HETATM    4  C16 UNL     1      25.129   4.843  50.017  1.00  0.00     0.074 A 
HETATM    5  C17 UNL     1      25.404   5.810  49.047  1.00  0.00     0.033 A 
HETATM    6  C18 UNL     1      26.607   5.815  48.392  1.00  0.00     0.002 A 
HETATM    7  C19 UNL     1      27.521   4.848  48.715  1.00  0.00     0.001 A 
HETATM    8  C20 UNL     1      27.199   3.922  49.677  1.00  0.00     0.015 A 
HETATM    9  C21 UNL     1      26.020   3.848  50.380  1.00  0.00     0.007 A 
ENDROOT
BRANCH   2  10
HETATM   10  S1  UNL     1      22.942   3.117  52.655  1.00  0.00    -0.104 SA
BRANCH  10  11
HETATM   11  C9  UNL     1      22.012   1.699  52.006  1.00  0.00     0.119 C 
BRANCH  11  12
HETATM   12  C10 UNL     1      22.017   0.647  53.067  1.00  0.00    -0.049 A 
HETATM   13  C11 UNL     1      23.283   0.109  53.325  1.00  0.00     0.008 A 
HETATM   14  C12 UNL     1      23.516  -0.873  54.266  1.00  0.00     0.001 A 
HETATM   15  C13 UNL     1      22.428  -1.334  54.980  1.00  0.00     0.000 A 
HETATM   16  C14 UNL     1      21.174  -0.817  54.739  1.00  0.00     0.001 A 
HETATM   17  C15 UNL     1      20.952   0.165  53.797  1.00  0.00     0.008 A 
ENDBRANCH  11  12
ENDBRANCH  10  11
ENDBRANCH   2  10
BRANCH   1  18
HETATM   18  C6  UNL     1      26.081   1.840  51.935  1.00  0.00     0.024 A 
HETATM   19  C1  UNL     1      26.454   1.764  53.340  1.00  0.00     0.163 A 
HETATM   20  O1  UNL     1      26.373   2.669  54.191  1.00  0.00    -0.292 OA
HETATM   21  C2  UNL     1      27.009   0.636  54.125  1.00  0.00     0.111 A 
HETATM   22  C3  UNL     1      27.140  -0.572  53.264  1.00  0.00    -0.019 A 
HETATM   23  C4  UNL     1      26.800  -0.522  51.994  1.00  0.00    -0.003 A 
HETATM   24  C5  UNL     1      26.290   0.675  51.380  1.00  0.00     0.016 A 
ENDBRANCH   1  18
BRANCH   3  25
HETATM   25  O2  UNL     1      22.920   5.454  50.664  1.00  0.00    -0.282 OA
HETATM   26  H13 UNL     1      22.807   6.203  51.342  1.00  0.00     0.245 HD
ENDBRANCH   3  25
TORSDOF 5
ENDMDL
MODEL 5
REMARK VINA RESULT:      -8.9      2.615      5.289
REMARK  5 active torsions:
REMARK  status: ('A' for Active; 'I' for Inactive)
REMARK    1  A    between atoms: C6_7  and  C7_8 
REMARK    2  A    between atoms: C8_9  and  S1_10 
REMARK    3  A    between atoms: S1_10  and  C9_11 
REMARK    4  A    between atoms: C9_11  and  C10_12 
REMARK    5  A    between atoms: N1_18  and  O2_19 
ROOT
HETATM    1  C7  UNL     1      24.419   1.842  51.774  1.00  0.00     0.026 A 
HETATM    2  C8  UNL     1      23.358   1.122  52.229  1.00  0.00     0.112 A 
HETATM    3  N1  UNL     1      23.735   0.044  52.928  1.00  0.00    -0.217 N 
HETATM    4  C16 UNL     1      25.094   0.007  52.965  1.00  0.00     0.074 A 
HETATM    5  C17 UNL     1      25.987  -0.885  53.566  1.00  0.00     0.033 A 
HETATM    6  C18 UNL     1      27.339  -0.686  53.470  1.00  0.00     0.002 A 
HETATM    7  C19 UNL     1      27.781   0.407  52.773  1.00  0.00     0.001 A 
HETATM    8  C20 UNL     1      26.861   1.251  52.202  1.00  0.00     0.015 A 
HETATM    9  C21 UNL     1      25.493   1.123  52.250  1.00  0.00     0.007 A 
ENDROOT
BRANCH   2  10
HETATM   10  S1  UNL     1      21.607   1.313  52.044  1.00  0.00    -0.104 SA
BRANCH  10  11
HETATM   11  C9  UNL     1      21.085   0.789  50.385  1.00  0.00     0.119 C 
BRANCH  11  12
HETATM   12  C10 UNL     1      21.310   1.946  49.467  1.00  0.00    -0.049 A 
HETATM   13  C11 UNL     1      21.995   1.613  48.293  1.00  0.00     0.008 A 
HETATM   14  C12 UNL     1      22.308   2.527  47.308  1.00  0.00     0.001 A 
HETATM   15  C13 UNL     1      21.913   3.834  47.512  1.00  0.00     0.000 A 
HETATM   16  C14 UNL     1      21.238   4.181  48.662  1.00  0.00     0.001 A 
HETATM   17  C15 UNL     1      20.930   3.260  49.640  1.00  0.00     0.008 A 
ENDBRANCH  11  12
ENDBRANCH  10  11
ENDBRANCH   2  10
BRANCH   1  18
HETATM   18  C6  UNL     1      24.413   3.084  51.050  1.00  0.00     0.024 A 
HETATM   19  C1  UNL     1      23.895   4.322  51.615  1.00  0.00     0.163 A 
HETATM   20  O1  UNL     1      23.366   4.477  52.731  1.00  0.00    -0.292 OA
HETATM   21  C2  UNL     1      23.854   5.691  51.049  1.00  0.00     0.111 A 
HETATM   22  C3  UNL     1      24.493   5.709  49.704  1.00  0.00    -0.019 A 
HETATM   23  C4  UNL     1      24.973   4.601  49.183  1.00  0.00    -0.003 A 
HETATM   24  C5  UNL     1      24.914   3.337  49.869  1.00  0.00     0.016 A 
ENDBRANCH   1  18
BRANCH   3  25
HETATM   25  O2  UNL     1      23.002  -0.957  53.567  1.00  0.00    -0.282 OA
HETATM   26  H13 UNL     1      23.489  -1.801  53.857  1.00  0.00     0.245 HD
ENDBRANCH   3  25
TORSDOF 5
ENDMDL
MODEL 6
REMARK VINA RESULT:      -8.9      1.672      4.511
REMARK  5 active torsions:
REMARK  status: ('A' for Active; 'I' for Inactive)
REMARK    1  A    between atoms: C6_7  and  C7_8 
REMARK    2  A    between atoms: C8_9  and  S1_10 
REMARK    3  A    between atoms: S1_10  and  C9_11 
REMARK    4  A    between atoms: C9_11  and  C10_12 
REMARK    5  A    between atoms: N1_18  and  O2_19 
ROOT
HETATM    1  C7  UNL     1      24.867   0.446  53.171  1.00  0.00     0.026 A 
HETATM    2  C8  UNL     1      25.383   1.705  53.179  1.00  0.00     0.112 A 
HETATM    3  N1  UNL     1      26.721   1.708  53.145  1.00  0.00    -0.217 N 
HETATM    4  C16 UNL     1      27.154   0.419  53.111  1.00  0.00     0.074 A 
HETATM    5  C17 UNL     1      28.438  -0.131  53.056  1.00  0.00     0.033 A 
HETATM    6  C18 UNL     1      28.610  -1.490  53.012  1.00  0.00     0.002 A 
HETATM    7  C19 UNL     1      27.493  -2.282  53.023  1.00  0.00     0.001 A 
HETATM    8  C20 UNL     1      26.256  -1.688  53.080  1.00  0.00     0.015 A 
HETATM    9  C21 UNL     1      25.997  -0.339  53.127  1.00  0.00     0.007 A 
ENDROOT
BRANCH   2  10
HETATM   10  S1  UNL     1      24.637   3.310  53.264  1.00  0.00    -0.104 SA
BRANCH  10  11
HETATM   11  C9  UNL     1      23.821   3.711  51.691  1.00  0.00     0.119 C 
BRANCH  11  12
HETATM   12  C10 UNL     1      24.895   4.085  50.722  1.00  0.00    -0.049 A 
HETATM   13  C11 UNL     1      24.903   5.443  50.382  1.00  0.00     0.008 A 
HETATM   14  C12 UNL     1      25.809   6.003  49.505  1.00  0.00     0.001 A 
HETATM   15  C13 UNL     1      26.749   5.161  48.946  1.00  0.00     0.000 A 
HETATM   16  C14 UNL     1      26.757   3.822  49.268  1.00  0.00     0.001 A 
HETATM   17  C15 UNL     1      25.847   3.272  50.147  1.00  0.00     0.008 A 
ENDBRANCH  11  12
ENDBRANCH  10  11
ENDBRANCH   2  10
BRANCH   1  18
HETATM   18  C6  UNL     1      23.486   0.044  53.134  1.00  0.00     0.024 A 
HETATM   19  C1  UNL     1      22.864  -0.734  54.197  1.00  0.00     0.163 A 
HETATM   20  O1  UNL     1      23.412  -1.183  55.221  1.00  0.00    -0.292 OA
HETATM   21  C2  UNL     1      21.463  -1.190  54.357  1.00  0.00     0.111 A 
HETATM   22  C3  UNL     1      20.632  -0.700  53.222  1.00  0.00    -0.019 A 
HETATM   23  C4  UNL     1      21.177   0.010  52.259  1.00  0.00    -0.003 A 
HETATM   24  C5  UNL     1      22.575   0.352  52.249  1.00  0.00     0.016 A 
ENDBRANCH   1  18
BRANCH   3  25
HETATM   25  O2  UNL     1      27.652   2.748  53.140  1.00  0.00    -0.282 OA
HETATM   26  H13 UNL     1      28.634   2.515  53.020  1.00  0.00     0.245 HD
ENDBRANCH   3  25
TORSDOF 5
ENDMDL
MODEL 7
REMARK VINA RESULT:      -8.8      2.797      4.913
REMARK  5 active torsions:
REMARK  status: ('A' for Active; 'I' for Inactive)
REMARK    1  A    between atoms: C6_7  and  C7_8 
REMARK    2  A    between atoms: C8_9  and  S1_10 
REMARK    3  A    between atoms: S1_10  and  C9_11 
REMARK    4  A    between atoms: C9_11  and  C10_12 
REMARK    5  A    between atoms: N1_18  and  O2_19 
ROOT
HETATM    1  C7  UNL     1      22.758   1.446  52.543  1.00  0.00     0.026 A 
HETATM    2  C8  UNL     1      21.423   1.244  52.707  1.00  0.00     0.112 A 
HETATM    3  N1  UNL     1      21.158   0.284  53.602  1.00  0.00    -0.217 N 
HETATM    4  C16 UNL     1      22.337  -0.199  54.078  1.00  0.00     0.074 A 
HETATM    5  C17 UNL     1      22.626  -1.185  55.026  1.00  0.00     0.033 A 
HETATM    6  C18 UNL     1      23.924  -1.480  55.348  1.00  0.00     0.002 A 
HETATM    7  C19 UNL     1      24.920  -0.782  54.718  1.00  0.00     0.001 A 
HETATM    8  C20 UNL     1      24.579   0.176  53.794  1.00  0.00     0.015 A 
HETATM    9  C21 UNL     1      23.307   0.530  53.413  1.00  0.00     0.007 A 
ENDROOT
BRANCH   2  10
HETATM   10  S1  UNL     1      19.995   1.969  51.949  1.00  0.00    -0.104 SA
BRANCH  10  11
HETATM   11  C9  UNL     1      19.689   1.215  50.325  1.00  0.00     0.119 C 
BRANCH  11  12
HETATM   12  C10 UNL     1      20.647   1.840  49.363  1.00  0.00    -0.049 A 
HETATM   13  C11 UNL     1      20.602   3.238  49.349  1.00  0.00     0.008 A 
HETATM   14  C12 UNL     1      21.401   4.018  48.537  1.00  0.00     0.001 A 
HETATM   15  C13 UNL     1      22.284   3.362  47.703  1.00  0.00     0.000 A 
HETATM   16  C14 UNL     1      22.342   1.985  47.704  1.00  0.00     0.001 A 
HETATM   17  C15 UNL     1      21.540   1.216  48.520  1.00  0.00     0.008 A 
ENDBRANCH  11  12
ENDBRANCH  10  11
ENDBRANCH   2  10
BRANCH   1  18
HETATM   18  C6  UNL     1      23.422   2.426  51.726  1.00  0.00     0.024 A 
HETATM   19  C1  UNL     1      23.245   3.859  51.916  1.00  0.00     0.163 A 
HETATM   20  O1  UNL     1      22.500   4.423  52.739  1.00  0.00    -0.292 OA
HETATM   21  C2  UNL     1      23.876   5.004  51.217  1.00  0.00     0.111 A 
HETATM   22  C3  UNL     1      24.850   4.512  50.204  1.00  0.00    -0.019 A 
HETATM   23  C4  UNL     1      25.027   3.221  50.026  1.00  0.00    -0.003 A 
HETATM   24  C5  UNL     1      24.309   2.232  50.786  1.00  0.00     0.016 A 
ENDBRANCH   1  18
BRANCH   3  25
HETATM   25  O2  UNL     1      19.956  -0.246  54.075  1.00  0.00    -0.282 OA
HETATM   26  H13 UNL     1      19.925  -0.595  55.028  1.00  0.00     0.245 HD
ENDBRANCH   3  25
TORSDOF 5
ENDMDL
MODEL 8
REMARK VINA RESULT:      -8.7      2.891      6.153
REMARK  5 active torsions:
REMARK  status: ('A' for Active; 'I' for Inactive)
REMARK    1  A    between atoms: C6_7  and  C7_8 
REMARK    2  A    between atoms: C8_9  and  S1_10 
REMARK    3  A    between atoms: S1_10  and  C9_11 
REMARK    4  A    between atoms: C9_11  and  C10_12 
REMARK    5  A    between atoms: N1_18  and  O2_19 
ROOT
HETATM    1  C7  UNL     1      23.509   1.329  52.138  1.00  0.00     0.026 A 
HETATM    2  C8  UNL     1      22.713   0.706  53.047  1.00  0.00     0.112 A 
HETATM    3  N1  UNL     1      23.387  -0.174  53.798  1.00  0.00    -0.217 N 
HETATM    4  C16 UNL     1      24.689  -0.167  53.406  1.00  0.00     0.074 A 
HETATM    5  C17 UNL     1      25.804  -0.876  53.863  1.00  0.00     0.033 A 
HETATM    6  C18 UNL     1      27.036  -0.671  53.301  1.00  0.00     0.002 A 
HETATM    7  C19 UNL     1      27.138   0.245  52.287  1.00  0.00     0.001 A 
HETATM    8  C20 UNL     1      26.010   0.913  51.877  1.00  0.00     0.015 A 
HETATM    9  C21 UNL     1      24.741   0.765  52.385  1.00  0.00     0.007 A 
ENDROOT
BRANCH   2  10
HETATM   10  S1  UNL     1      20.978   0.806  53.395  1.00  0.00    -0.104 SA
BRANCH  10  11
HETATM   11  C9  UNL     1      20.014   0.178  51.989  1.00  0.00     0.119 C 
BRANCH  11  12
HETATM   12  C10 UNL     1      19.645   1.357  51.148  1.00  0.00    -0.049 A 
HETATM   13  C11 UNL     1      19.573   2.559  51.860  1.00  0.00     0.008 A 
HETATM   14  C12 UNL     1      19.249   3.769  51.280  1.00  0.00     0.001 A 
HETATM   15  C13 UNL     1      18.989   3.771  49.925  1.00  0.00     0.000 A 
HETATM   16  C14 UNL     1      19.055   2.596  49.208  1.00  0.00     0.001 A 
HETATM   17  C15 UNL     1      19.379   1.392  49.796  1.00  0.00     0.008 A 
ENDBRANCH  11  12
ENDBRANCH  10  11
ENDBRANCH   2  10
BRANCH   1  18
HETATM   18  C6  UNL     1      23.164   2.373  51.210  1.00  0.00     0.024 A 
HETATM   19  C1  UNL     1      23.066   3.772  51.601  1.00  0.00     0.163 A 
HETATM   20  O1  UNL     1      23.215   4.247  52.743  1.00  0.00    -0.292 OA
HETATM   21  C2  UNL     1      22.778   4.977  50.788  1.00  0.00     0.111 A 
HETATM   22  C3  UNL     1      22.608   4.601  49.356  1.00  0.00    -0.019 A 
HETATM   23  C4  UNL     1      22.702   3.342  48.987  1.00  0.00    -0.003 A 
HETATM   24  C5  UNL     1      22.971   2.281  49.921  1.00  0.00     0.016 A 
ENDBRANCH   1  18
BRANCH   3  25
HETATM   25  O2  UNL     1      22.983  -1.021  54.832  1.00  0.00    -0.282 OA
HETATM   26  H13 UNL     1      22.142  -0.783  55.349  1.00  0.00     0.245 HD
ENDBRANCH   3  25
TORSDOF 5
ENDMDL
MODEL 9
REMARK VINA RESULT:      -8.6      1.855      5.601
REMARK  5 active torsions:
REMARK  status: ('A' for Active; 'I' for Inactive)
REMARK    1  A    between atoms: C6_7  and  C7_8 
REMARK    2  A    between atoms: C8_9  and  S1_10 
REMARK    3  A    between atoms: S1_10  and  C9_11 
REMARK    4  A    between atoms: C9_11  and  C10_12 
REMARK    5  A    between atoms: N1_18  and  O2_19 
ROOT
HETATM    1  C7  UNL     1      25.538   2.133  51.771  1.00  0.00     0.026 A 
HETATM    2  C8  UNL     1      24.219   2.292  52.066  1.00  0.00     0.112 A 
HETATM    3  N1  UNL     1      23.657   3.288  51.369  1.00  0.00    -0.217 N 
HETATM    4  C16 UNL     1      24.605   3.840  50.565  1.00  0.00     0.074 A 
HETATM    5  C17 UNL     1      24.548   4.885  49.639  1.00  0.00     0.033 A 
HETATM    6  C18 UNL     1      25.662   5.247  48.929  1.00  0.00     0.002 A 
HETATM    7  C19 UNL     1      26.823   4.555  49.154  1.00  0.00     0.001 A 
HETATM    8  C20 UNL     1      26.823   3.537  50.076  1.00  0.00     0.015 A 
HETATM    9  C21 UNL     1      25.753   3.114  50.829  1.00  0.00     0.007 A 
ENDROOT
BRANCH   2  10
HETATM   10  S1  UNL     1      23.134   1.474  53.202  1.00  0.00    -0.104 SA
BRANCH  10  11
HETATM   11  C9  UNL     1      22.510  -0.071  52.479  1.00  0.00     0.119 C 
BRANCH  11  12
HETATM   12  C10 UNL     1      21.373   0.292  51.580  1.00  0.00    -0.049 A 
HETATM   13  C11 UNL     1      20.114   0.155  52.176  1.00  0.00     0.008 A 
HETATM   14  C12 UNL     1      18.929   0.436  51.527  1.00  0.00     0.001 A 
HETATM   15  C13 UNL     1      19.014   0.877  50.221  1.00  0.00     0.000 A 
HETATM   16  C14 UNL     1      20.244   1.018  49.618  1.00  0.00     0.001 A 
HETATM   17  C15 UNL     1      21.423   0.734  50.276  1.00  0.00     0.008 A 
ENDBRANCH  11  12
ENDBRANCH  10  11
ENDBRANCH   2  10
BRANCH   1  18
HETATM   18  C6  UNL     1      26.452   1.137  52.263  1.00  0.00     0.024 A 
HETATM   19  C1  UNL     1      27.484   1.433  53.247  1.00  0.00     0.163 A 
HETATM   20  O1  UNL     1      27.747   2.541  53.752  1.00  0.00    -0.292 OA
HETATM   21  C2  UNL     1      28.469   0.540  53.902  1.00  0.00     0.111 A 
HETATM   22  C3  UNL     1      28.274  -0.863  53.441  1.00  0.00    -0.019 A 
HETATM   23  C4  UNL     1      27.341  -1.148  52.559  1.00  0.00    -0.003 A 
HETATM   24  C5  UNL     1      26.472  -0.144  52.004  1.00  0.00     0.016 A 
ENDBRANCH   1  18
BRANCH   3  25
HETATM   25  O2  UNL     1      22.357   3.795  51.349  1.00  0.00    -0.282 OA
HETATM   26  H13 UNL     1      22.103   4.496  52.039  1.00  0.00     0.245 HD
ENDBRANCH   3  25
TORSDOF 5
ENDMDL
