MODEL 1
REMARK VINA RESULT:      -7.6      0.000      0.000
REMARK  9 active torsions:
REMARK  status: ('A' for Active; 'I' for Inactive)
REMARK    1  A    between atoms: O1_2  and  C2_3 
REMARK    2  A    between atoms: C5_6  and  C6_7 
REMARK       I    between atoms: C6_7  and  N1_9 
REMARK    3  A    between atoms: N1_9  and  C7_10 
REMARK    4  A    between atoms: C7_10  and  C8_11 
REMARK    5  A    between atoms: C8_11  and  O3_12 
REMARK    6  A    between atoms: C8_11  and  C9_13 
REMARK    7  A    between atoms: C9_13  and  O4_14 
REMARK    8  A    between atoms: O4_14  and  C10_15 
REMARK    9  A    between atoms: C11_16  and  C12_17 
ROOT
HETATM    1  C8  UNL     1      27.876  -0.067  54.713  1.00  0.00     0.160 C 
ENDROOT
BRANCH   1   2
HETATM    2  C7  UNL     1      28.056  -0.341  53.262  1.00  0.00     0.156 C 
BRANCH   2   3
HETATM    3  N1  UNL     1      27.232   0.531  52.476  1.00  0.00    -0.354 N 
HETATM    4  C6  UNL     1      27.280   1.891  52.096  1.00  0.00     0.251 C 
HETATM    5  O2  UNL     1      28.283   2.518  52.553  1.00  0.00    -0.268 OA
HETATM    6  H6  UNL     1      26.360   0.082  52.057  1.00  0.00     0.162 HD
BRANCH   4   7
HETATM    7  C5  UNL     1      26.305   2.576  51.260  1.00  0.00     0.033 A 
HETATM    8  C4  UNL     1      26.591   3.395  50.190  1.00  0.00     0.020 A 
HETATM    9  C3  UNL     1      25.732   4.067  49.365  1.00  0.00     0.039 A 
HETATM   10  C2  UNL     1      24.338   4.098  49.392  1.00  0.00     0.080 A 
HETATM   11  P1  UNL     1      23.684   3.115  50.692  1.00  0.00     0.005 P 
HETATM   12  C18 UNL     1      24.959   2.365  51.598  1.00  0.00     0.035 A 
BRANCH  10  13
HETATM   13  O1  UNL     1      23.571   4.824  48.492  1.00  0.00    -0.355 OA
HETATM   14  C1  UNL     1      22.427   4.204  47.895  1.00  0.00     0.210 C 
ENDBRANCH  10  13
ENDBRANCH   4   7
ENDBRANCH   2   3
ENDBRANCH   1   2
BRANCH   1  15
HETATM   15  O3  UNL     1      28.661   0.953  55.159  1.00  0.00    -0.392 OA
HETATM   16  H10 UNL     1      29.548   0.881  54.728  1.00  0.00     0.210 HD
ENDBRANCH   1  15
BRANCH   1  17
HETATM   17  C9  UNL     1      26.431   0.233  55.078  1.00  0.00     0.207 C 
BRANCH  17  18
HETATM   18  O4  UNL     1      25.580  -0.845  54.825  1.00  0.00    -0.360 OA
BRANCH  18  19
HETATM   19  C10 UNL     1      24.365  -0.615  54.194  1.00  0.00     0.135 C 
HETATM   20  C11 UNL     1      23.137  -1.027  54.466  1.00  0.00     0.035 C 
BRANCH  20  21
HETATM   21  C12 UNL     1      21.973  -0.669  53.665  1.00  0.00    -0.034 A 
HETATM   22  C13 UNL     1      22.229  -0.092  52.438  1.00  0.00     0.013 A 
HETATM   23  C14 UNL     1      21.127   0.247  51.680  1.00  0.00     0.024 A 
HETATM   24  C15 UNL     1      19.844   0.009  52.151  1.00  0.00     0.034 A 
HETATM   25 CL1  UNL     1      18.410   0.417  51.234  1.00  0.00    -0.084 Cl
HETATM   26  C16 UNL     1      19.661  -0.574  53.395  1.00  0.00     0.024 A 
HETATM   27  C17 UNL     1      20.733  -0.937  54.204  1.00  0.00     0.013 A 
ENDBRANCH  20  21
ENDBRANCH  18  19
ENDBRANCH  17  18
ENDBRANCH   1  17
TORSDOF 9
ENDMDL
MODEL 2
REMARK VINA RESULT:      -7.6      2.636      5.433
REMARK  9 active torsions:
REMARK  status: ('A' for Active; 'I' for Inactive)
REMARK    1  A    between atoms: O1_2  and  C2_3 
REMARK    2  A    between atoms: C5_6  and  C6_7 
REMARK       I    between atoms: C6_7  and  N1_9 
REMARK    3  A    between atoms: N1_9  and  C7_10 
REMARK    4  A    between atoms: C7_10  and  C8_11 
REMARK    5  A    between atoms: C8_11  and  O3_12 
REMARK    6  A    between atoms: C8_11  and  C9_13 
REMARK    7  A    between atoms: C9_13  and  O4_14 
REMARK    8  A    between atoms: O4_14  and  C10_15 
REMARK    9  A    between atoms: C11_16  and  C12_17 
ROOT
HETATM    1  C8  UNL     1      29.033   1.299  54.202  1.00  0.00     0.160 C 
ENDROOT
BRANCH   1   2
HETATM    2  C7  UNL     1      28.266   0.225  54.888  1.00  0.00     0.156 C 
BRANCH   2   3
HETATM    3  N1  UNL     1      26.872   0.313  54.566  1.00  0.00    -0.354 N 
HETATM    4  C6  UNL     1      25.943  -0.504  53.882  1.00  0.00     0.251 C 
HETATM    5  O2  UNL     1      26.438  -1.579  53.428  1.00  0.00    -0.268 OA
HETATM    6  H6  UNL     1      26.378   1.194  54.907  1.00  0.00     0.162 HD
BRANCH   4   7
HETATM    7  C5  UNL     1      24.533  -0.202  53.680  1.00  0.00     0.033 A 
HETATM    8  C4  UNL     1      24.022   0.702  52.773  1.00  0.00     0.020 A 
HETATM    9  C3  UNL     1      22.717   1.033  52.531  1.00  0.00     0.039 A 
HETATM   10  C2  UNL     1      21.562   0.543  53.137  1.00  0.00     0.080 A 
HETATM   11  P1  UNL     1      21.925  -0.658  54.367  1.00  0.00     0.005 P 
HETATM   12  C18 UNL     1      23.636  -0.910  54.494  1.00  0.00     0.035 A 
BRANCH  10  13
HETATM   13  O1  UNL     1      20.283   0.962  52.800  1.00  0.00    -0.355 OA
HETATM   14  C1  UNL     1      20.078   2.326  52.415  1.00  0.00     0.210 C 
ENDBRANCH  10  13
ENDBRANCH   4   7
ENDBRANCH   2   3
ENDBRANCH   1   2
BRANCH   1  15
HETATM   15  O3  UNL     1      29.937   0.813  53.307  1.00  0.00    -0.392 OA
HETATM   16  H10 UNL     1      30.813   0.730  53.756  1.00  0.00     0.210 HD
ENDBRANCH   1  15
BRANCH   1  17
HETATM   17  C9  UNL     1      28.134   2.300  53.495  1.00  0.00     0.207 C 
BRANCH  17  18
HETATM   18  O4  UNL     1      27.732   1.861  52.232  1.00  0.00    -0.360 OA
BRANCH  18  19
HETATM   19  C10 UNL     1      26.760   2.574  51.543  1.00  0.00     0.135 C 
HETATM   20  C11 UNL     1      26.664   2.936  50.274  1.00  0.00     0.035 C 
BRANCH  20  21
HETATM   21  C12 UNL     1      25.543   3.698  49.738  1.00  0.00    -0.034 A 
HETATM   22  C13 UNL     1      24.310   3.081  49.776  1.00  0.00     0.013 A 
HETATM   23  C14 UNL     1      23.249   3.802  49.268  1.00  0.00     0.024 A 
HETATM   24  C15 UNL     1      23.441   5.077  48.755  1.00  0.00     0.034 A 
HETATM   25 CL1  UNL     1      22.134   6.038  48.098  1.00  0.00    -0.084 Cl
HETATM   26  C16 UNL     1      24.710   5.635  48.748  1.00  0.00     0.024 A 
HETATM   27  C17 UNL     1      25.816   4.957  49.246  1.00  0.00     0.013 A 
ENDBRANCH  20  21
ENDBRANCH  18  19
ENDBRANCH  17  18
ENDBRANCH   1  17
TORSDOF 9
ENDMDL
MODEL 3
REMARK VINA RESULT:      -7.1      3.601      7.363
REMARK  9 active torsions:
REMARK  status: ('A' for Active; 'I' for Inactive)
REMARK    1  A    between atoms: O1_2  and  C2_3 
REMARK    2  A    between atoms: C5_6  and  C6_7 
REMARK       I    between atoms: C6_7  and  N1_9 
REMARK    3  A    between atoms: N1_9  and  C7_10 
REMARK    4  A    between atoms: C7_10  and  C8_11 
REMARK    5  A    between atoms: C8_11  and  O3_12 
REMARK    6  A    between atoms: C8_11  and  C9_13 
REMARK    7  A    between atoms: C9_13  and  O4_14 
REMARK    8  A    between atoms: O4_14  and  C10_15 
REMARK    9  A    between atoms: C11_16  and  C12_17 
ROOT
HETATM    1  C8  UNL     1      19.751   2.223  51.361  1.00  0.00     0.160 C 
ENDROOT
BRANCH   1   2
HETATM    2  C7  UNL     1      20.515   0.981  51.070  1.00  0.00     0.156 C 
BRANCH   2   3
HETATM    3  N1  UNL     1      21.839   1.061  51.617  1.00  0.00    -0.354 N 
HETATM    4  C6  UNL     1      22.433   0.761  52.863  1.00  0.00     0.251 C 
HETATM    5  O2  UNL     1      21.620   0.317  53.729  1.00  0.00    -0.268 OA
HETATM    6  H6  UNL     1      22.586   1.432  50.953  1.00  0.00     0.162 HD
BRANCH   4   7
HETATM    7  C5  UNL     1      23.842   0.922  53.195  1.00  0.00     0.033 A 
HETATM    8  C4  UNL     1      24.579   2.078  53.053  1.00  0.00     0.020 A 
HETATM    9  C3  UNL     1      25.897   2.300  53.342  1.00  0.00     0.039 A 
HETATM   10  C2  UNL     1      26.842   1.413  53.857  1.00  0.00     0.080 A 
HETATM   11  P1  UNL     1      26.159  -0.181  54.141  1.00  0.00     0.005 P 
HETATM   12  C18 UNL     1      24.482  -0.219  53.701  1.00  0.00     0.035 A 
BRANCH  10  13
HETATM   13  O1  UNL     1      28.160   1.761  54.109  1.00  0.00    -0.355 OA
HETATM   14  C1  UNL     1      29.197   0.817  53.816  1.00  0.00     0.210 C 
ENDBRANCH  10  13
ENDBRANCH   4   7
ENDBRANCH   2   3
ENDBRANCH   1   2
BRANCH   1  15
HETATM   15  O3  UNL     1      19.671   2.495  52.693  1.00  0.00    -0.392 OA
HETATM   16  H10 UNL     1      18.846   3.010  52.862  1.00  0.00     0.210 HD
ENDBRANCH   1  15
BRANCH   1  17
HETATM   17  C9  UNL     1      20.315   3.440  50.647  1.00  0.00     0.207 C 
BRANCH  17  18
HETATM   18  O4  UNL     1      21.241   4.137  51.426  1.00  0.00    -0.360 OA
BRANCH  18  19
HETATM   19  C10 UNL     1      22.509   4.380  50.917  1.00  0.00     0.135 C 
HETATM   20  C11 UNL     1      23.170   3.846  49.903  1.00  0.00     0.035 C 
BRANCH  20  21
HETATM   21  C12 UNL     1      24.520   4.245  49.523  1.00  0.00    -0.034 A 
HETATM   22  C13 UNL     1      24.663   5.524  49.028  1.00  0.00     0.013 A 
HETATM   23  C14 UNL     1      25.941   5.902  48.669  1.00  0.00     0.024 A 
HETATM   24  C15 UNL     1      27.004   5.022  48.808  1.00  0.00     0.034 A 
HETATM   25 CL1  UNL     1      28.644   5.445  48.369  1.00  0.00    -0.084 Cl
HETATM   26  C16 UNL     1      26.786   3.749  49.312  1.00  0.00     0.024 A 
HETATM   27  C17 UNL     1      25.521   3.313  49.691  1.00  0.00     0.013 A 
ENDBRANCH  20  21
ENDBRANCH  18  19
ENDBRANCH  17  18
ENDBRANCH   1  17
TORSDOF 9
ENDMDL
MODEL 4
REMARK VINA RESULT:      -7.0      4.730      9.095
REMARK  9 active torsions:
REMARK  status: ('A' for Active; 'I' for Inactive)
REMARK    1  A    between atoms: O1_2  and  C2_3 
REMARK    2  A    between atoms: C5_6  and  C6_7 
REMARK       I    between atoms: C6_7  and  N1_9 
REMARK    3  A    between atoms: N1_9  and  C7_10 
REMARK    4  A    between atoms: C7_10  and  C8_11 
REMARK    5  A    between atoms: C8_11  and  O3_12 
REMARK    6  A    between atoms: C8_11  and  C9_13 
REMARK    7  A    between atoms: C9_13  and  O4_14 
REMARK    8  A    between atoms: O4_14  and  C10_15 
REMARK    9  A    between atoms: C11_16  and  C12_17 
ROOT
HETATM    1  C8  UNL     1      23.777   5.842  51.543  1.00  0.00     0.160 C 
ENDROOT
BRANCH   1   2
HETATM    2  C7  UNL     1      23.304   4.912  52.602  1.00  0.00     0.156 C 
BRANCH   2   3
HETATM    3  N1  UNL     1      24.224   3.824  52.769  1.00  0.00    -0.354 N 
HETATM    4  C6  UNL     1      24.113   2.421  52.889  1.00  0.00     0.251 C 
HETATM    5  O2  UNL     1      22.919   1.993  52.848  1.00  0.00    -0.268 OA
HETATM    6  H6  UNL     1      25.253   4.099  52.819  1.00  0.00     0.162 HD
BRANCH   4   7
HETATM    7  C5  UNL     1      25.221   1.490  53.048  1.00  0.00     0.033 A 
HETATM    8  C4  UNL     1      25.157   0.122  52.891  1.00  0.00     0.020 A 
HETATM    9  C3  UNL     1      26.151  -0.807  53.023  1.00  0.00     0.039 A 
HETATM   10  C2  UNL     1      27.492  -0.614  53.352  1.00  0.00     0.080 A 
HETATM   11  P1  UNL     1      27.866   1.082  53.615  1.00  0.00     0.005 P 
HETATM   12  C18 UNL     1      26.454   2.065  53.392  1.00  0.00     0.035 A 
BRANCH  10  13
HETATM   13  O1  UNL     1      28.411  -1.647  53.456  1.00  0.00    -0.355 OA
HETATM   14  C1  UNL     1      29.799  -1.331  53.619  1.00  0.00     0.210 C 
ENDBRANCH  10  13
ENDBRANCH   4   7
ENDBRANCH   2   3
ENDBRANCH   1   2
BRANCH   1  15
HETATM   15  O3  UNL     1      24.498   6.886  52.040  1.00  0.00    -0.392 OA
HETATM   16  H10 UNL     1      24.963   6.587  52.859  1.00  0.00     0.210 HD
ENDBRANCH   1  15
BRANCH   1  17
HETATM   17  C9  UNL     1      24.601   5.143  50.474  1.00  0.00     0.207 C 
BRANCH  17  18
HETATM   18  O4  UNL     1      24.657   5.867  49.281  1.00  0.00    -0.360 OA
BRANCH  18  19
HETATM   19  C10 UNL     1      25.893   6.233  48.767  1.00  0.00     0.135 C 
HETATM   20  C11 UNL     1      27.043   5.582  48.686  1.00  0.00     0.035 C 
BRANCH  20  21
HETATM   21  C12 UNL     1      28.249   6.151  48.100  1.00  0.00    -0.034 A 
HETATM   22  C13 UNL     1      29.411   5.427  48.267  1.00  0.00     0.013 A 
HETATM   23  C14 UNL     1      30.554   5.966  47.711  1.00  0.00     0.024 A 
HETATM   24  C15 UNL     1      30.507   7.173  47.028  1.00  0.00     0.034 A 
HETATM   25 CL1  UNL     1      31.922   7.904  46.304  1.00  0.00    -0.084 Cl
HETATM   26  C16 UNL     1      29.303   7.848  46.900  1.00  0.00     0.024 A 
HETATM   27  C17 UNL     1      28.120   7.354  47.438  1.00  0.00     0.013 A 
ENDBRANCH  20  21
ENDBRANCH  18  19
ENDBRANCH  17  18
ENDBRANCH   1  17
TORSDOF 9
ENDMDL
MODEL 5
REMARK VINA RESULT:      -6.9      4.106      8.471
REMARK  9 active torsions:
REMARK  status: ('A' for Active; 'I' for Inactive)
REMARK    1  A    between atoms: O1_2  and  C2_3 
REMARK    2  A    between atoms: C5_6  and  C6_7 
REMARK       I    between atoms: C6_7  and  N1_9 
REMARK    3  A    between atoms: N1_9  and  C7_10 
REMARK    4  A    between atoms: C7_10  and  C8_11 
REMARK    5  A    between atoms: C8_11  and  O3_12 
REMARK    6  A    between atoms: C8_11  and  C9_13 
REMARK    7  A    between atoms: C9_13  and  O4_14 
REMARK    8  A    between atoms: O4_14  and  C10_15 
REMARK    9  A    between atoms: C11_16  and  C12_17 
ROOT
HETATM    1  C8  UNL     1      21.481   5.248  51.248  1.00  0.00     0.160 C 
ENDROOT
BRANCH   1   2
HETATM    2  C7  UNL     1      21.072   3.946  51.838  1.00  0.00     0.156 C 
BRANCH   2   3
HETATM    3  N1  UNL     1      22.213   3.233  52.335  1.00  0.00    -0.354 N 
HETATM    4  C6  UNL     1      22.622   1.882  52.364  1.00  0.00     0.251 C 
HETATM    5  O2  UNL     1      21.795   1.081  51.831  1.00  0.00    -0.268 OA
HETATM    6  H6  UNL     1      22.958   3.835  52.806  1.00  0.00     0.162 HD
BRANCH   4   7
HETATM    7  C5  UNL     1      23.865   1.381  52.935  1.00  0.00     0.033 A 
HETATM    8  C4  UNL     1      24.053   0.135  53.494  1.00  0.00     0.020 A 
HETATM    9  C3  UNL     1      25.185  -0.399  54.045  1.00  0.00     0.039 A 
HETATM   10  C2  UNL     1      26.446   0.178  54.185  1.00  0.00     0.080 A 
HETATM   11  P1  UNL     1      26.497   1.811  53.540  1.00  0.00     0.005 P 
HETATM   12  C18 UNL     1      24.952   2.267  52.898  1.00  0.00     0.035 A 
BRANCH  10  13
HETATM   13  O1  UNL     1      27.525  -0.472  54.767  1.00  0.00    -0.355 OA
HETATM   14  C1  UNL     1      28.823   0.129  54.692  1.00  0.00     0.210 C 
ENDBRANCH  10  13
ENDBRANCH   4   7
ENDBRANCH   2   3
ENDBRANCH   1   2
BRANCH   1  15
HETATM   15  O3  UNL     1      22.360   5.931  52.034  1.00  0.00    -0.392 OA
HETATM   16  H10 UNL     1      22.344   5.538  52.940  1.00  0.00     0.210 HD
ENDBRANCH   1  15
BRANCH   1  17
HETATM   17  C9  UNL     1      22.080   5.100  49.859  1.00  0.00     0.207 C 
BRANCH  17  18
HETATM   18  O4  UNL     1      23.281   4.387  49.867  1.00  0.00    -0.360 OA
BRANCH  18  19
HETATM   19  C10 UNL     1      24.441   5.009  49.426  1.00  0.00     0.135 C 
HETATM   20  C11 UNL     1      25.671   4.555  49.241  1.00  0.00     0.035 C 
BRANCH  20  21
HETATM   21  C12 UNL     1      26.771   5.384  48.764  1.00  0.00    -0.034 A 
HETATM   22  C13 UNL     1      26.475   6.708  48.516  1.00  0.00     0.013 A 
HETATM   23  C14 UNL     1      27.517   7.493  48.064  1.00  0.00     0.024 A 
HETATM   24  C15 UNL     1      28.781   6.952  47.878  1.00  0.00     0.034 A 
HETATM   25 CL1  UNL     1      30.138   7.898  47.308  1.00  0.00    -0.084 Cl
HETATM   26  C16 UNL     1      29.005   5.611  48.147  1.00  0.00     0.024 A 
HETATM   27  C17 UNL     1      27.995   4.772  48.604  1.00  0.00     0.013 A 
ENDBRANCH  20  21
ENDBRANCH  18  19
ENDBRANCH  17  18
ENDBRANCH   1  17
TORSDOF 9
ENDMDL
MODEL 6
REMARK VINA RESULT:      -6.9      3.693      6.111
REMARK  9 active torsions:
REMARK  status: ('A' for Active; 'I' for Inactive)
REMARK    1  A    between atoms: O1_2  and  C2_3 
REMARK    2  A    between atoms: C5_6  and  C6_7 
REMARK       I    between atoms: C6_7  and  N1_9 
REMARK    3  A    between atoms: N1_9  and  C7_10 
REMARK    4  A    between atoms: C7_10  and  C8_11 
REMARK    5  A    between atoms: C8_11  and  O3_12 
REMARK    6  A    between atoms: C8_11  and  C9_13 
REMARK    7  A    between atoms: C9_13  and  O4_14 
REMARK    8  A    between atoms: O4_14  and  C10_15 
REMARK    9  A    between atoms: C11_16  and  C12_17 
ROOT
HETATM    1  C8  UNL     1      19.675  -0.727  53.564  1.00  0.00     0.160 C 
ENDROOT
BRANCH   1   2
HETATM    2  C7  UNL     1      19.370  -0.091  52.254  1.00  0.00     0.156 C 
BRANCH   2   3
HETATM    3  N1  UNL     1      20.452   0.753  51.838  1.00  0.00    -0.354 N 
HETATM    4  C6  UNL     1      20.826   2.097  52.063  1.00  0.00     0.251 C 
HETATM    5  O2  UNL     1      20.023   2.736  52.808  1.00  0.00    -0.268 OA
HETATM    6  H6  UNL     1      21.173   0.292  51.200  1.00  0.00     0.162 HD
BRANCH   4   7
HETATM    7  C5  UNL     1      22.008   2.753  51.524  1.00  0.00     0.033 A 
HETATM    8  C4  UNL     1      22.949   3.450  52.251  1.00  0.00     0.020 A 
HETATM    9  C3  UNL     1      24.077   4.087  51.814  1.00  0.00     0.039 A 
HETATM   10  C2  UNL     1      24.571   4.200  50.515  1.00  0.00     0.080 A 
HETATM   11  P1  UNL     1      23.542   3.382  49.348  1.00  0.00     0.005 P 
HETATM   12  C18 UNL     1      22.180   2.651  50.135  1.00  0.00     0.035 A 
BRANCH  10  13
HETATM   13  O1  UNL     1      25.737   4.879  50.195  1.00  0.00    -0.355 OA
HETATM   14  C1  UNL     1      25.664   6.272  49.869  1.00  0.00     0.210 C 
ENDBRANCH  10  13
ENDBRANCH   4   7
ENDBRANCH   2   3
ENDBRANCH   1   2
BRANCH   1  15
HETATM   15  O3  UNL     1      18.846  -1.770  53.850  1.00  0.00    -0.392 OA
HETATM   16  H10 UNL     1      17.929  -1.531  53.571  1.00  0.00     0.210 HD
ENDBRANCH   1  15
BRANCH   1  17
HETATM   17  C9  UNL     1      21.114  -1.204  53.664  1.00  0.00     0.207 C 
BRANCH  17  18
HETATM   18  O4  UNL     1      21.934  -0.297  54.338  1.00  0.00    -0.360 OA
BRANCH  18  19
HETATM   19  C10 UNL     1      23.312  -0.415  54.225  1.00  0.00     0.135 C 
HETATM   20  C11 UNL     1      24.202   0.274  53.528  1.00  0.00     0.035 C 
BRANCH  20  21
HETATM   21  C12 UNL     1      25.631  -0.013  53.543  1.00  0.00    -0.034 A 
HETATM   22  C13 UNL     1      26.046  -1.096  52.796  1.00  0.00     0.013 A 
HETATM   23  C14 UNL     1      27.399  -1.368  52.811  1.00  0.00     0.024 A 
HETATM   24  C15 UNL     1      28.271  -0.578  53.546  1.00  0.00     0.034 A 
HETATM   25 CL1  UNL     1      29.994  -0.874  53.602  1.00  0.00    -0.084 Cl
HETATM   26  C16 UNL     1      27.784   0.495  54.275  1.00  0.00     0.024 A 
HETATM   27  C17 UNL     1      26.431   0.817  54.298  1.00  0.00     0.013 A 
ENDBRANCH  20  21
ENDBRANCH  18  19
ENDBRANCH  17  18
ENDBRANCH   1  17
TORSDOF 9
ENDMDL
MODEL 7
REMARK VINA RESULT:      -6.9      1.734      2.231
REMARK  9 active torsions:
REMARK  status: ('A' for Active; 'I' for Inactive)
REMARK    1  A    between atoms: O1_2  and  C2_3 
REMARK    2  A    between atoms: C5_6  and  C6_7 
REMARK       I    between atoms: C6_7  and  N1_9 
REMARK    3  A    between atoms: N1_9  and  C7_10 
REMARK    4  A    between atoms: C7_10  and  C8_11 
REMARK    5  A    between atoms: C8_11  and  O3_12 
REMARK    6  A    between atoms: C8_11  and  C9_13 
REMARK    7  A    between atoms: C9_13  and  O4_14 
REMARK    8  A    between atoms: O4_14  and  C10_15 
REMARK    9  A    between atoms: C11_16  and  C12_17 
ROOT
HETATM    1  C8  UNL     1      27.351   1.604  53.828  1.00  0.00     0.160 C 
ENDROOT
BRANCH   1   2
HETATM    2  C7  UNL     1      27.510   1.494  52.353  1.00  0.00     0.156 C 
BRANCH   2   3
HETATM    3  N1  UNL     1      26.346   1.990  51.679  1.00  0.00    -0.354 N 
HETATM    4  C6  UNL     1      26.102   2.911  50.636  1.00  0.00     0.251 C 
HETATM    5  O2  UNL     1      27.151   3.448  50.167  1.00  0.00    -0.268 OA
HETATM    6  H6  UNL     1      25.416   1.592  52.019  1.00  0.00     0.162 HD
BRANCH   4   7
HETATM    7  C5  UNL     1      24.795   3.261  50.097  1.00  0.00     0.033 A 
HETATM    8  C4  UNL     1      23.645   2.510  50.216  1.00  0.00     0.020 A 
HETATM    9  C3  UNL     1      22.392   2.775  49.739  1.00  0.00     0.039 A 
HETATM   10  C2  UNL     1      21.948   3.876  49.006  1.00  0.00     0.080 A 
HETATM   11  P1  UNL     1      23.240   5.026  48.702  1.00  0.00     0.005 P 
HETATM   12  C18 UNL     1      24.730   4.477  49.400  1.00  0.00     0.035 A 
BRANCH  10  13
HETATM   13  O1  UNL     1      20.638   4.031  48.576  1.00  0.00    -0.355 OA
HETATM   14  C1  UNL     1      19.850   5.098  49.118  1.00  0.00     0.210 C 
ENDBRANCH  10  13
ENDBRANCH   4   7
ENDBRANCH   2   3
ENDBRANCH   1   2
BRANCH   1  15
HETATM   15  O3  UNL     1      26.574   2.660  54.197  1.00  0.00    -0.392 OA
HETATM   16  H10 UNL     1      25.853   2.331  54.786  1.00  0.00     0.210 HD
ENDBRANCH   1  15
BRANCH   1  17
HETATM   17  C9  UNL     1      26.787   0.339  54.453  1.00  0.00     0.207 C 
BRANCH  17  18
HETATM   18  O4  UNL     1      26.203  -0.510  53.510  1.00  0.00    -0.360 OA
BRANCH  18  19
HETATM   19  C10 UNL     1      24.824  -0.662  53.497  1.00  0.00     0.135 C 
HETATM   20  C11 UNL     1      23.839   0.222  53.475  1.00  0.00     0.035 C 
BRANCH  20  21
HETATM   21  C12 UNL     1      22.428  -0.146  53.466  1.00  0.00    -0.034 A 
HETATM   22  C13 UNL     1      21.605   0.608  52.656  1.00  0.00     0.013 A 
HETATM   23  C14 UNL     1      20.269   0.259  52.648  1.00  0.00     0.024 A 
HETATM   24  C15 UNL     1      19.809  -0.796  53.422  1.00  0.00     0.034 A 
HETATM   25 CL1  UNL     1      18.128  -1.283  53.452  1.00  0.00    -0.084 Cl
HETATM   26  C16 UNL     1      20.695  -1.511  54.214  1.00  0.00     0.024 A 
HETATM   27  C17 UNL     1      22.050  -1.206  54.263  1.00  0.00     0.013 A 
ENDBRANCH  20  21
ENDBRANCH  18  19
ENDBRANCH  17  18
ENDBRANCH   1  17
TORSDOF 9
ENDMDL
MODEL 8
REMARK VINA RESULT:      -6.8      2.970      5.189
REMARK  9 active torsions:
REMARK  status: ('A' for Active; 'I' for Inactive)
REMARK    1  A    between atoms: O1_2  and  C2_3 
REMARK    2  A    between atoms: C5_6  and  C6_7 
REMARK       I    between atoms: C6_7  and  N1_9 
REMARK    3  A    between atoms: N1_9  and  C7_10 
REMARK    4  A    between atoms: C7_10  and  C8_11 
REMARK    5  A    between atoms: C8_11  and  O3_12 
REMARK    6  A    between atoms: C8_11  and  C9_13 
REMARK    7  A    between atoms: C9_13  and  O4_14 
REMARK    8  A    between atoms: O4_14  and  C10_15 
REMARK    9  A    between atoms: C11_16  and  C12_17 
ROOT
HETATM    1  C8  UNL     1      27.066   4.793  48.877  1.00  0.00     0.160 C 
ENDROOT
BRANCH   1   2
HETATM    2  C7  UNL     1      26.067   5.792  49.340  1.00  0.00     0.156 C 
BRANCH   2   3
HETATM    3  N1  UNL     1      24.808   5.161  49.613  1.00  0.00    -0.354 N 
HETATM    4  C6  UNL     1      23.808   5.295  50.601  1.00  0.00     0.251 C 
HETATM    5  O2  UNL     1      24.062   6.177  51.476  1.00  0.00    -0.268 OA
HETATM    6  H6  UNL     1      24.520   4.398  48.925  1.00  0.00     0.162 HD
BRANCH   4   7
HETATM    7  C5  UNL     1      22.574   4.525  50.673  1.00  0.00     0.033 A 
HETATM    8  C4  UNL     1      21.570   4.692  51.603  1.00  0.00     0.020 A 
HETATM    9  C3  UNL     1      20.392   4.010  51.728  1.00  0.00     0.039 A 
HETATM   10  C2  UNL     1      19.897   2.965  50.948  1.00  0.00     0.080 A 
HETATM   11  P1  UNL     1      21.001   2.533  49.652  1.00  0.00     0.005 P 
HETATM   12  C18 UNL     1      22.419   3.531  49.694  1.00  0.00     0.035 A 
BRANCH  10  13
HETATM   13  O1  UNL     1      18.675   2.350  51.179  1.00  0.00    -0.355 OA
HETATM   14  C1  UNL     1      18.090   1.554  50.141  1.00  0.00     0.210 C 
ENDBRANCH  10  13
ENDBRANCH   4   7
ENDBRANCH   2   3
ENDBRANCH   1   2
BRANCH   1  15
HETATM   15  O3  UNL     1      28.334   5.089  49.278  1.00  0.00    -0.392 OA
HETATM   16  H10 UNL     1      28.295   5.488  50.181  1.00  0.00     0.210 HD
ENDBRANCH   1  15
BRANCH   1  17
HETATM   17  C9  UNL     1      26.731   3.379  49.321  1.00  0.00     0.207 C 
BRANCH  17  18
HETATM   18  O4  UNL     1      26.858   3.206  50.702  1.00  0.00    -0.360 OA
BRANCH  18  19
HETATM   19  C10 UNL     1      26.002   2.331  51.356  1.00  0.00     0.135 C 
HETATM   20  C11 UNL     1      25.254   2.472  52.439  1.00  0.00     0.035 C 
BRANCH  20  21
HETATM   21  C12 UNL     1      24.410   1.413  52.977  1.00  0.00    -0.034 A 
HETATM   22  C13 UNL     1      23.048   1.614  52.892  1.00  0.00     0.013 A 
HETATM   23  C14 UNL     1      22.249   0.610  53.401  1.00  0.00     0.024 A 
HETATM   24  C15 UNL     1      22.812  -0.527  53.962  1.00  0.00     0.034 A 
HETATM   25 CL1  UNL     1      21.850  -1.830  54.623  1.00  0.00    -0.084 Cl
HETATM   26  C16 UNL     1      24.191  -0.662  54.014  1.00  0.00     0.024 A 
HETATM   27  C17 UNL     1      25.046   0.316  53.517  1.00  0.00     0.013 A 
ENDBRANCH  20  21
ENDBRANCH  18  19
ENDBRANCH  17  18
ENDBRANCH   1  17
TORSDOF 9
ENDMDL
MODEL 9
REMARK VINA RESULT:      -6.8      3.829      6.142
REMARK  9 active torsions:
REMARK  status: ('A' for Active; 'I' for Inactive)
REMARK    1  A    between atoms: O1_2  and  C2_3 
REMARK    2  A    between atoms: C5_6  and  C6_7 
REMARK       I    between atoms: C6_7  and  N1_9 
REMARK    3  A    between atoms: N1_9  and  C7_10 
REMARK    4  A    between atoms: C7_10  and  C8_11 
REMARK    5  A    between atoms: C8_11  and  O3_12 
REMARK    6  A    between atoms: C8_11  and  C9_13 
REMARK    7  A    between atoms: C9_13  and  O4_14 
REMARK    8  A    between atoms: O4_14  and  C10_15 
REMARK    9  A    between atoms: C11_16  and  C12_17 
ROOT
HETATM    1  C8  UNL     1      21.327   2.747  52.000  1.00  0.00     0.160 C 
ENDROOT
BRANCH   1   2
HETATM    2  C7  UNL     1      21.284   3.303  50.622  1.00  0.00     0.156 C 
BRANCH   2   3
HETATM    3  N1  UNL     1      22.601   3.653  50.175  1.00  0.00    -0.354 N 
HETATM    4  C6  UNL     1      23.503   4.710  50.431  1.00  0.00     0.251 C 
HETATM    5  O2  UNL     1      23.065   5.576  51.246  1.00  0.00    -0.268 OA
HETATM    6  H6  UNL     1      23.042   2.977  49.479  1.00  0.00     0.162 HD
BRANCH   4   7
HETATM    7  C5  UNL     1      24.830   4.855  49.849  1.00  0.00     0.033 A 
HETATM    8  C4  UNL     1      25.776   3.859  49.735  1.00  0.00     0.020 A 
HETATM    9  C3  UNL     1      27.034   3.924  49.203  1.00  0.00     0.039 A 
HETATM   10  C2  UNL     1      27.690   5.016  48.635  1.00  0.00     0.080 A 
HETATM   11  P1  UNL     1      26.690   6.461  48.648  1.00  0.00     0.005 P 
HETATM   12  C18 UNL     1      25.147   6.135  49.368  1.00  0.00     0.035 A 
BRANCH  10  13
HETATM   13  O1  UNL     1      28.978   4.955  48.125  1.00  0.00    -0.355 OA
HETATM   14  C1  UNL     1      29.945   5.917  48.561  1.00  0.00     0.210 C 
ENDBRANCH  10  13
ENDBRANCH   4   7
ENDBRANCH   2   3
ENDBRANCH   1   2
BRANCH   1  15
HETATM   15  O3  UNL     1      20.218   3.054  52.729  1.00  0.00    -0.392 OA
HETATM   16  H10 UNL     1      19.643   3.653  52.193  1.00  0.00     0.210 HD
ENDBRANCH   1  15
BRANCH   1  17
HETATM   17  C9  UNL     1      21.521   1.240  52.018  1.00  0.00     0.207 C 
BRANCH  17  18
HETATM   18  O4  UNL     1      22.108   0.789  53.202  1.00  0.00    -0.360 OA
BRANCH  18  19
HETATM   19  C10 UNL     1      23.474   0.540  53.230  1.00  0.00     0.135 C 
HETATM   20  C11 UNL     1      24.519   1.338  53.086  1.00  0.00     0.035 C 
BRANCH  20  21
HETATM   21  C12 UNL     1      25.900   0.874  53.149  1.00  0.00    -0.034 A 
HETATM   22  C13 UNL     1      26.100  -0.477  52.955  1.00  0.00     0.013 A 
HETATM   23  C14 UNL     1      27.407  -0.917  53.014  1.00  0.00     0.024 A 
HETATM   24  C15 UNL     1      28.442  -0.026  53.258  1.00  0.00     0.034 A 
HETATM   25 CL1  UNL     1      30.117  -0.525  53.344  1.00  0.00    -0.084 Cl
HETATM   26  C16 UNL     1      28.167   1.320  53.444  1.00  0.00     0.024 A 
HETATM   27  C17 UNL     1      26.871   1.821  53.396  1.00  0.00     0.013 A 
ENDBRANCH  20  21
ENDBRANCH  18  19
ENDBRANCH  17  18
ENDBRANCH   1  17
TORSDOF 9
ENDMDL
