MODEL 1
REMARK VINA RESULT:      -6.4      0.000      0.000
REMARK  9 active torsions:
REMARK  status: ('A' for Active; 'I' for Inactive)
REMARK    1  A    between atoms: C3_3  and  C4_4 
REMARK    2  A    between atoms: C4_4  and  C5_5 
REMARK    3  A    between atoms: C6_6  and  N1_7 
REMARK       I    between atoms: N1_7  and  C8_9 
REMARK    4  A    between atoms: C8_9  and  C9_11 
REMARK    5  A    between atoms: C12_14  and  C13_15 
REMARK    6  A    between atoms: C12_14  and  C15_18 
REMARK    7  A    between atoms: C13_15  and  C14_16 
REMARK    8  A    between atoms: C15_18  and  C16_19 
REMARK    9  A    between atoms: C17_21  and  N2_22 
ROOT
HETATM    1  C9  UNL     1      24.333   1.722  52.637  1.00  0.00     0.134 C 
HETATM    2  C10 UNL     1      23.868   0.365  53.040  1.00  0.00    -0.014 C 
HETATM    3  C11 UNL     1      24.921  -0.449  53.275  1.00  0.00    -0.018 C 
HETATM    4  C12 UNL     1      26.173   0.344  53.035  1.00  0.00     0.011 C 
HETATM    5  C17 UNL     1      25.698   1.443  52.089  1.00  0.00     0.246 C 
ENDROOT
BRANCH   1   6
HETATM    6  C8  UNL     1      23.434   2.353  51.672  1.00  0.00     0.233 C 
HETATM    7  N1  UNL     1      22.983   3.693  51.691  1.00  0.00    -0.332 N 
HETATM    8  C7  UNL     1      23.490   4.539  52.753  1.00  0.00     0.158 C 
HETATM    9  O1  UNL     1      22.987   1.661  50.699  1.00  0.00    -0.272 OA
BRANCH   7  10
HETATM   10  C6  UNL     1      22.090   4.161  50.696  1.00  0.00     0.089 C 
HETATM   11  C5  UNL     1      22.281   5.049  49.758  1.00  0.00    -0.006 C 
BRANCH  11  12
HETATM   12  C4  UNL     1      23.296   5.951  49.221  1.00  0.00     0.055 C 
BRANCH  12  13
HETATM   13  C3  UNL     1      24.488   5.161  48.747  1.00  0.00    -0.027 C 
HETATM   14  C2  UNL     1      25.643   5.138  49.436  1.00  0.00    -0.035 C 
HETATM   15  C1  UNL     1      26.921   4.426  49.137  1.00  0.00     0.036 C 
ENDBRANCH  12  13
ENDBRANCH  11  12
ENDBRANCH   7  10
ENDBRANCH   1   6
BRANCH   5  16
HETATM   16  N2  UNL     1      26.593   2.582  52.181  1.00  0.00     0.085 N 
HETATM   17  H25 UNL     1      26.416   3.104  53.050  1.00  0.00     0.313 HD
HETATM   18  H26 UNL     1      27.602   2.341  52.134  1.00  0.00     0.313 HD
ENDBRANCH   5  16
BRANCH   4  19
HETATM   19  C13 UNL     1      26.624   0.916  54.345  1.00  0.00     0.030 C 
BRANCH  19  20
HETATM   20  C14 UNL     1      28.001   0.392  54.670  1.00  0.00     0.116 C 
HETATM   21 CL1  UNL     1      29.217   1.670  54.384  1.00  0.00    -0.130 Cl
ENDBRANCH  19  20
ENDBRANCH   4  19
BRANCH   4  22
HETATM   22  C15 UNL     1      27.170  -0.559  52.404  1.00  0.00     0.030 C 
BRANCH  22  23
HETATM   23  C16 UNL     1      26.828  -2.031  52.484  1.00  0.00     0.116 C 
HETATM   24 CL2  UNL     1      28.371  -2.845  52.938  1.00  0.00    -0.130 Cl
ENDBRANCH  22  23
ENDBRANCH   4  22
TORSDOF 9
ENDMDL
MODEL 2
REMARK VINA RESULT:      -6.3      1.592      3.037
REMARK  9 active torsions:
REMARK  status: ('A' for Active; 'I' for Inactive)
REMARK    1  A    between atoms: C3_3  and  C4_4 
REMARK    2  A    between atoms: C4_4  and  C5_5 
REMARK    3  A    between atoms: C6_6  and  N1_7 
REMARK       I    between atoms: N1_7  and  C8_9 
REMARK    4  A    between atoms: C8_9  and  C9_11 
REMARK    5  A    between atoms: C12_14  and  C13_15 
REMARK    6  A    between atoms: C12_14  and  C15_18 
REMARK    7  A    between atoms: C13_15  and  C14_16 
REMARK    8  A    between atoms: C15_18  and  C16_19 
REMARK    9  A    between atoms: C17_21  and  N2_22 
ROOT
HETATM    1  C9  UNL     1      24.454   1.635  52.687  1.00  0.00     0.134 C 
HETATM    2  C10 UNL     1      24.020   0.282  53.136  1.00  0.00    -0.014 C 
HETATM    3  C11 UNL     1      25.090  -0.508  53.371  1.00  0.00    -0.018 C 
HETATM    4  C12 UNL     1      26.324   0.297  53.082  1.00  0.00     0.011 C 
HETATM    5  C17 UNL     1      25.812   1.362  52.117  1.00  0.00     0.246 C 
ENDROOT
BRANCH   1   6
HETATM    6  C8  UNL     1      23.525   2.226  51.725  1.00  0.00     0.233 C 
HETATM    7  N1  UNL     1      23.054   3.559  51.716  1.00  0.00    -0.332 N 
HETATM    8  C7  UNL     1      23.572   4.442  52.743  1.00  0.00     0.158 C 
HETATM    9  O1  UNL     1      23.068   1.500  50.782  1.00  0.00    -0.272 OA
BRANCH   7  10
HETATM   10  C6  UNL     1      22.133   3.986  50.728  1.00  0.00     0.089 C 
HETATM   11  C5  UNL     1      20.828   3.991  50.754  1.00  0.00    -0.006 C 
BRANCH  11  12
HETATM   12  C4  UNL     1      19.696   3.644  51.608  1.00  0.00     0.055 C 
BRANCH  12  13
HETATM   13  C3  UNL     1      19.709   2.169  51.908  1.00  0.00    -0.027 C 
HETATM   14  C2  UNL     1      20.282   1.676  53.021  1.00  0.00    -0.035 C 
HETATM   15  C1  UNL     1      20.398   0.263  53.492  1.00  0.00     0.036 C 
ENDBRANCH  12  13
ENDBRANCH  11  12
ENDBRANCH   7  10
ENDBRANCH   1   6
BRANCH   5  16
HETATM   16  N2  UNL     1      26.690   2.517  52.160  1.00  0.00     0.085 N 
HETATM   17  H25 UNL     1      27.634   2.258  51.845  1.00  0.00     0.313 HD
HETATM   18  H26 UNL     1      26.360   3.329  51.601  1.00  0.00     0.313 HD
ENDBRANCH   5  16
BRANCH   4  19
HETATM   19  C13 UNL     1      26.793   0.912  54.367  1.00  0.00     0.030 C 
BRANCH  19  20
HETATM   20  C14 UNL     1      28.190   0.429  54.668  1.00  0.00     0.116 C 
HETATM   21 CL1  UNL     1      29.353   1.769  54.451  1.00  0.00    -0.130 Cl
ENDBRANCH  19  20
ENDBRANCH   4  19
BRANCH   4  22
HETATM   22  C15 UNL     1      27.322  -0.607  52.454  1.00  0.00     0.030 C 
BRANCH  22  23
HETATM   23  C16 UNL     1      26.966  -2.077  52.513  1.00  0.00     0.116 C 
HETATM   24 CL2  UNL     1      28.484  -2.906  53.019  1.00  0.00    -0.130 Cl
ENDBRANCH  22  23
ENDBRANCH   4  22
TORSDOF 9
ENDMDL
MODEL 3
REMARK VINA RESULT:      -6.3      3.946      6.367
REMARK  9 active torsions:
REMARK  status: ('A' for Active; 'I' for Inactive)
REMARK    1  A    between atoms: C3_3  and  C4_4 
REMARK    2  A    between atoms: C4_4  and  C5_5 
REMARK    3  A    between atoms: C6_6  and  N1_7 
REMARK       I    between atoms: N1_7  and  C8_9 
REMARK    4  A    between atoms: C8_9  and  C9_11 
REMARK    5  A    between atoms: C12_14  and  C13_15 
REMARK    6  A    between atoms: C12_14  and  C15_18 
REMARK    7  A    between atoms: C13_15  and  C14_16 
REMARK    8  A    between atoms: C15_18  and  C16_19 
REMARK    9  A    between atoms: C17_21  and  N2_22 
ROOT
HETATM    1  C9  UNL     1      24.610   0.823  52.765  1.00  0.00     0.134 C 
HETATM    2  C10 UNL     1      24.141  -0.464  53.351  1.00  0.00    -0.014 C 
HETATM    3  C11 UNL     1      22.795  -0.554  53.288  1.00  0.00    -0.018 C 
HETATM    4  C12 UNL     1      22.284   0.701  52.639  1.00  0.00     0.011 C 
HETATM    5  C17 UNL     1      23.405   1.699  52.911  1.00  0.00     0.246 C 
ENDROOT
BRANCH   1   6
HETATM    6  C8  UNL     1      25.796   1.343  53.443  1.00  0.00     0.233 C 
HETATM    7  N1  UNL     1      26.894   1.998  52.840  1.00  0.00    -0.332 N 
HETATM    8  C7  UNL     1      26.822   2.210  51.407  1.00  0.00     0.158 C 
HETATM    9  O1  UNL     1      25.892   1.213  54.708  1.00  0.00    -0.272 OA
BRANCH   7  10
HETATM   10  C6  UNL     1      27.990   2.431  53.626  1.00  0.00     0.089 C 
HETATM   11  C5  UNL     1      29.090   1.802  53.938  1.00  0.00    -0.006 C 
BRANCH  11  12
HETATM   12  C4  UNL     1      29.780   0.530  53.740  1.00  0.00     0.055 C 
BRANCH  12  13
HETATM   13  C3  UNL     1      28.811  -0.612  53.891  1.00  0.00    -0.027 C 
HETATM   14  C2  UNL     1      28.261  -1.223  52.825  1.00  0.00    -0.035 C 
HETATM   15  C1  UNL     1      27.293  -2.358  52.767  1.00  0.00     0.036 C 
ENDBRANCH  12  13
ENDBRANCH  11  12
ENDBRANCH   7  10
ENDBRANCH   1   6
BRANCH   5  16
HETATM   16  N2  UNL     1      23.353   2.765  51.927  1.00  0.00     0.085 N 
HETATM   17  H25 UNL     1      24.158   3.395  52.043  1.00  0.00     0.313 HD
HETATM   18  H26 UNL     1      23.320   2.439  50.942  1.00  0.00     0.313 HD
ENDBRANCH   5  16
BRANCH   4  19
HETATM   19  C13 UNL     1      22.135   0.442  51.170  1.00  0.00     0.030 C 
BRANCH  19  20
HETATM   20  C14 UNL     1      20.757   0.866  50.728  1.00  0.00     0.116 C 
HETATM   21 CL1  UNL     1      20.860   1.715  49.159  1.00  0.00    -0.130 Cl
ENDBRANCH  19  20
ENDBRANCH   4  19
BRANCH   4  22
HETATM   22  C15 UNL     1      21.012   1.076  53.311  1.00  0.00     0.030 C 
BRANCH  22  23
HETATM   23  C16 UNL     1      20.506   0.062  54.315  1.00  0.00     0.116 C 
HETATM   24 CL2  UNL     1      19.254  -0.886  53.430  1.00  0.00    -0.130 Cl
ENDBRANCH  22  23
ENDBRANCH   4  22
TORSDOF 9
ENDMDL
MODEL 4
REMARK VINA RESULT:      -6.1      2.230      3.532
REMARK  9 active torsions:
REMARK  status: ('A' for Active; 'I' for Inactive)
REMARK    1  A    between atoms: C3_3  and  C4_4 
REMARK    2  A    between atoms: C4_4  and  C5_5 
REMARK    3  A    between atoms: C6_6  and  N1_7 
REMARK       I    between atoms: N1_7  and  C8_9 
REMARK    4  A    between atoms: C8_9  and  C9_11 
REMARK    5  A    between atoms: C12_14  and  C13_15 
REMARK    6  A    between atoms: C12_14  and  C15_18 
REMARK    7  A    between atoms: C13_15  and  C14_16 
REMARK    8  A    between atoms: C15_18  and  C16_19 
REMARK    9  A    between atoms: C17_21  and  N2_22 
ROOT
HETATM    1  C9  UNL     1      25.716   1.880  51.590  1.00  0.00     0.134 C 
HETATM    2  C10 UNL     1      26.547   0.676  51.304  1.00  0.00    -0.014 C 
HETATM    3  C11 UNL     1      26.765  -0.031  52.434  1.00  0.00    -0.018 C 
HETATM    4  C12 UNL     1      26.075   0.684  53.560  1.00  0.00     0.011 C 
HETATM    5  C17 UNL     1      25.986   2.116  53.044  1.00  0.00     0.246 C 
ENDROOT
BRANCH   1   6
HETATM    6  C8  UNL     1      26.071   3.014  50.739  1.00  0.00     0.233 C 
HETATM    7  N1  UNL     1      25.175   3.889  50.082  1.00  0.00    -0.332 N 
HETATM    8  C7  UNL     1      23.760   3.662  50.303  1.00  0.00     0.158 C 
HETATM    9  O1  UNL     1      27.303   3.277  50.540  1.00  0.00    -0.272 OA
BRANCH   7  10
HETATM   10  C6  UNL     1      25.667   4.938  49.267  1.00  0.00     0.089 C 
HETATM   11  C5  UNL     1      25.739   6.218  49.511  1.00  0.00    -0.006 C 
BRANCH  11  12
HETATM   12  C4  UNL     1      25.437   7.209  50.541  1.00  0.00     0.055 C 
BRANCH  12  13
HETATM   13  C3  UNL     1      24.089   7.826  50.282  1.00  0.00    -0.027 C 
HETATM   14  C2  UNL     1      22.945   7.201  50.617  1.00  0.00    -0.035 C 
HETATM   15  C1  UNL     1      21.529   7.642  50.446  1.00  0.00     0.036 C 
ENDBRANCH  12  13
ENDBRANCH  11  12
ENDBRANCH   7  10
ENDBRANCH   1   6
BRANCH   5  16
HETATM   16  N2  UNL     1      24.902   2.808  53.719  1.00  0.00     0.085 N 
HETATM   17  H25 UNL     1      24.667   3.675  53.218  1.00  0.00     0.313 HD
HETATM   18  H26 UNL     1      24.038   2.242  53.835  1.00  0.00     0.313 HD
ENDBRANCH   5  16
BRANCH   4  19
HETATM   19  C13 UNL     1      24.711   0.083  53.730  1.00  0.00     0.030 C 
BRANCH  19  20
HETATM   20  C14 UNL     1      24.748  -0.928  54.848  1.00  0.00     0.116 C 
HETATM   21 CL1  UNL     1      23.083  -1.332  55.354  1.00  0.00    -0.130 Cl
ENDBRANCH  19  20
ENDBRANCH   4  19
BRANCH   4  22
HETATM   22  C15 UNL     1      26.932   0.566  54.769  1.00  0.00     0.030 C 
BRANCH  22  23
HETATM   23  C16 UNL     1      28.349   0.108  54.495  1.00  0.00     0.116 C 
HETATM   24 CL2  UNL     1      29.320   1.623  54.401  1.00  0.00    -0.130 Cl
ENDBRANCH  22  23
ENDBRANCH   4  22
TORSDOF 9
ENDMDL
MODEL 5
REMARK VINA RESULT:      -6.0      2.604      3.528
REMARK  9 active torsions:
REMARK  status: ('A' for Active; 'I' for Inactive)
REMARK    1  A    between atoms: C3_3  and  C4_4 
REMARK    2  A    between atoms: C4_4  and  C5_5 
REMARK    3  A    between atoms: C6_6  and  N1_7 
REMARK       I    between atoms: N1_7  and  C8_9 
REMARK    4  A    between atoms: C8_9  and  C9_11 
REMARK    5  A    between atoms: C12_14  and  C13_15 
REMARK    6  A    between atoms: C12_14  and  C15_18 
REMARK    7  A    between atoms: C13_15  and  C14_16 
REMARK    8  A    between atoms: C15_18  and  C16_19 
REMARK    9  A    between atoms: C17_21  and  N2_22 
ROOT
HETATM    1  C9  UNL     1      25.755   1.844  51.641  1.00  0.00     0.134 C 
HETATM    2  C10 UNL     1      26.551   0.619  51.349  1.00  0.00    -0.014 C 
HETATM    3  C11 UNL     1      26.748  -0.102  52.475  1.00  0.00    -0.018 C 
HETATM    4  C12 UNL     1      26.076   0.626  53.604  1.00  0.00     0.011 C 
HETATM    5  C17 UNL     1      26.029   2.063  53.096  1.00  0.00     0.246 C 
ENDROOT
BRANCH   1   6
HETATM    6  C8  UNL     1      26.143   2.972  50.797  1.00  0.00     0.233 C 
HETATM    7  N1  UNL     1      25.276   3.819  50.068  1.00  0.00    -0.332 N 
HETATM    8  C7  UNL     1      23.854   3.566  50.198  1.00  0.00     0.158 C 
HETATM    9  O1  UNL     1      27.380   3.258  50.676  1.00  0.00    -0.272 OA
BRANCH   7  10
HETATM   10  C6  UNL     1      25.800   4.865  49.270  1.00  0.00     0.089 C 
HETATM   11  C5  UNL     1      25.783   6.155  49.473  1.00  0.00    -0.006 C 
BRANCH  11  12
HETATM   12  C4  UNL     1      25.324   7.160  50.427  1.00  0.00     0.055 C 
BRANCH  12  13
HETATM   13  C3  UNL     1      25.944   8.494  50.109  1.00  0.00    -0.027 C 
HETATM   14  C2  UNL     1      27.249   8.616  49.803  1.00  0.00    -0.035 C 
HETATM   15  C1  UNL     1      28.041   9.835  49.461  1.00  0.00     0.036 C 
ENDBRANCH  12  13
ENDBRANCH  11  12
ENDBRANCH   7  10
ENDBRANCH   1   6
BRANCH   5  16
HETATM   16  N2  UNL     1      24.964   2.781  53.774  1.00  0.00     0.085 N 
HETATM   17  H25 UNL     1      24.226   3.038  53.104  1.00  0.00     0.313 HD
HETATM   18  H26 UNL     1      24.534   2.265  54.566  1.00  0.00     0.313 HD
ENDBRANCH   5  16
BRANCH   4  19
HETATM   19  C13 UNL     1      24.696   0.064  53.768  1.00  0.00     0.030 C 
BRANCH  19  20
HETATM   20  C14 UNL     1      24.692  -0.921  54.911  1.00  0.00     0.116 C 
HETATM   21 CL1  UNL     1      23.009  -1.340  55.343  1.00  0.00    -0.130 Cl
ENDBRANCH  19  20
ENDBRANCH   4  19
BRANCH   4  22
HETATM   22  C15 UNL     1      26.928   0.477  54.813  1.00  0.00     0.030 C 
BRANCH  22  23
HETATM   23  C16 UNL     1      28.347   0.029  54.533  1.00  0.00     0.116 C 
HETATM   24 CL2  UNL     1      29.310   1.550  54.454  1.00  0.00    -0.130 Cl
ENDBRANCH  22  23
ENDBRANCH   4  22
TORSDOF 9
ENDMDL
MODEL 6
REMARK VINA RESULT:      -6.0      2.125      3.064
REMARK  9 active torsions:
REMARK  status: ('A' for Active; 'I' for Inactive)
REMARK    1  A    between atoms: C3_3  and  C4_4 
REMARK    2  A    between atoms: C4_4  and  C5_5 
REMARK    3  A    between atoms: C6_6  and  N1_7 
REMARK       I    between atoms: N1_7  and  C8_9 
REMARK    4  A    between atoms: C8_9  and  C9_11 
REMARK    5  A    between atoms: C12_14  and  C13_15 
REMARK    6  A    between atoms: C12_14  and  C15_18 
REMARK    7  A    between atoms: C13_15  and  C14_16 
REMARK    8  A    between atoms: C15_18  and  C16_19 
REMARK    9  A    between atoms: C17_21  and  N2_22 
ROOT
HETATM    1  C9  UNL     1      25.929   1.683  52.221  1.00  0.00     0.134 C 
HETATM    2  C10 UNL     1      26.122   0.288  51.735  1.00  0.00    -0.014 C 
HETATM    3  C11 UNL     1      26.800  -0.444  52.646  1.00  0.00    -0.018 C 
HETATM    4  C12 UNL     1      27.102   0.449  53.815  1.00  0.00     0.011 C 
HETATM    5  C17 UNL     1      27.055   1.841  53.194  1.00  0.00     0.246 C 
ENDROOT
BRANCH   1   6
HETATM    6  C8  UNL     1      25.956   2.659  51.132  1.00  0.00     0.233 C 
HETATM    7  N1  UNL     1      25.065   3.741  50.947  1.00  0.00    -0.332 N 
HETATM    8  C7  UNL     1      24.041   3.925  51.956  1.00  0.00     0.158 C 
HETATM    9  O1  UNL     1      26.858   2.561  50.236  1.00  0.00    -0.272 OA
BRANCH   7  10
HETATM   10  C6  UNL     1      25.201   4.596  49.826  1.00  0.00     0.089 C 
HETATM   11  C5  UNL     1      24.355   4.852  48.866  1.00  0.00    -0.006 C 
BRANCH  11  12
HETATM   12  C4  UNL     1      23.012   4.515  48.400  1.00  0.00     0.055 C 
BRANCH  12  13
HETATM   13  C3  UNL     1      22.808   3.024  48.451  1.00  0.00    -0.027 C 
HETATM   14  C2  UNL     1      21.904   2.458  49.271  1.00  0.00    -0.035 C 
HETATM   15  C1  UNL     1      21.556   1.019  49.464  1.00  0.00     0.036 C 
ENDBRANCH  12  13
ENDBRANCH  11  12
ENDBRANCH   7  10
ENDBRANCH   1   6
BRANCH   5  16
HETATM   16  N2  UNL     1      26.780   2.824  54.228  1.00  0.00     0.085 N 
HETATM   17  H25 UNL     1      27.399   2.672  55.035  1.00  0.00     0.313 HD
HETATM   18  H26 UNL     1      26.868   3.811  53.916  1.00  0.00     0.313 HD
ENDBRANCH   5  16
BRANCH   4  19
HETATM   19  C13 UNL     1      26.014   0.273  54.832  1.00  0.00     0.030 C 
BRANCH  19  20
HETATM   20  C14 UNL     1      25.329  -1.052  54.604  1.00  0.00     0.116 C 
HETATM   21 CL1  UNL     1      23.567  -0.802  54.447  1.00  0.00    -0.130 Cl
ENDBRANCH  19  20
ENDBRANCH   4  19
BRANCH   4  22
HETATM   22  C15 UNL     1      28.454   0.096  54.321  1.00  0.00     0.030 C 
BRANCH  22  23
HETATM   23  C16 UNL     1      29.457  -0.261  53.244  1.00  0.00     0.116 C 
HETATM   24 CL2  UNL     1      29.748  -2.028  53.445  1.00  0.00    -0.130 Cl
ENDBRANCH  22  23
ENDBRANCH   4  22
TORSDOF 9
ENDMDL
MODEL 7
REMARK VINA RESULT:      -6.0      3.791      7.193
REMARK  9 active torsions:
REMARK  status: ('A' for Active; 'I' for Inactive)
REMARK    1  A    between atoms: C3_3  and  C4_4 
REMARK    2  A    between atoms: C4_4  and  C5_5 
REMARK    3  A    between atoms: C6_6  and  N1_7 
REMARK       I    between atoms: N1_7  and  C8_9 
REMARK    4  A    between atoms: C8_9  and  C9_11 
REMARK    5  A    between atoms: C12_14  and  C13_15 
REMARK    6  A    between atoms: C12_14  and  C15_18 
REMARK    7  A    between atoms: C13_15  and  C14_16 
REMARK    8  A    between atoms: C15_18  and  C16_19 
REMARK    9  A    between atoms: C17_21  and  N2_22 
ROOT
HETATM    1  C9  UNL     1      24.338   3.774  51.464  1.00  0.00     0.134 C 
HETATM    2  C10 UNL     1      23.868   3.785  50.050  1.00  0.00    -0.014 C 
HETATM    3  C11 UNL     1      23.176   4.914  49.787  1.00  0.00    -0.018 C 
HETATM    4  C12 UNL     1      23.147   5.735  51.045  1.00  0.00     0.011 C 
HETATM    5  C17 UNL     1      23.360   4.688  52.133  1.00  0.00     0.246 C 
ENDROOT
BRANCH   1   6
HETATM    6  C8  UNL     1      24.361   2.426  52.031  1.00  0.00     0.233 C 
HETATM    7  N1  UNL     1      25.479   1.565  52.115  1.00  0.00    -0.332 N 
HETATM    8  C7  UNL     1      26.741   2.081  51.621  1.00  0.00     0.158 C 
HETATM    9  O1  UNL     1      23.285   1.938  52.509  1.00  0.00    -0.272 OA
BRANCH   7  10
HETATM   10  C6  UNL     1      25.345   0.270  52.674  1.00  0.00     0.089 C 
HETATM   11  C5  UNL     1      25.781  -0.194  53.813  1.00  0.00    -0.006 C 
BRANCH  11  12
HETATM   12  C4  UNL     1      26.527   0.204  55.004  1.00  0.00     0.055 C 
BRANCH  12  13
HETATM   13  C3  UNL     1      27.993   0.316  54.682  1.00  0.00    -0.027 C 
HETATM   14  C2  UNL     1      28.626  -0.603  53.929  1.00  0.00    -0.035 C 
HETATM   15  C1  UNL     1      30.056  -0.669  53.503  1.00  0.00     0.036 C 
ENDBRANCH  12  13
ENDBRANCH  11  12
ENDBRANCH   7  10
ENDBRANCH   1   6
BRANCH   5  16
HETATM   16  N2  UNL     1      23.898   5.326  53.321  1.00  0.00     0.085 N 
HETATM   17  H25 UNL     1      24.827   5.721  53.123  1.00  0.00     0.313 HD
HETATM   18  H26 UNL     1      23.293   6.072  53.719  1.00  0.00     0.313 HD
ENDBRANCH   5  16
BRANCH   4  19
HETATM   19  C13 UNL     1      24.289   6.705  50.997  1.00  0.00     0.030 C 
BRANCH  19  20
HETATM   20  C14 UNL     1      23.772   8.062  50.587  1.00  0.00     0.116 C 
HETATM   21 CL1  UNL     1      24.086   8.328  48.848  1.00  0.00    -0.130 Cl
ENDBRANCH  19  20
ENDBRANCH   4  19
BRANCH   4  22
HETATM   22  C15 UNL     1      21.814   6.387  51.134  1.00  0.00     0.030 C 
BRANCH  22  23
HETATM   23  C16 UNL     1      20.786   5.856  50.157  1.00  0.00     0.116 C 
HETATM   24 CL2  UNL     1      20.277   7.290  49.191  1.00  0.00    -0.130 Cl
ENDBRANCH  22  23
ENDBRANCH   4  22
TORSDOF 9
ENDMDL
MODEL 8
REMARK VINA RESULT:      -5.9      1.581      2.052
REMARK  9 active torsions:
REMARK  status: ('A' for Active; 'I' for Inactive)
REMARK    1  A    between atoms: C3_3  and  C4_4 
REMARK    2  A    between atoms: C4_4  and  C5_5 
REMARK    3  A    between atoms: C6_6  and  N1_7 
REMARK       I    between atoms: N1_7  and  C8_9 
REMARK    4  A    between atoms: C8_9  and  C9_11 
REMARK    5  A    between atoms: C12_14  and  C13_15 
REMARK    6  A    between atoms: C12_14  and  C15_18 
REMARK    7  A    between atoms: C13_15  and  C14_16 
REMARK    8  A    between atoms: C15_18  and  C16_19 
REMARK    9  A    between atoms: C17_21  and  N2_22 
ROOT
HETATM    1  C9  UNL     1      24.174   1.582  52.642  1.00  0.00     0.134 C 
HETATM    2  C10 UNL     1      23.818   0.228  53.153  1.00  0.00    -0.014 C 
HETATM    3  C11 UNL     1      24.931  -0.510  53.361  1.00  0.00    -0.018 C 
HETATM    4  C12 UNL     1      26.115   0.336  52.990  1.00  0.00     0.011 C 
HETATM    5  C17 UNL     1      25.514   1.346  52.017  1.00  0.00     0.246 C 
ENDROOT
BRANCH   1   6
HETATM    6  C8  UNL     1      23.177   2.102  51.707  1.00  0.00     0.233 C 
HETATM    7  N1  UNL     1      22.727   3.439  51.612  1.00  0.00    -0.332 N 
HETATM    8  C7  UNL     1      23.341   4.401  52.506  1.00  0.00     0.158 C 
HETATM    9  O1  UNL     1      22.632   1.303  50.877  1.00  0.00    -0.272 OA
BRANCH   7  10
HETATM   10  C6  UNL     1      21.734   3.794  50.666  1.00  0.00     0.089 C 
HETATM   11  C5  UNL     1      21.861   4.117  49.408  1.00  0.00    -0.006 C 
BRANCH  11  12
HETATM   12  C4  UNL     1      22.866   4.292  48.364  1.00  0.00     0.055 C 
BRANCH  12  13
HETATM   13  C3  UNL     1      22.202   4.665  47.065  1.00  0.00    -0.027 C 
HETATM   14  C2  UNL     1      21.910   3.746  46.127  1.00  0.00    -0.035 C 
HETATM   15  C1  UNL     1      21.261   3.913  44.793  1.00  0.00     0.036 C 
ENDBRANCH  12  13
ENDBRANCH  11  12
ENDBRANCH   7  10
ENDBRANCH   1   6
BRANCH   5  16
HETATM   16  N2  UNL     1      26.343   2.537  51.983  1.00  0.00     0.085 N 
HETATM   17  H25 UNL     1      26.196   3.048  51.102  1.00  0.00     0.313 HD
HETATM   18  H26 UNL     1      26.194   3.188  52.778  1.00  0.00     0.313 HD
ENDBRANCH   5  16
BRANCH   4  19
HETATM   19  C13 UNL     1      26.616   1.011  54.231  1.00  0.00     0.030 C 
BRANCH  19  20
HETATM   20  C14 UNL     1      28.061   0.637  54.451  1.00  0.00     0.116 C 
HETATM   21 CL1  UNL     1      29.110   2.038  54.088  1.00  0.00    -0.130 Cl
ENDBRANCH  19  20
ENDBRANCH   4  19
BRANCH   4  22
HETATM   22  C15 UNL     1      27.120  -0.547  52.343  1.00  0.00     0.030 C 
BRANCH  22  23
HETATM   23  C16 UNL     1      26.823  -2.028  52.453  1.00  0.00     0.116 C 
HETATM   24 CL2  UNL     1      28.384  -2.781  52.949  1.00  0.00    -0.130 Cl
ENDBRANCH  22  23
ENDBRANCH   4  22
TORSDOF 9
ENDMDL
MODEL 9
REMARK VINA RESULT:      -5.9      3.375      5.503
REMARK  9 active torsions:
REMARK  status: ('A' for Active; 'I' for Inactive)
REMARK    1  A    between atoms: C3_3  and  C4_4 
REMARK    2  A    between atoms: C4_4  and  C5_5 
REMARK    3  A    between atoms: C6_6  and  N1_7 
REMARK       I    between atoms: N1_7  and  C8_9 
REMARK    4  A    between atoms: C8_9  and  C9_11 
REMARK    5  A    between atoms: C12_14  and  C13_15 
REMARK    6  A    between atoms: C12_14  and  C15_18 
REMARK    7  A    between atoms: C13_15  and  C14_16 
REMARK    8  A    between atoms: C15_18  and  C16_19 
REMARK    9  A    between atoms: C17_21  and  N2_22 
ROOT
HETATM    1  C9  UNL     1      24.803   0.254  53.442  1.00  0.00     0.134 C 
HETATM    2  C10 UNL     1      25.896  -0.557  52.835  1.00  0.00    -0.014 C 
HETATM    3  C11 UNL     1      26.823   0.244  52.266  1.00  0.00    -0.018 C 
HETATM    4  C12 UNL     1      26.384   1.666  52.469  1.00  0.00     0.011 C 
HETATM    5  C17 UNL     1      24.877   1.527  52.658  1.00  0.00     0.246 C 
ENDROOT
BRANCH   1   6
HETATM    6  C8  UNL     1      23.503  -0.411  53.353  1.00  0.00     0.233 C 
HETATM    7  N1  UNL     1      22.869  -1.161  54.370  1.00  0.00    -0.332 N 
HETATM    8  C7  UNL     1      23.557  -1.251  55.643  1.00  0.00     0.158 C 
HETATM    9  O1  UNL     1      22.842  -0.334  52.266  1.00  0.00    -0.272 OA
BRANCH   7  10
HETATM   10  C6  UNL     1      21.612  -1.770  54.132  1.00  0.00     0.089 C 
HETATM   11  C5  UNL     1      20.467  -1.224  53.828  1.00  0.00    -0.006 C 
BRANCH  11  12
HETATM   12  C4  UNL     1      19.843   0.074  53.584  1.00  0.00     0.055 C 
BRANCH  12  13
HETATM   13  C3  UNL     1      19.351   0.152  52.163  1.00  0.00    -0.027 C 
HETATM   14  C2  UNL     1      18.078  -0.137  51.836  1.00  0.00    -0.035 C 
HETATM   15  C1  UNL     1      17.406  -0.119  50.502  1.00  0.00     0.036 C 
ENDBRANCH  12  13
ENDBRANCH  11  12
ENDBRANCH   7  10
ENDBRANCH   1   6
BRANCH   5  16
HETATM   16  N2  UNL     1      24.373   2.676  53.390  1.00  0.00     0.085 N 
HETATM   17  H25 UNL     1      23.399   2.515  53.679  1.00  0.00     0.313 HD
HETATM   18  H26 UNL     1      24.934   2.932  54.226  1.00  0.00     0.313 HD
ENDBRANCH   5  16
BRANCH   4  19
HETATM   19  C13 UNL     1      27.040   2.186  53.712  1.00  0.00     0.030 C 
BRANCH  19  20
HETATM   20  C14 UNL     1      28.519   2.351  53.463  1.00  0.00     0.116 C 
HETATM   21 CL1  UNL     1      29.432   1.150  54.420  1.00  0.00    -0.130 Cl
ENDBRANCH  19  20
ENDBRANCH   4  19
BRANCH   4  22
HETATM   22  C15 UNL     1      26.736   2.430  51.244  1.00  0.00     0.030 C 
BRANCH  22  23
HETATM   23  C16 UNL     1      25.549   2.903  50.432  1.00  0.00     0.116 C 
HETATM   24 CL2  UNL     1      26.224   4.111  49.278  1.00  0.00    -0.130 Cl
ENDBRANCH  22  23
ENDBRANCH   4  22
TORSDOF 9
ENDMDL
