MODEL 1
REMARK VINA RESULT:      -9.4      0.000      0.000
REMARK  3 active torsions:
REMARK  status: ('A' for Active; 'I' for Inactive)
REMARK    1  A    between atoms: O1_2  and  C2_3 
REMARK    2  A    between atoms: C2_3  and  C3_5 
REMARK    3  A    between atoms: N2_15  and  C11_16 
ROOT
HETATM    1  C11 UNL     1      23.595   6.087  50.119  1.00  0.00     0.057 C 
HETATM    2  C12 UNL     1      22.770   5.755  49.141  1.00  0.00     0.033 C 
HETATM    3  C13 UNL     1      22.076   5.957  47.889  1.00  0.00     0.020 C 
HETATM    4  C14 UNL     1      21.926   6.848  46.918  1.00  0.00     0.093 C 
HETATM    5  N3  UNL     1      22.732   7.958  47.287  1.00  0.00    -0.331 N 
HETATM    6  C15 UNL     1      21.844   9.053  47.429  1.00  0.00     0.158 C 
HETATM    7  C16 UNL     1      24.117   8.149  47.515  1.00  0.00     0.251 C 
HETATM    8  O4  UNL     1      23.944   6.997  47.087  1.00  0.00    -0.271 OA
HETATM    9  C17 UNL     1      24.465   9.526  48.047  1.00  0.00     0.376 C 
HETATM   10  N4  UNL     1      25.864   9.578  48.389  1.00  0.00     0.108 N 
HETATM   11  C18 UNL     1      26.305  10.940  48.094  1.00  0.00     0.304 C 
HETATM   12  C19 UNL     1      27.635  11.224  48.755  1.00  0.00     0.302 C 
HETATM   13  N5  UNL     1      28.314  10.005  49.139  1.00  0.00     0.088 N 
HETATM   14  C20 UNL     1      28.569   9.244  47.941  1.00  0.00     0.310 C 
HETATM   15  C21 UNL     1      27.541   9.322  50.121  1.00  0.00     0.311 C 
HETATM   16  C22 UNL     1      26.049   9.356  49.831  1.00  0.00     0.274 C 
HETATM   17  C23 UNL     1      25.406   8.176  50.378  1.00  0.00     0.013 C 
HETATM   18  C24 UNL     1      24.616   7.077  50.540  1.00  0.00     0.029 C 
ENDROOT
BRANCH   1  19
HETATM   19  N2  UNL     1      23.596   5.025  51.096  1.00  0.00    -0.248 NA
HETATM   20  C10 UNL     1      24.421   4.065  51.124  1.00  0.00     0.107 A 
HETATM   21  C9  UNL     1      25.542   3.766  50.239  1.00  0.00     0.271 A 
HETATM   22  C25 UNL     1      24.088   3.185  52.290  1.00  0.00     0.106 A 
HETATM   23  N1  UNL     1      26.366   2.612  50.469  1.00  0.00    -0.321 N 
HETATM   24  O3  UNL     1      25.698   4.574  49.313  1.00  0.00    -0.266 OA
HETATM   25  C7  UNL     1      26.089   1.743  51.580  1.00  0.00     0.042 A 
HETATM   26  H7  UNL     1      27.160   2.433  49.812  1.00  0.00     0.169 HD
HETATM   27  C6  UNL     1      25.025   2.043  52.404  1.00  0.00    -0.025 A 
HETATM   28  C8  UNL     1      26.874   0.634  51.817  1.00  0.00     0.047 A 
HETATM   29  C5  UNL     1      24.755   1.203  53.485  1.00  0.00     0.011 A 
HETATM   30  C4  UNL     1      25.512   0.101  53.745  1.00  0.00     0.018 A 
HETATM   31  C3  UNL     1      26.567  -0.161  52.895  1.00  0.00     0.041 A 
BRANCH  31  32
HETATM   32  C2  UNL     1      27.405  -1.343  53.149  1.00  0.00     0.293 C 
HETATM   33  O2  UNL     1      27.292  -2.530  52.746  1.00  0.00    -0.259 OA
BRANCH  32  34
HETATM   34  O1  UNL     1      28.537  -1.277  53.947  1.00  0.00    -0.323 OA
HETATM   35  C1  UNL     1      29.797  -0.847  53.477  1.00  0.00     0.213 C 
ENDBRANCH  32  34
ENDBRANCH  31  32
ENDBRANCH   1  19
TORSDOF 3
ENDMDL
MODEL 2
REMARK VINA RESULT:      -9.2      1.843      2.646
REMARK  3 active torsions:
REMARK  status: ('A' for Active; 'I' for Inactive)
REMARK    1  A    between atoms: O1_2  and  C2_3 
REMARK    2  A    between atoms: C2_3  and  C3_5 
REMARK    3  A    between atoms: N2_15  and  C11_16 
ROOT
HETATM    1  C11 UNL     1      25.755   6.509  48.742  1.00  0.00     0.057 C 
HETATM    2  C12 UNL     1      24.685   6.404  47.971  1.00  0.00     0.033 C 
HETATM    3  C13 UNL     1      23.599   6.911  47.164  1.00  0.00     0.020 C 
HETATM    4  C14 UNL     1      23.056   8.049  46.753  1.00  0.00     0.093 C 
HETATM    5  N3  UNL     1      23.834   9.082  47.341  1.00  0.00    -0.331 N 
HETATM    6  C15 UNL     1      22.949   9.810  48.172  1.00  0.00     0.158 C 
HETATM    7  C16 UNL     1      25.193   9.473  47.257  1.00  0.00     0.251 C 
HETATM    8  O4  UNL     1      24.993   8.567  46.433  1.00  0.00    -0.271 OA
HETATM    9  C17 UNL     1      25.572  10.579  48.222  1.00  0.00     0.376 C 
HETATM   10  N4  UNL     1      26.994  10.806  48.172  1.00  0.00     0.108 N 
HETATM   11  C18 UNL     1      27.187  12.238  48.394  1.00  0.00     0.304 C 
HETATM   12  C19 UNL     1      28.629  12.534  48.737  1.00  0.00     0.302 C 
HETATM   13  N5  UNL     1      29.505  11.445  48.360  1.00  0.00     0.088 N 
HETATM   14  C20 UNL     1      29.416  11.280  46.930  1.00  0.00     0.310 C 
HETATM   15  C21 UNL     1      29.167  10.284  49.113  1.00  0.00     0.311 C 
HETATM   16  C22 UNL     1      27.666  10.094  49.269  1.00  0.00     0.274 C 
HETATM   17  C23 UNL     1      27.351   8.684  49.397  1.00  0.00     0.013 C 
HETATM   18  C24 UNL     1      26.763   7.462  49.266  1.00  0.00     0.029 C 
ENDROOT
BRANCH   1  19
HETATM   19  N2  UNL     1      26.175   5.182  49.122  1.00  0.00    -0.248 NA
HETATM   20  C10 UNL     1      25.694   4.516  50.087  1.00  0.00     0.107 A 
HETATM   21  C9  UNL     1      24.644   4.868  51.036  1.00  0.00     0.271 A 
HETATM   22  C25 UNL     1      26.392   3.193  50.146  1.00  0.00     0.106 A 
HETATM   23  N1  UNL     1      24.243   3.941  52.058  1.00  0.00    -0.321 N 
HETATM   24  O3  UNL     1      24.158   5.997  50.875  1.00  0.00    -0.266 OA
HETATM   25  C7  UNL     1      24.879   2.655  52.149  1.00  0.00     0.042 A 
HETATM   26  H7  UNL     1      23.486   4.230  52.718  1.00  0.00     0.169 HD
HETATM   27  C6  UNL     1      25.871   2.343  51.242  1.00  0.00    -0.025 A 
HETATM   28  C8  UNL     1      24.502   1.752  53.121  1.00  0.00     0.047 A 
HETATM   29  C5  UNL     1      26.488   1.094  51.325  1.00  0.00     0.011 A 
HETATM   30  C4  UNL     1      26.137   0.182  52.273  1.00  0.00     0.018 A 
HETATM   31  C3  UNL     1      25.141   0.536  53.160  1.00  0.00     0.041 A 
BRANCH  31  32
HETATM   32  C2  UNL     1      24.738  -0.429  54.196  1.00  0.00     0.293 C 
HETATM   33  O2  UNL     1      25.433  -1.129  54.977  1.00  0.00    -0.259 OA
BRANCH  32  34
HETATM   34  O1  UNL     1      23.405  -0.705  54.457  1.00  0.00    -0.323 OA
HETATM   35  C1  UNL     1      22.499  -1.165  53.476  1.00  0.00     0.213 C 
ENDBRANCH  32  34
ENDBRANCH  31  32
ENDBRANCH   1  19
TORSDOF 3
ENDMDL
MODEL 3
REMARK VINA RESULT:      -9.0      2.313      4.661
REMARK  3 active torsions:
REMARK  status: ('A' for Active; 'I' for Inactive)
REMARK    1  A    between atoms: O1_2  and  C2_3 
REMARK    2  A    between atoms: C2_3  and  C3_5 
REMARK    3  A    between atoms: N2_15  and  C11_16 
ROOT
HETATM    1  C11 UNL     1      22.613   4.905  49.443  1.00  0.00     0.057 C 
HETATM    2  C12 UNL     1      22.620   6.022  50.151  1.00  0.00     0.033 C 
HETATM    3  C13 UNL     1      22.600   7.455  50.333  1.00  0.00     0.020 C 
HETATM    4  C14 UNL     1      22.573   8.589  49.644  1.00  0.00     0.093 C 
HETATM    5  N3  UNL     1      22.579   8.207  48.276  1.00  0.00    -0.331 N 
HETATM    6  C15 UNL     1      23.763   8.755  47.725  1.00  0.00     0.158 C 
HETATM    7  C16 UNL     1      21.707   7.456  47.449  1.00  0.00     0.251 C 
HETATM    8  O4  UNL     1      21.169   7.602  48.558  1.00  0.00    -0.271 OA
HETATM    9  C17 UNL     1      22.252   7.202  46.057  1.00  0.00     0.376 C 
HETATM   10  N4  UNL     1      21.372   6.312  45.344  1.00  0.00     0.108 N 
HETATM   11  C18 UNL     1      21.421   6.727  43.943  1.00  0.00     0.304 C 
HETATM   12  C19 UNL     1      20.846   5.651  43.049  1.00  0.00     0.302 C 
HETATM   13  N5  UNL     1      20.040   4.708  43.794  1.00  0.00     0.088 N 
HETATM   14  C20 UNL     1      18.937   5.433  44.377  1.00  0.00     0.310 C 
HETATM   15  C21 UNL     1      20.860   4.021  44.733  1.00  0.00     0.311 C 
HETATM   16  C22 UNL     1      21.872   4.930  45.414  1.00  0.00     0.274 C 
HETATM   17  C23 UNL     1      22.178   4.433  46.742  1.00  0.00     0.013 C 
HETATM   18  C24 UNL     1      22.432   4.354  48.078  1.00  0.00     0.029 C 
ENDROOT
BRANCH   1  19
HETATM   19  N2  UNL     1      22.689   3.787  50.353  1.00  0.00    -0.248 NA
HETATM   20  C10 UNL     1      23.742   3.132  50.612  1.00  0.00     0.107 A 
HETATM   21  C9  UNL     1      25.099   3.299  50.102  1.00  0.00     0.271 A 
HETATM   22  C25 UNL     1      23.404   2.062  51.603  1.00  0.00     0.106 A 
HETATM   23  N1  UNL     1      26.158   2.437  50.549  1.00  0.00    -0.321 N 
HETATM   24  O3  UNL     1      25.233   4.219  49.283  1.00  0.00    -0.266 OA
HETATM   25  C7  UNL     1      25.882   1.400  51.506  1.00  0.00     0.042 A 
HETATM   26  H7  UNL     1      27.116   2.590  50.160  1.00  0.00     0.169 HD
HETATM   27  C6  UNL     1      24.593   1.259  51.974  1.00  0.00    -0.025 A 
HETATM   28  C8  UNL     1      26.889   0.568  51.948  1.00  0.00     0.047 A 
HETATM   29  C5  UNL     1      24.323   0.256  52.906  1.00  0.00     0.011 A 
HETATM   30  C4  UNL     1      25.296  -0.582  53.362  1.00  0.00     0.018 A 
HETATM   31  C3  UNL     1      26.572  -0.404  52.866  1.00  0.00     0.041 A 
BRANCH  31  32
HETATM   32  C2  UNL     1      27.645  -1.292  53.340  1.00  0.00     0.293 C 
HETATM   33  O2  UNL     1      27.842  -2.519  53.139  1.00  0.00    -0.259 OA
BRANCH  32  34
HETATM   34  O1  UNL     1      28.673  -0.828  54.146  1.00  0.00    -0.323 OA
HETATM   35  C1  UNL     1      29.988  -0.609  53.682  1.00  0.00     0.213 C 
ENDBRANCH  32  34
ENDBRANCH  31  32
ENDBRANCH   1  19
TORSDOF 3
ENDMDL
MODEL 4
REMARK VINA RESULT:      -8.7      1.569      4.052
REMARK  3 active torsions:
REMARK  status: ('A' for Active; 'I' for Inactive)
REMARK    1  A    between atoms: O1_2  and  C2_3 
REMARK    2  A    between atoms: C2_3  and  C3_5 
REMARK    3  A    between atoms: N2_15  and  C11_16 
ROOT
HETATM    1  C11 UNL     1      24.170   6.523  49.379  1.00  0.00     0.057 C 
HETATM    2  C12 UNL     1      24.866   7.511  49.916  1.00  0.00     0.033 C 
HETATM    3  C13 UNL     1      25.545   8.787  49.910  1.00  0.00     0.020 C 
HETATM    4  C14 UNL     1      25.856   9.794  49.104  1.00  0.00     0.093 C 
HETATM    5  N3  UNL     1      25.332   9.443  47.831  1.00  0.00    -0.331 N 
HETATM    6  C15 UNL     1      26.446   9.364  46.961  1.00  0.00     0.158 C 
HETATM    7  C16 UNL     1      24.033   9.184  47.328  1.00  0.00     0.251 C 
HETATM    8  O4  UNL     1      23.929   9.575  48.501  1.00  0.00    -0.271 OA
HETATM    9  C17 UNL     1      24.020   8.692  45.894  1.00  0.00     0.376 C 
HETATM   10  N4  UNL     1      22.681   8.314  45.519  1.00  0.00     0.108 N 
HETATM   11  C18 UNL     1      22.545   8.645  44.102  1.00  0.00     0.304 C 
HETATM   12  C19 UNL     1      21.336   7.959  43.508  1.00  0.00     0.302 C 
HETATM   13  N5  UNL     1      20.415   7.513  44.532  1.00  0.00     0.088 N 
HETATM   14  C20 UNL     1      19.955   8.676  45.250  1.00  0.00     0.310 C 
HETATM   15  C21 UNL     1      21.049   6.529  45.343  1.00  0.00     0.311 C 
HETATM   16  C22 UNL     1      22.501   6.860  45.653  1.00  0.00     0.274 C 
HETATM   17  C23 UNL     1      22.882   6.289  46.931  1.00  0.00     0.013 C 
HETATM   18  C24 UNL     1      23.411   6.110  48.173  1.00  0.00     0.029 C 
ENDROOT
BRANCH   1  19
HETATM   19  N2  UNL     1      23.966   5.509  50.386  1.00  0.00    -0.248 NA
HETATM   20  C10 UNL     1      24.725   4.512  50.576  1.00  0.00     0.107 A 
HETATM   21  C9  UNL     1      25.946   4.118  49.882  1.00  0.00     0.271 A 
HETATM   22  C25 UNL     1      24.173   3.705  51.710  1.00  0.00     0.106 A 
HETATM   23  N1  UNL     1      26.663   2.938  50.279  1.00  0.00    -0.321 N 
HETATM   24  O3  UNL     1      26.283   4.873  48.960  1.00  0.00    -0.266 OA
HETATM   25  C7  UNL     1      26.175   2.136  51.368  1.00  0.00     0.042 A 
HETATM   26  H7  UNL     1      27.534   2.690  49.757  1.00  0.00     0.169 HD
HETATM   27  C6  UNL     1      25.018   2.525  52.009  1.00  0.00    -0.025 A 
HETATM   28  C8  UNL     1      26.854   1.002  51.764  1.00  0.00     0.047 A 
HETATM   29  C5  UNL     1      24.544   1.751  53.069  1.00  0.00     0.011 A 
HETATM   30  C4  UNL     1      25.193   0.627  53.483  1.00  0.00     0.018 A 
HETATM   31  C3  UNL     1      26.346   0.274  52.813  1.00  0.00     0.041 A 
BRANCH  31  32
HETATM   32  C2  UNL     1      27.071  -0.934  53.237  1.00  0.00     0.293 C 
HETATM   33  O2  UNL     1      26.903  -2.142  52.925  1.00  0.00    -0.259 OA
BRANCH  32  34
HETATM   34  O1  UNL     1      28.134  -0.874  54.124  1.00  0.00    -0.323 OA
HETATM   35  C1  UNL     1      29.487  -0.870  53.718  1.00  0.00     0.213 C 
ENDBRANCH  32  34
ENDBRANCH  31  32
ENDBRANCH   1  19
TORSDOF 3
ENDMDL
MODEL 5
REMARK VINA RESULT:      -8.6      2.987      8.916
REMARK  3 active torsions:
REMARK  status: ('A' for Active; 'I' for Inactive)
REMARK    1  A    between atoms: O1_2  and  C2_3 
REMARK    2  A    between atoms: C2_3  and  C3_5 
REMARK    3  A    between atoms: N2_15  and  C11_16 
ROOT
HETATM    1  C11 UNL     1      23.678   4.665  49.529  1.00  0.00     0.057 C 
HETATM    2  C12 UNL     1      22.484   5.151  49.826  1.00  0.00     0.033 C 
HETATM    3  C13 UNL     1      21.185   5.133  50.458  1.00  0.00     0.020 C 
HETATM    4  C14 UNL     1      20.413   4.372  51.224  1.00  0.00     0.093 C 
HETATM    5  N3  UNL     1      21.160   3.187  51.465  1.00  0.00    -0.331 N 
HETATM    6  C15 UNL     1      20.398   2.129  50.912  1.00  0.00     0.158 C 
HETATM    7  C16 UNL     1      22.398   2.903  52.091  1.00  0.00     0.251 C 
HETATM    8  O4  UNL     1      22.139   4.104  52.261  1.00  0.00    -0.271 OA
HETATM    9  C17 UNL     1      22.835   1.458  51.953  1.00  0.00     0.376 C 
HETATM   10  N4  UNL     1      24.164   1.296  52.485  1.00  0.00     0.108 N 
HETATM   11  C18 UNL     1      24.208  -0.042  53.073  1.00  0.00     0.304 C 
HETATM   12  C19 UNL     1      25.637  -0.467  53.322  1.00  0.00     0.302 C 
HETATM   13  N5  UNL     1      26.542   0.663  53.317  1.00  0.00     0.088 N 
HETATM   14  C20 UNL     1      26.151   1.547  54.388  1.00  0.00     0.310 C 
HETATM   15  C21 UNL     1      26.545   1.262  52.026  1.00  0.00     0.311 C 
HETATM   16  C22 UNL     1      25.159   1.336  51.403  1.00  0.00     0.274 C 
HETATM   17  C23 UNL     1      25.074   2.473  50.506  1.00  0.00     0.013 C 
HETATM   18  C24 UNL     1      24.642   3.583  49.844  1.00  0.00     0.029 C 
ENDROOT
BRANCH   1  19
HETATM   19  N2  UNL     1      24.349   5.602  48.661  1.00  0.00    -0.248 NA
HETATM   20  C10 UNL     1      25.084   6.556  49.053  1.00  0.00     0.107 A 
HETATM   21  C9  UNL     1      25.448   6.964  50.406  1.00  0.00     0.271 A 
HETATM   22  C25 UNL     1      25.594   7.288  47.850  1.00  0.00     0.106 A 
HETATM   23  N1  UNL     1      26.319   8.087  50.621  1.00  0.00    -0.321 N 
HETATM   24  O3  UNL     1      24.948   6.274  51.305  1.00  0.00    -0.266 OA
HETATM   25  C7  UNL     1      26.839   8.815  49.496  1.00  0.00     0.042 A 
HETATM   26  H7  UNL     1      26.556   8.347  51.605  1.00  0.00     0.169 HD
HETATM   27  C6  UNL     1      26.482   8.413  48.226  1.00  0.00    -0.025 A 
HETATM   28  C8  UNL     1      27.680   9.892  49.685  1.00  0.00     0.047 A 
HETATM   29  C5  UNL     1      26.989   9.116  47.132  1.00  0.00     0.011 A 
HETATM   30  C4  UNL     1      27.822  10.183  47.287  1.00  0.00     0.018 A 
HETATM   31  C3  UNL     1      28.152  10.550  48.575  1.00  0.00     0.041 A 
BRANCH  31  32
HETATM   32  C2  UNL     1      29.051  11.698  48.776  1.00  0.00     0.293 C 
HETATM   33  O2  UNL     1      30.289  11.814  48.581  1.00  0.00    -0.259 OA
BRANCH  32  34
HETATM   34  O1  UNL     1      28.586  12.913  49.254  1.00  0.00    -0.323 OA
HETATM   35  C1  UNL     1      27.624  13.698  48.580  1.00  0.00     0.213 C 
ENDBRANCH  32  34
ENDBRANCH  31  32
ENDBRANCH   1  19
TORSDOF 3
ENDMDL
MODEL 6
REMARK VINA RESULT:      -8.5      5.901      9.307
REMARK  3 active torsions:
REMARK  status: ('A' for Active; 'I' for Inactive)
REMARK    1  A    between atoms: O1_2  and  C2_3 
REMARK    2  A    between atoms: C2_3  and  C3_5 
REMARK    3  A    between atoms: N2_15  and  C11_16 
ROOT
HETATM    1  C11 UNL     1      21.833   0.852  51.246  1.00  0.00     0.057 C 
HETATM    2  C12 UNL     1      22.153   0.270  52.389  1.00  0.00     0.033 C 
HETATM    3  C13 UNL     1      23.049  -0.110  53.458  1.00  0.00     0.020 C 
HETATM    4  C14 UNL     1      24.317  -0.012  53.834  1.00  0.00     0.093 C 
HETATM    5  N3  UNL     1      24.970   0.710  52.798  1.00  0.00    -0.331 N 
HETATM    6  C15 UNL     1      25.956  -0.164  52.278  1.00  0.00     0.158 C 
HETATM    7  C16 UNL     1      24.827   2.008  52.248  1.00  0.00     0.251 C 
HETATM    8  O4  UNL     1      24.081   1.915  53.236  1.00  0.00    -0.271 OA
HETATM    9  C17 UNL     1      25.689   2.251  51.025  1.00  0.00     0.376 C 
HETATM   10  N4  UNL     1      25.369   3.533  50.450  1.00  0.00     0.108 N 
HETATM   11  C18 UNL     1      26.620   4.059  49.906  1.00  0.00     0.304 C 
HETATM   12  C19 UNL     1      26.348   5.205  48.958  1.00  0.00     0.302 C 
HETATM   13  N5  UNL     1      25.020   5.750  49.142  1.00  0.00     0.088 N 
HETATM   14  C20 UNL     1      24.935   6.261  50.488  1.00  0.00     0.310 C 
HETATM   15  C21 UNL     1      24.051   4.757  48.823  1.00  0.00     0.311 C 
HETATM   16  C22 UNL     1      24.431   3.373  49.328  1.00  0.00     0.274 C 
HETATM   17  C23 UNL     1      23.238   2.596  49.605  1.00  0.00     0.013 C 
HETATM   18  C24 UNL     1      22.328   1.768  50.189  1.00  0.00     0.029 C 
ENDROOT
BRANCH   1  19
HETATM   19  N2  UNL     1      20.436   0.603  50.982  1.00  0.00    -0.248 NA
HETATM   20  C10 UNL     1      19.496   1.419  51.218  1.00  0.00     0.107 A 
HETATM   21  C9  UNL     1      19.542   2.761  51.788  1.00  0.00     0.271 A 
HETATM   22  C25 UNL     1      18.204   0.789  50.800  1.00  0.00     0.106 A 
HETATM   23  N1  UNL     1      18.336   3.524  51.958  1.00  0.00    -0.321 N 
HETATM   24  O3  UNL     1      20.676   3.154  52.096  1.00  0.00    -0.266 OA
HETATM   25  C7  UNL     1      17.072   2.963  51.563  1.00  0.00     0.042 A 
HETATM   26  H7  UNL     1      18.410   4.482  52.369  1.00  0.00     0.169 HD
HETATM   27  C6  UNL     1      17.052   1.692  51.028  1.00  0.00    -0.025 A 
HETATM   28  C8  UNL     1      15.906   3.684  51.715  1.00  0.00     0.047 A 
HETATM   29  C5  UNL     1      15.827   1.146  50.640  1.00  0.00     0.011 A 
HETATM   30  C4  UNL     1      14.659   1.833  50.777  1.00  0.00     0.018 A 
HETATM   31  C3  UNL     1      14.726   3.101  51.318  1.00  0.00     0.041 A 
BRANCH  31  32
HETATM   32  C2  UNL     1      13.482   3.870  51.478  1.00  0.00     0.293 C 
HETATM   33  O2  UNL     1      12.949   4.732  50.732  1.00  0.00    -0.259 OA
BRANCH  32  34
HETATM   34  O1  UNL     1      12.666   3.715  52.588  1.00  0.00    -0.323 OA
HETATM   35  C1  UNL     1      12.902   4.358  53.823  1.00  0.00     0.213 C 
ENDBRANCH  32  34
ENDBRANCH  31  32
ENDBRANCH   1  19
TORSDOF 3
ENDMDL
MODEL 7
REMARK VINA RESULT:      -8.3      1.890      4.442
REMARK  3 active torsions:
REMARK  status: ('A' for Active; 'I' for Inactive)
REMARK    1  A    between atoms: O1_2  and  C2_3 
REMARK    2  A    between atoms: C2_3  and  C3_5 
REMARK    3  A    between atoms: N2_15  and  C11_16 
ROOT
HETATM    1  C11 UNL     1      25.861   6.301  48.673  1.00  0.00     0.057 C 
HETATM    2  C12 UNL     1      26.784   7.149  49.094  1.00  0.00     0.033 C 
HETATM    3  C13 UNL     1      27.383   8.454  49.260  1.00  0.00     0.020 C 
HETATM    4  C14 UNL     1      27.200   9.729  48.942  1.00  0.00     0.093 C 
HETATM    5  N3  UNL     1      26.007   9.765  48.172  1.00  0.00    -0.331 N 
HETATM    6  C15 UNL     1      26.381  10.261  46.899  1.00  0.00     0.158 C 
HETATM    7  C16 UNL     1      24.653   9.429  48.420  1.00  0.00     0.251 C 
HETATM    8  O4  UNL     1      25.285   9.327  49.483  1.00  0.00    -0.271 OA
HETATM    9  C17 UNL     1      23.769   9.510  47.191  1.00  0.00     0.376 C 
HETATM   10  N4  UNL     1      22.453   9.011  47.503  1.00  0.00     0.108 N 
HETATM   11  C18 UNL     1      21.517   9.803  46.706  1.00  0.00     0.304 C 
HETATM   12  C19 UNL     1      20.162   9.134  46.657  1.00  0.00     0.302 C 
HETATM   13  N5  UNL     1      20.011   8.150  47.708  1.00  0.00     0.088 N 
HETATM   14  C20 UNL     1      20.121   8.834  48.973  1.00  0.00     0.310 C 
HETATM   15  C21 UNL     1      20.956   7.103  47.516  1.00  0.00     0.311 C 
HETATM   16  C22 UNL     1      22.321   7.610  47.077  1.00  0.00     0.274 C 
HETATM   17  C23 UNL     1      23.361   6.707  47.535  1.00  0.00     0.013 C 
HETATM   18  C24 UNL     1      24.516   6.205  48.054  1.00  0.00     0.029 C 
ENDROOT
BRANCH   1  19
HETATM   19  N2  UNL     1      26.249   4.970  49.072  1.00  0.00    -0.248 NA
HETATM   20  C10 UNL     1      25.785   4.348  50.073  1.00  0.00     0.107 A 
HETATM   21  C9  UNL     1      24.789   4.763  51.055  1.00  0.00     0.271 A 
HETATM   22  C25 UNL     1      26.436   3.001  50.140  1.00  0.00     0.106 A 
HETATM   23  N1  UNL     1      24.398   3.878  52.117  1.00  0.00    -0.321 N 
HETATM   24  O3  UNL     1      24.339   5.904  50.883  1.00  0.00    -0.266 OA
HETATM   25  C7  UNL     1      24.990   2.572  52.217  1.00  0.00     0.042 A 
HETATM   26  H7  UNL     1      23.680   4.212  52.800  1.00  0.00     0.169 HD
HETATM   27  C6  UNL     1      25.931   2.200  51.279  1.00  0.00    -0.025 A 
HETATM   28  C8  UNL     1      24.622   1.709  53.228  1.00  0.00     0.047 A 
HETATM   29  C5  UNL     1      26.505   0.931  51.370  1.00  0.00     0.011 A 
HETATM   30  C4  UNL     1      26.162   0.057  52.357  1.00  0.00     0.018 A 
HETATM   31  C3  UNL     1      25.217   0.471  53.274  1.00  0.00     0.041 A 
BRANCH  31  32
HETATM   32  C2  UNL     1      24.824  -0.451  54.351  1.00  0.00     0.293 C 
HETATM   33  O2  UNL     1      25.473  -0.878  55.342  1.00  0.00    -0.259 OA
BRANCH  32  34
HETATM   34  O1  UNL     1      23.558  -1.013  54.404  1.00  0.00    -0.323 OA
HETATM   35  C1  UNL     1      22.659  -1.011  53.315  1.00  0.00     0.213 C 
ENDBRANCH  32  34
ENDBRANCH  31  32
ENDBRANCH   1  19
TORSDOF 3
ENDMDL
MODEL 8
REMARK VINA RESULT:      -8.1      3.652      4.724
REMARK  3 active torsions:
REMARK  status: ('A' for Active; 'I' for Inactive)
REMARK    1  A    between atoms: O1_2  and  C2_3 
REMARK    2  A    between atoms: C2_3  and  C3_5 
REMARK    3  A    between atoms: N2_15  and  C11_16 
ROOT
HETATM    1  C11 UNL     1      22.382   5.019  48.132  1.00  0.00     0.057 C 
HETATM    2  C12 UNL     1      22.264   4.328  47.011  1.00  0.00     0.033 C 
HETATM    3  C13 UNL     1      21.603   3.908  45.796  1.00  0.00     0.020 C 
HETATM    4  C14 UNL     1      20.487   4.094  45.104  1.00  0.00     0.093 C 
HETATM    5  N3  UNL     1      19.714   5.014  45.862  1.00  0.00    -0.331 N 
HETATM    6  C15 UNL     1      18.521   4.331  46.203  1.00  0.00     0.158 C 
HETATM    7  C16 UNL     1      19.901   6.351  46.294  1.00  0.00     0.251 C 
HETATM    8  O4  UNL     1      20.839   6.045  45.541  1.00  0.00    -0.271 OA
HETATM    9  C17 UNL     1      18.816   6.848  47.229  1.00  0.00     0.376 C 
HETATM   10  N4  UNL     1      19.165   8.152  47.732  1.00  0.00     0.108 N 
HETATM   11  C18 UNL     1      17.906   8.880  47.886  1.00  0.00     0.304 C 
HETATM   12  C19 UNL     1      18.102  10.105  48.749  1.00  0.00     0.302 C 
HETATM   13  N5  UNL     1      19.498  10.473  48.851  1.00  0.00     0.088 N 
HETATM   14  C20 UNL     1      19.970  10.787  47.524  1.00  0.00     0.310 C 
HETATM   15  C21 UNL     1      20.216   9.431  49.504  1.00  0.00     0.311 C 
HETATM   16  C22 UNL     1      19.778   8.043  49.064  1.00  0.00     0.274 C 
HETATM   17  C23 UNL     1      20.884   7.110  49.178  1.00  0.00     0.013 C 
HETATM   18  C24 UNL     1      21.783   6.117  48.930  1.00  0.00     0.029 C 
ENDROOT
BRANCH   1  19
HETATM   19  N2  UNL     1      23.628   4.657  48.763  1.00  0.00    -0.248 NA
HETATM   20  C10 UNL     1      23.768   3.726  49.611  1.00  0.00     0.107 A 
HETATM   21  C9  UNL     1      22.780   2.807  50.166  1.00  0.00     0.271 A 
HETATM   22  C25 UNL     1      25.208   3.668  50.018  1.00  0.00     0.106 A 
HETATM   23  N1  UNL     1      23.169   1.806  51.121  1.00  0.00    -0.321 N 
HETATM   24  O3  UNL     1      21.627   2.973  49.746  1.00  0.00    -0.266 OA
HETATM   25  C7  UNL     1      24.542   1.707  51.536  1.00  0.00     0.042 A 
HETATM   26  H7  UNL     1      22.432   1.166  51.494  1.00  0.00     0.169 HD
HETATM   27  C6  UNL     1      25.459   2.587  51.000  1.00  0.00    -0.025 A 
HETATM   28  C8  UNL     1      24.932   0.749  52.447  1.00  0.00     0.047 A 
HETATM   29  C5  UNL     1      26.794   2.490  51.397  1.00  0.00     0.011 A 
HETATM   30  C4  UNL     1      27.210   1.554  52.296  1.00  0.00     0.018 A 
HETATM   31  C3  UNL     1      26.258   0.695  52.806  1.00  0.00     0.041 A 
BRANCH  31  32
HETATM   32  C2  UNL     1      26.676  -0.327  53.778  1.00  0.00     0.293 C 
HETATM   33  O2  UNL     1      26.257  -0.575  54.939  1.00  0.00    -0.259 OA
BRANCH  32  34
HETATM   34  O1  UNL     1      27.687  -1.232  53.495  1.00  0.00    -0.323 OA
HETATM   35  C1  UNL     1      29.054  -0.974  53.741  1.00  0.00     0.213 C 
ENDBRANCH  32  34
ENDBRANCH  31  32
ENDBRANCH   1  19
TORSDOF 3
ENDMDL
MODEL 9
REMARK VINA RESULT:      -7.8      4.965      8.501
REMARK  3 active torsions:
REMARK  status: ('A' for Active; 'I' for Inactive)
REMARK    1  A    between atoms: O1_2  and  C2_3 
REMARK    2  A    between atoms: C2_3  and  C3_5 
REMARK    3  A    between atoms: N2_15  and  C11_16 
ROOT
HETATM    1  C11 UNL     1      30.593   7.407  47.662  1.00  0.00     0.057 C 
HETATM    2  C12 UNL     1      31.369   6.959  48.634  1.00  0.00     0.033 C 
HETATM    3  C13 UNL     1      32.560   6.350  49.183  1.00  0.00     0.020 C 
HETATM    4  C14 UNL     1      33.712   5.806  48.813  1.00  0.00     0.093 C 
HETATM    5  N3  UNL     1      33.723   5.857  47.394  1.00  0.00    -0.331 N 
HETATM    6  C15 UNL     1      33.790   4.511  46.957  1.00  0.00     0.158 C 
HETATM    7  C16 UNL     1      33.683   6.900  46.436  1.00  0.00     0.251 C 
HETATM    8  O4  UNL     1      33.777   7.406  47.565  1.00  0.00    -0.271 OA
HETATM    9  C17 UNL     1      33.564   6.411  45.005  1.00  0.00     0.376 C 
HETATM   10  N4  UNL     1      33.380   7.533  44.120  1.00  0.00     0.108 N 
HETATM   11  C18 UNL     1      34.060   7.185  42.874  1.00  0.00     0.304 C 
HETATM   12  C19 UNL     1      33.623   8.103  41.755  1.00  0.00     0.302 C 
HETATM   13  N5  UNL     1      32.998   9.307  42.260  1.00  0.00     0.088 N 
HETATM   14  C20 UNL     1      33.975  10.012  43.054  1.00  0.00     0.310 C 
HETATM   15  C21 UNL     1      31.804   8.964  42.957  1.00  0.00     0.311 C 
HETATM   16  C22 UNL     1      31.953   7.714  43.809  1.00  0.00     0.274 C 
HETATM   17  C23 UNL     1      31.059   7.777  44.950  1.00  0.00     0.013 C 
HETATM   18  C24 UNL     1      30.543   7.699  46.209  1.00  0.00     0.029 C 
ENDROOT
BRANCH   1  19
HETATM   19  N2  UNL     1      29.377   7.917  48.247  1.00  0.00    -0.248 NA
HETATM   20  C10 UNL     1      28.390   7.208  48.606  1.00  0.00     0.107 A 
HETATM   21  C9  UNL     1      28.201   5.763  48.538  1.00  0.00     0.271 A 
HETATM   22  C25 UNL     1      27.336   8.110  49.167  1.00  0.00     0.106 A 
HETATM   23  N1  UNL     1      26.989   5.162  49.020  1.00  0.00    -0.321 N 
HETATM   24  O3  UNL     1      29.152   5.140  48.044  1.00  0.00    -0.266 OA
HETATM   25  C7  UNL     1      25.951   5.988  49.575  1.00  0.00     0.042 A 
HETATM   26  H7  UNL     1      26.893   4.123  48.955  1.00  0.00     0.169 HD
HETATM   27  C6  UNL     1      26.150   7.351  49.629  1.00  0.00    -0.025 A 
HETATM   28  C8  UNL     1      24.784   5.425  50.047  1.00  0.00     0.047 A 
HETATM   29  C5  UNL     1      25.146   8.155  50.171  1.00  0.00     0.011 A 
HETATM   30  C4  UNL     1      23.982   7.629  50.644  1.00  0.00     0.018 A 
HETATM   31  C3  UNL     1      23.826   6.260  50.571  1.00  0.00     0.041 A 
BRANCH  31  32
HETATM   32  C2  UNL     1      22.580   5.661  51.076  1.00  0.00     0.293 C 
HETATM   33  O2  UNL     1      22.330   5.089  52.168  1.00  0.00    -0.259 OA
BRANCH  32  34
HETATM   34  O1  UNL     1      21.415   5.660  50.325  1.00  0.00    -0.323 OA
HETATM   35  C1  UNL     1      21.155   4.732  49.293  1.00  0.00     0.213 C 
ENDBRANCH  32  34
ENDBRANCH  31  32
ENDBRANCH   1  19
TORSDOF 3
ENDMDL
