MODEL 1
REMARK VINA RESULT:      -7.9      0.000      0.000
REMARK  7 active torsions:
REMARK  status: ('A' for Active; 'I' for Inactive)
REMARK    1  A    between atoms: O1_2  and  C2_3 
REMARK    2  A    between atoms: C5_6  and  C6_7 
REMARK    3  A    between atoms: C6_7  and  C7_8 
REMARK    4  A    between atoms: C6_7  and  C8_10 
REMARK    5  A    between atoms: C8_10  and  C9_11 
REMARK    6  A    between atoms: C9_11  and  C10_12 
REMARK    7  A    between atoms: C18_22  and  O2_23 
ROOT
HETATM    1  C6  UNL     1      22.341  -0.698  53.479  1.00  0.00     0.059 C 
ENDROOT
BRANCH   1   2
HETATM    2  C5  UNL     1      21.038  -0.490  52.860  1.00  0.00    -0.046 A 
HETATM    3  C4  UNL     1      20.703   0.208  51.749  1.00  0.00     0.011 A 
HETATM    4  C3  UNL     1      19.427   0.356  51.248  1.00  0.00     0.040 A 
HETATM    5  C2  UNL     1      18.395  -0.254  51.929  1.00  0.00     0.101 A 
HETATM    6  C18 UNL     1      18.668  -0.981  53.068  1.00  0.00     0.102 A 
HETATM    7  C17 UNL     1      19.964  -1.096  53.525  1.00  0.00     0.047 A 
BRANCH   5   8
HETATM    8  O1  UNL     1      17.080  -0.157  51.496  1.00  0.00    -0.353 OA
HETATM    9  C1  UNL     1      16.737  -0.012  50.132  1.00  0.00     0.210 C 
ENDBRANCH   5   8
BRANCH   6  10
HETATM   10  O2  UNL     1      17.596  -1.587  53.733  1.00  0.00    -0.353 OA
HETATM   11  C19 UNL     1      17.448  -2.984  53.561  1.00  0.00     0.210 C 
ENDBRANCH   6  10
ENDBRANCH   1   2
BRANCH   1  12
HETATM   12  C7  UNL     1      22.056  -1.354  54.831  1.00  0.00     0.089 C 
HETATM   13  N1  UNL     1      23.019  -1.555  55.677  1.00  0.00    -0.316 NA
HETATM   14  H8  UNL     1      23.992  -1.287  55.478  1.00  0.00     0.185 HD
ENDBRANCH   1  12
BRANCH   1  15
HETATM   15  C8  UNL     1      23.195   0.489  53.696  1.00  0.00     0.021 C 
BRANCH  15  16
HETATM   16  C9  UNL     1      24.083   0.839  52.524  1.00  0.00     0.068 C 
BRANCH  16  17
HETATM   17  C10 UNL     1      25.478   0.346  52.774  1.00  0.00     0.076 A 
HETATM   18  N2  UNL     1      26.097  -0.677  52.738  1.00  0.00    -0.245 NA
HETATM   19  C11 UNL     1      27.396  -0.779  53.036  1.00  0.00     0.074 A 
HETATM   20  C12 UNL     1      28.138  -1.942  53.005  1.00  0.00     0.033 A 
HETATM   21  C16 UNL     1      28.081   0.352  53.410  1.00  0.00     0.035 A 
HETATM   22  C13 UNL     1      29.460  -1.919  53.332  1.00  0.00     0.002 A 
HETATM   23  C14 UNL     1      30.163  -0.778  53.711  1.00  0.00     0.002 A 
HETATM   24  C15 UNL     1      29.421   0.384  53.743  1.00  0.00     0.021 A 
HETATM   25  S1  UNL     1      26.766   1.588  53.315  1.00  0.00    -0.073 SA
ENDBRANCH  16  17
ENDBRANCH  15  16
ENDBRANCH   1  15
TORSDOF 7
ENDMDL
MODEL 2
REMARK VINA RESULT:      -7.9      5.477      7.690
REMARK  7 active torsions:
REMARK  status: ('A' for Active; 'I' for Inactive)
REMARK    1  A    between atoms: O1_2  and  C2_3 
REMARK    2  A    between atoms: C5_6  and  C6_7 
REMARK    3  A    between atoms: C6_7  and  C7_8 
REMARK    4  A    between atoms: C6_7  and  C8_10 
REMARK    5  A    between atoms: C8_10  and  C9_11 
REMARK    6  A    between atoms: C9_11  and  C10_12 
REMARK    7  A    between atoms: C18_22  and  O2_23 
ROOT
HETATM    1  C6  UNL     1      24.052   3.777  51.180  1.00  0.00     0.059 C 
ENDROOT
BRANCH   1   2
HETATM    2  C5  UNL     1      25.138   4.267  50.341  1.00  0.00    -0.046 A 
HETATM    3  C4  UNL     1      26.168   3.598  49.772  1.00  0.00     0.011 A 
HETATM    4  C3  UNL     1      27.161   4.161  48.998  1.00  0.00     0.040 A 
HETATM    5  C2  UNL     1      27.111   5.521  48.778  1.00  0.00     0.101 A 
HETATM    6  C18 UNL     1      26.087   6.261  49.329  1.00  0.00     0.102 A 
HETATM    7  C17 UNL     1      25.120   5.647  50.096  1.00  0.00     0.047 A 
BRANCH   5   8
HETATM    8  O1  UNL     1      28.069   6.170  48.012  1.00  0.00    -0.353 OA
HETATM    9  C1  UNL     1      29.442   5.837  48.069  1.00  0.00     0.210 C 
ENDBRANCH   5   8
BRANCH   6  10
HETATM   10  O2  UNL     1      26.068   7.639  49.085  1.00  0.00    -0.353 OA
HETATM   11  C19 UNL     1      26.580   8.474  50.107  1.00  0.00     0.210 C 
ENDBRANCH   6  10
ENDBRANCH   1   2
BRANCH   1  12
HETATM   12  C7  UNL     1      23.241   5.014  51.570  1.00  0.00     0.089 C 
HETATM   13  N1  UNL     1      22.945   5.238  52.813  1.00  0.00    -0.316 NA
HETATM   14  H8  UNL     1      23.238   4.606  53.572  1.00  0.00     0.185 HD
ENDBRANCH   1  12
BRANCH   1  15
HETATM   15  C8  UNL     1      24.414   3.038  52.409  1.00  0.00     0.021 C 
BRANCH  15  16
HETATM   16  C9  UNL     1      24.247   1.540  52.306  1.00  0.00     0.068 C 
BRANCH  16  17
HETATM   17  C10 UNL     1      25.551   0.858  52.596  1.00  0.00     0.076 A 
HETATM   18  N2  UNL     1      26.023  -0.242  52.578  1.00  0.00    -0.245 NA
HETATM   19  C11 UNL     1      27.285  -0.522  52.914  1.00  0.00     0.074 A 
HETATM   20  C12 UNL     1      27.858  -1.777  52.904  1.00  0.00     0.033 A 
HETATM   21  C16 UNL     1      28.110   0.504  53.309  1.00  0.00     0.035 A 
HETATM   22  C13 UNL     1      29.161  -1.937  53.270  1.00  0.00     0.002 A 
HETATM   23  C14 UNL     1      30.004  -0.905  53.671  1.00  0.00     0.002 A 
HETATM   24  C15 UNL     1      29.431   0.349  53.681  1.00  0.00     0.021 A 
HETATM   25  S1  UNL     1      26.983   1.910  53.176  1.00  0.00    -0.073 SA
ENDBRANCH  16  17
ENDBRANCH  15  16
ENDBRANCH   1  15
TORSDOF 7
ENDMDL
MODEL 3
REMARK VINA RESULT:      -7.8      5.181      7.722
REMARK  7 active torsions:
REMARK  status: ('A' for Active; 'I' for Inactive)
REMARK    1  A    between atoms: O1_2  and  C2_3 
REMARK    2  A    between atoms: C5_6  and  C6_7 
REMARK    3  A    between atoms: C6_7  and  C7_8 
REMARK    4  A    between atoms: C6_7  and  C8_10 
REMARK    5  A    between atoms: C8_10  and  C9_11 
REMARK    6  A    between atoms: C9_11  and  C10_12 
REMARK    7  A    between atoms: C18_22  and  O2_23 
ROOT
HETATM    1  C6  UNL     1      23.559   1.510  52.619  1.00  0.00     0.059 C 
ENDROOT
BRANCH   1   2
HETATM    2  C5  UNL     1      24.769   0.792  52.998  1.00  0.00    -0.046 A 
HETATM    3  C4  UNL     1      25.062  -0.528  52.912  1.00  0.00     0.011 A 
HETATM    4  C3  UNL     1      26.243  -1.116  53.312  1.00  0.00     0.040 A 
HETATM    5  C2  UNL     1      27.217  -0.301  53.848  1.00  0.00     0.101 A 
HETATM    6  C18 UNL     1      26.983   1.052  53.964  1.00  0.00     0.102 A 
HETATM    7  C17 UNL     1      25.783   1.589  53.548  1.00  0.00     0.047 A 
BRANCH   5   8
HETATM    8  O1  UNL     1      28.435  -0.809  54.278  1.00  0.00    -0.353 OA
HETATM    9  C1  UNL     1      29.487  -1.120  53.385  1.00  0.00     0.210 C 
ENDBRANCH   5   8
BRANCH   6  10
HETATM   10  O2  UNL     1      27.995   1.849  54.513  1.00  0.00    -0.353 OA
HETATM   11  C19 UNL     1      28.791   2.584  53.602  1.00  0.00     0.210 C 
ENDBRANCH   6  10
ENDBRANCH   1   2
BRANCH   1  12
HETATM   12  C7  UNL     1      22.420   0.499  52.754  1.00  0.00     0.089 C 
HETATM   13  N1  UNL     1      21.826   0.331  53.895  1.00  0.00    -0.316 NA
HETATM   14  H8  UNL     1      22.092   0.859  54.738  1.00  0.00     0.185 HD
ENDBRANCH   1  12
BRANCH   1  15
HETATM   15  C8  UNL     1      23.510   2.106  51.267  1.00  0.00     0.021 C 
BRANCH  15  16
HETATM   16  C9  UNL     1      23.274   3.599  51.252  1.00  0.00     0.068 C 
BRANCH  16  17
HETATM   17  C10 UNL     1      24.402   4.289  50.543  1.00  0.00     0.076 A 
HETATM   18  N2  UNL     1      24.719   5.391  50.202  1.00  0.00    -0.245 NA
HETATM   19  C11 UNL     1      25.850   5.679  49.552  1.00  0.00     0.074 A 
HETATM   20  C12 UNL     1      26.244   6.937  49.146  1.00  0.00     0.033 A 
HETATM   21  C16 UNL     1      26.718   4.659  49.247  1.00  0.00     0.035 A 
HETATM   22  C13 UNL     1      27.425   7.106  48.488  1.00  0.00     0.002 A 
HETATM   23  C14 UNL     1      28.311   6.079  48.174  1.00  0.00     0.002 A 
HETATM   24  C15 UNL     1      27.916   4.821  48.580  1.00  0.00     0.021 A 
HETATM   25  S1  UNL     1      25.831   3.245  49.941  1.00  0.00    -0.073 SA
ENDBRANCH  16  17
ENDBRANCH  15  16
ENDBRANCH   1  15
TORSDOF 7
ENDMDL
MODEL 4
REMARK VINA RESULT:      -7.7      4.919      7.018
REMARK  7 active torsions:
REMARK  status: ('A' for Active; 'I' for Inactive)
REMARK    1  A    between atoms: O1_2  and  C2_3 
REMARK    2  A    between atoms: C5_6  and  C6_7 
REMARK    3  A    between atoms: C6_7  and  C7_8 
REMARK    4  A    between atoms: C6_7  and  C8_10 
REMARK    5  A    between atoms: C8_10  and  C9_11 
REMARK    6  A    between atoms: C9_11  and  C10_12 
REMARK    7  A    between atoms: C18_22  and  O2_23 
ROOT
HETATM    1  C6  UNL     1      22.981   1.367  51.906  1.00  0.00     0.059 C 
ENDROOT
BRANCH   1   2
HETATM    2  C5  UNL     1      24.260   0.879  52.406  1.00  0.00    -0.046 A 
HETATM    3  C4  UNL     1      25.510   1.049  51.913  1.00  0.00     0.011 A 
HETATM    4  C3  UNL     1      26.665   0.531  52.459  1.00  0.00     0.040 A 
HETATM    5  C2  UNL     1      26.551  -0.227  53.605  1.00  0.00     0.101 A 
HETATM    6  C18 UNL     1      25.306  -0.439  54.158  1.00  0.00     0.102 A 
HETATM    7  C17 UNL     1      24.183   0.103  53.570  1.00  0.00     0.047 A 
BRANCH   5   8
HETATM    8  O1  UNL     1      27.661  -0.788  54.221  1.00  0.00    -0.353 OA
HETATM    9  C1  UNL     1      28.737  -0.008  54.705  1.00  0.00     0.210 C 
ENDBRANCH   5   8
BRANCH   6  10
HETATM   10  O2  UNL     1      25.228  -1.213  55.322  1.00  0.00    -0.353 OA
HETATM   11  C19 UNL     1      23.931  -1.491  55.815  1.00  0.00     0.210 C 
ENDBRANCH   6  10
ENDBRANCH   1   2
BRANCH   1  12
HETATM   12  C7  UNL     1      21.975   0.250  52.186  1.00  0.00     0.089 C 
HETATM   13  N1  UNL     1      20.743   0.536  52.474  1.00  0.00    -0.316 NA
HETATM   14  H8  UNL     1      20.399   1.505  52.524  1.00  0.00     0.185 HD
ENDBRANCH   1  12
BRANCH   1  15
HETATM   15  C8  UNL     1      22.899   1.734  50.476  1.00  0.00     0.021 C 
BRANCH  15  16
HETATM   16  C9  UNL     1      22.616   3.198  50.225  1.00  0.00     0.068 C 
BRANCH  16  17
HETATM   17  C10 UNL     1      23.868   3.891  49.771  1.00  0.00     0.076 A 
HETATM   18  N2  UNL     1      25.025   3.647  49.594  1.00  0.00    -0.245 NA
HETATM   19  C11 UNL     1      25.922   4.538  49.161  1.00  0.00     0.074 A 
HETATM   20  C12 UNL     1      27.262   4.289  48.948  1.00  0.00     0.033 A 
HETATM   21  C16 UNL     1      25.508   5.821  48.898  1.00  0.00     0.035 A 
HETATM   22  C13 UNL     1      28.080   5.283  48.504  1.00  0.00     0.002 A 
HETATM   23  C14 UNL     1      27.670   6.586  48.233  1.00  0.00     0.002 A 
HETATM   24  C15 UNL     1      26.331   6.834  48.448  1.00  0.00     0.021 A 
HETATM   25  S1  UNL     1      23.751   5.697  49.303  1.00  0.00    -0.073 SA
ENDBRANCH  16  17
ENDBRANCH  15  16
ENDBRANCH   1  15
TORSDOF 7
ENDMDL
MODEL 5
REMARK VINA RESULT:      -7.7      4.543      6.967
REMARK  7 active torsions:
REMARK  status: ('A' for Active; 'I' for Inactive)
REMARK    1  A    between atoms: O1_2  and  C2_3 
REMARK    2  A    between atoms: C5_6  and  C6_7 
REMARK    3  A    between atoms: C6_7  and  C7_8 
REMARK    4  A    between atoms: C6_7  and  C8_10 
REMARK    5  A    between atoms: C8_10  and  C9_11 
REMARK    6  A    between atoms: C9_11  and  C10_12 
REMARK    7  A    between atoms: C18_22  and  O2_23 
ROOT
HETATM    1  C6  UNL     1      22.575   1.048  52.690  1.00  0.00     0.059 C 
ENDROOT
BRANCH   1   2
HETATM    2  C5  UNL     1      23.959   1.123  53.137  1.00  0.00    -0.046 A 
HETATM    3  C4  UNL     1      24.720   2.202  53.439  1.00  0.00     0.011 A 
HETATM    4  C3  UNL     1      26.037   2.168  53.846  1.00  0.00     0.040 A 
HETATM    5  C2  UNL     1      26.643   0.935  53.959  1.00  0.00     0.101 A 
HETATM    6  C18 UNL     1      25.924  -0.205  53.667  1.00  0.00     0.102 A 
HETATM    7  C17 UNL     1      24.608  -0.113  53.264  1.00  0.00     0.047 A 
BRANCH   5   8
HETATM    8  O1  UNL     1      27.965   0.807  54.361  1.00  0.00    -0.353 OA
HETATM    9  C1  UNL     1      29.051   1.108  53.507  1.00  0.00     0.210 C 
ENDBRANCH   5   8
BRANCH   6  10
HETATM   10  O2  UNL     1      26.571  -1.439  53.793  1.00  0.00    -0.353 OA
HETATM   11  C19 UNL     1      26.938  -2.092  52.591  1.00  0.00     0.210 C 
ENDBRANCH   6  10
ENDBRANCH   1   2
BRANCH   1  12
HETATM   12  C7  UNL     1      21.955  -0.120  53.459  1.00  0.00     0.089 C 
HETATM   13  N1  UNL     1      21.033   0.097  54.346  1.00  0.00    -0.316 NA
HETATM   14  H8  UNL     1      20.689   1.042  54.564  1.00  0.00     0.185 HD
ENDBRANCH   1  12
BRANCH   1  15
HETATM   15  C8  UNL     1      22.331   0.849  51.245  1.00  0.00     0.021 C 
BRANCH  15  16
HETATM   16  C9  UNL     1      21.916   2.100  50.506  1.00  0.00     0.068 C 
BRANCH  16  17
HETATM   17  C10 UNL     1      23.131   2.876  50.090  1.00  0.00     0.076 A 
HETATM   18  N2  UNL     1      24.314   2.725  49.993  1.00  0.00    -0.245 NA
HETATM   19  C11 UNL     1      25.159   3.668  49.567  1.00  0.00     0.074 A 
HETATM   20  C12 UNL     1      26.525   3.525  49.445  1.00  0.00     0.033 A 
HETATM   21  C16 UNL     1      24.657   4.898  49.214  1.00  0.00     0.035 A 
HETATM   22  C13 UNL     1      27.285   4.564  48.997  1.00  0.00     0.002 A 
HETATM   23  C14 UNL     1      26.785   5.813  48.636  1.00  0.00     0.002 A 
HETATM   24  C15 UNL     1      25.419   5.955  48.760  1.00  0.00     0.021 A 
HETATM   25  S1  UNL     1      22.895   4.642  49.522  1.00  0.00    -0.073 SA
ENDBRANCH  16  17
ENDBRANCH  15  16
ENDBRANCH   1  15
TORSDOF 7
ENDMDL
MODEL 6
REMARK VINA RESULT:      -7.7      3.423      4.939
REMARK  7 active torsions:
REMARK  status: ('A' for Active; 'I' for Inactive)
REMARK    1  A    between atoms: O1_2  and  C2_3 
REMARK    2  A    between atoms: C5_6  and  C6_7 
REMARK    3  A    between atoms: C6_7  and  C7_8 
REMARK    4  A    between atoms: C6_7  and  C8_10 
REMARK    5  A    between atoms: C8_10  and  C9_11 
REMARK    6  A    between atoms: C9_11  and  C10_12 
REMARK    7  A    between atoms: C18_22  and  O2_23 
ROOT
HETATM    1  C6  UNL     1      24.613  -0.426  53.413  1.00  0.00     0.059 C 
ENDROOT
BRANCH   1   2
HETATM    2  C5  UNL     1      23.159  -0.496  53.477  1.00  0.00    -0.046 A 
HETATM    3  C4  UNL     1      22.354  -1.084  54.394  1.00  0.00     0.011 A 
HETATM    4  C3  UNL     1      20.977  -1.104  54.358  1.00  0.00     0.040 A 
HETATM    5  C2  UNL     1      20.352  -0.477  53.301  1.00  0.00     0.101 A 
HETATM    6  C18 UNL     1      21.113   0.141  52.332  1.00  0.00     0.102 A 
HETATM    7  C17 UNL     1      22.490   0.132  52.418  1.00  0.00     0.047 A 
BRANCH   5   8
HETATM    8  O1  UNL     1      18.970  -0.449  53.184  1.00  0.00    -0.353 OA
HETATM    9  C1  UNL     1      18.167  -1.597  53.381  1.00  0.00     0.210 C 
ENDBRANCH   5   8
BRANCH   6  10
HETATM   10  O2  UNL     1      20.445   0.768  51.274  1.00  0.00    -0.353 OA
HETATM   11  C19 UNL     1      20.669   2.157  51.114  1.00  0.00     0.210 C 
ENDBRANCH   6  10
ENDBRANCH   1   2
BRANCH   1  12
HETATM   12  C7  UNL     1      25.109  -0.865  54.792  1.00  0.00     0.089 C 
HETATM   13  N1  UNL     1      26.193  -0.356  55.290  1.00  0.00    -0.316 NA
HETATM   14  H8  UNL     1      26.752   0.349  54.789  1.00  0.00     0.185 HD
ENDBRANCH   1  12
BRANCH   1  15
HETATM   15  C8  UNL     1      25.223   0.880  53.081  1.00  0.00     0.021 C 
BRANCH  15  16
HETATM   16  C9  UNL     1      26.242   0.825  51.966  1.00  0.00     0.068 C 
BRANCH  16  17
HETATM   17  C10 UNL     1      26.203   2.099  51.174  1.00  0.00     0.076 A 
HETATM   18  N2  UNL     1      26.888   2.710  50.407  1.00  0.00    -0.245 NA
HETATM   19  C11 UNL     1      26.540   3.876  49.855  1.00  0.00     0.074 A 
HETATM   20  C12 UNL     1      27.306   4.604  48.968  1.00  0.00     0.033 A 
HETATM   21  C16 UNL     1      25.322   4.425  50.176  1.00  0.00     0.035 A 
HETATM   22  C13 UNL     1      26.841   5.785  48.472  1.00  0.00     0.002 A 
HETATM   23  C14 UNL     1      25.608   6.348  48.791  1.00  0.00     0.002 A 
HETATM   24  C15 UNL     1      24.843   5.620  49.677  1.00  0.00     0.021 A 
HETATM   25  S1  UNL     1      24.685   3.180  51.321  1.00  0.00    -0.073 SA
ENDBRANCH  16  17
ENDBRANCH  15  16
ENDBRANCH   1  15
TORSDOF 7
ENDMDL
MODEL 7
REMARK VINA RESULT:      -7.7      2.273      3.292
REMARK  7 active torsions:
REMARK  status: ('A' for Active; 'I' for Inactive)
REMARK    1  A    between atoms: O1_2  and  C2_3 
REMARK    2  A    between atoms: C5_6  and  C6_7 
REMARK    3  A    between atoms: C6_7  and  C7_8 
REMARK    4  A    between atoms: C6_7  and  C8_10 
REMARK    5  A    between atoms: C8_10  and  C9_11 
REMARK    6  A    between atoms: C9_11  and  C10_12 
REMARK    7  A    between atoms: C18_22  and  O2_23 
ROOT
HETATM    1  C6  UNL     1      22.169   2.544  52.416  1.00  0.00     0.059 C 
ENDROOT
BRANCH   1   2
HETATM    2  C5  UNL     1      21.284   1.417  52.686  1.00  0.00    -0.046 A 
HETATM    3  C4  UNL     1      20.084   1.102  52.143  1.00  0.00     0.011 A 
HETATM    4  C3  UNL     1      19.313   0.010  52.478  1.00  0.00     0.040 A 
HETATM    5  C2  UNL     1      19.795  -0.843  53.449  1.00  0.00     0.101 A 
HETATM    6  C18 UNL     1      21.011  -0.580  54.042  1.00  0.00     0.102 A 
HETATM    7  C17 UNL     1      21.742   0.529  53.668  1.00  0.00     0.047 A 
BRANCH   5   8
HETATM    8  O1  UNL     1      19.085  -1.966  53.849  1.00  0.00    -0.353 OA
HETATM    9  C1  UNL     1      17.732  -2.176  53.495  1.00  0.00     0.210 C 
ENDBRANCH   5   8
BRANCH   6  10
HETATM   10  O2  UNL     1      21.469  -1.467  55.023  1.00  0.00    -0.353 OA
HETATM   11  C19 UNL     1      22.843  -1.395  55.355  1.00  0.00     0.210 C 
ENDBRANCH   6  10
ENDBRANCH   1   2
BRANCH   1  12
HETATM   12  C7  UNL     1      21.558   3.270  51.217  1.00  0.00     0.089 C 
HETATM   13  N1  UNL     1      21.043   4.452  51.360  1.00  0.00    -0.316 NA
HETATM   14  H8  UNL     1      21.025   4.939  52.267  1.00  0.00     0.185 HD
ENDBRANCH   1  12
BRANCH   1  15
HETATM   15  C8  UNL     1      23.587   2.247  52.122  1.00  0.00     0.021 C 
BRANCH  15  16
HETATM   16  C9  UNL     1      24.561   2.790  53.142  1.00  0.00     0.068 C 
BRANCH  16  17
HETATM   17  C10 UNL     1      25.769   1.903  53.219  1.00  0.00     0.076 A 
HETATM   18  N2  UNL     1      26.945   1.989  53.426  1.00  0.00    -0.245 NA
HETATM   19  C11 UNL     1      27.785   0.950  53.421  1.00  0.00     0.074 A 
HETATM   20  C12 UNL     1      29.143   1.016  53.654  1.00  0.00     0.033 A 
HETATM   21  C16 UNL     1      27.288  -0.304  53.163  1.00  0.00     0.035 A 
HETATM   22  C13 UNL     1      29.899  -0.117  53.622  1.00  0.00     0.002 A 
HETATM   23  C14 UNL     1      29.404  -1.392  53.362  1.00  0.00     0.002 A 
HETATM   24  C15 UNL     1      28.046  -1.457  53.128  1.00  0.00     0.021 A 
HETATM   25  S1  UNL     1      25.536   0.072  52.925  1.00  0.00    -0.073 SA
ENDBRANCH  16  17
ENDBRANCH  15  16
ENDBRANCH   1  15
TORSDOF 7
ENDMDL
MODEL 8
REMARK VINA RESULT:      -7.4      5.526      7.032
REMARK  7 active torsions:
REMARK  status: ('A' for Active; 'I' for Inactive)
REMARK    1  A    between atoms: O1_2  and  C2_3 
REMARK    2  A    between atoms: C5_6  and  C6_7 
REMARK    3  A    between atoms: C6_7  and  C7_8 
REMARK    4  A    between atoms: C6_7  and  C8_10 
REMARK    5  A    between atoms: C8_10  and  C9_11 
REMARK    6  A    between atoms: C9_11  and  C10_12 
REMARK    7  A    between atoms: C18_22  and  O2_23 
ROOT
HETATM    1  C6  UNL     1      24.866   2.447  50.895  1.00  0.00     0.059 C 
ENDROOT
BRANCH   1   2
HETATM    2  C5  UNL     1      24.091   1.499  51.685  1.00  0.00    -0.046 A 
HETATM    3  C4  UNL     1      22.789   1.141  51.584  1.00  0.00     0.011 A 
HETATM    4  C3  UNL     1      22.140   0.235  52.396  1.00  0.00     0.040 A 
HETATM    5  C2  UNL     1      22.869  -0.364  53.401  1.00  0.00     0.101 A 
HETATM    6  C18 UNL     1      24.201  -0.044  53.559  1.00  0.00     0.102 A 
HETATM    7  C17 UNL     1      24.800   0.870  52.717  1.00  0.00     0.047 A 
BRANCH   5   8
HETATM    8  O1  UNL     1      22.297  -1.287  54.265  1.00  0.00    -0.353 OA
HETATM    9  C1  UNL     1      20.903  -1.523  54.311  1.00  0.00     0.210 C 
ENDBRANCH   5   8
BRANCH   6  10
HETATM   10  O2  UNL     1      24.910  -0.672  54.589  1.00  0.00    -0.353 OA
HETATM   11  C19 UNL     1      26.182  -0.137  54.904  1.00  0.00     0.210 C 
ENDBRANCH   6  10
ENDBRANCH   1   2
BRANCH   1  12
HETATM   12  C7  UNL     1      26.330   2.176  51.245  1.00  0.00     0.089 C 
HETATM   13  N1  UNL     1      27.186   3.150  51.284  1.00  0.00    -0.316 NA
HETATM   14  H8  UNL     1      26.920   4.125  51.085  1.00  0.00     0.185 HD
ENDBRANCH   1  12
BRANCH   1  15
HETATM   15  C8  UNL     1      24.590   3.887  51.087  1.00  0.00     0.021 C 
BRANCH  15  16
HETATM   16  C9  UNL     1      24.188   4.616  49.825  1.00  0.00     0.068 C 
BRANCH  16  17
HETATM   17  C10 UNL     1      25.386   5.283  49.215  1.00  0.00     0.076 A 
HETATM   18  N2  UNL     1      26.559   5.093  49.082  1.00  0.00    -0.245 NA
HETATM   19  C11 UNL     1      27.388   5.930  48.453  1.00  0.00     0.074 A 
HETATM   20  C12 UNL     1      28.744   5.740  48.284  1.00  0.00     0.033 A 
HETATM   21  C16 UNL     1      26.880   7.089  47.917  1.00  0.00     0.035 A 
HETATM   22  C13 UNL     1      29.488   6.670  47.621  1.00  0.00     0.002 A 
HETATM   23  C14 UNL     1      28.982   7.846  47.074  1.00  0.00     0.002 A 
HETATM   24  C15 UNL     1      27.627   8.036  47.244  1.00  0.00     0.021 A 
HETATM   25  S1  UNL     1      25.136   6.927  48.360  1.00  0.00    -0.073 SA
ENDBRANCH  16  17
ENDBRANCH  15  16
ENDBRANCH   1  15
TORSDOF 7
ENDMDL
MODEL 9
REMARK VINA RESULT:      -7.4      1.771      2.581
REMARK  7 active torsions:
REMARK  status: ('A' for Active; 'I' for Inactive)
REMARK    1  A    between atoms: O1_2  and  C2_3 
REMARK    2  A    between atoms: C5_6  and  C6_7 
REMARK    3  A    between atoms: C6_7  and  C7_8 
REMARK    4  A    between atoms: C6_7  and  C8_10 
REMARK    5  A    between atoms: C8_10  and  C9_11 
REMARK    6  A    between atoms: C9_11  and  C10_12 
REMARK    7  A    between atoms: C18_22  and  O2_23 
ROOT
HETATM    1  C6  UNL     1      21.964  -0.325  52.761  1.00  0.00     0.059 C 
ENDROOT
BRANCH   1   2
HETATM    2  C5  UNL     1      20.702   0.292  52.372  1.00  0.00    -0.046 A 
HETATM    3  C4  UNL     1      19.535  -0.278  51.988  1.00  0.00     0.011 A 
HETATM    4  C3  UNL     1      18.391   0.401  51.626  1.00  0.00     0.040 A 
HETATM    5  C2  UNL     1      18.426   1.779  51.652  1.00  0.00     0.101 A 
HETATM    6  C18 UNL     1      19.584   2.423  52.034  1.00  0.00     0.102 A 
HETATM    7  C17 UNL     1      20.700   1.694  52.387  1.00  0.00     0.047 A 
BRANCH   5   8
HETATM    8  O1  UNL     1      17.321   2.542  51.302  1.00  0.00    -0.353 OA
HETATM    9  C1  UNL     1      16.006   2.202  51.695  1.00  0.00     0.210 C 
ENDBRANCH   5   8
BRANCH   6  10
HETATM   10  O2  UNL     1      19.583   3.822  52.049  1.00  0.00    -0.353 OA
HETATM   11  C19 UNL     1      20.576   4.468  51.274  1.00  0.00     0.210 C 
ENDBRANCH   6  10
ENDBRANCH   1   2
BRANCH   1  12
HETATM   12  C7  UNL     1      21.607  -1.351  53.838  1.00  0.00     0.089 C 
HETATM   13  N1  UNL     1      21.234  -0.958  55.017  1.00  0.00    -0.316 NA
HETATM   14  H8  UNL     1      21.163   0.037  55.270  1.00  0.00     0.185 HD
ENDBRANCH   1  12
BRANCH   1  15
HETATM   15  C8  UNL     1      23.029   0.560  53.279  1.00  0.00     0.021 C 
BRANCH  15  16
HETATM   16  C9  UNL     1      24.008   1.035  52.231  1.00  0.00     0.068 C 
BRANCH  16  17
HETATM   17  C10 UNL     1      25.383   0.520  52.543  1.00  0.00     0.076 A 
HETATM   18  N2  UNL     1      25.977  -0.517  52.570  1.00  0.00    -0.245 NA
HETATM   19  C11 UNL     1      27.264  -0.636  52.910  1.00  0.00     0.074 A 
HETATM   20  C12 UNL     1      27.977  -1.816  52.952  1.00  0.00     0.033 A 
HETATM   21  C16 UNL     1      27.966   0.494  53.254  1.00  0.00     0.035 A 
HETATM   22  C13 UNL     1      29.290  -1.810  53.316  1.00  0.00     0.002 A 
HETATM   23  C14 UNL     1      30.010  -0.671  53.666  1.00  0.00     0.002 A 
HETATM   24  C15 UNL     1      29.296   0.508  53.624  1.00  0.00     0.021 A 
HETATM   25  S1  UNL     1      26.686   1.755  53.066  1.00  0.00    -0.073 SA
ENDBRANCH  16  17
ENDBRANCH  15  16
ENDBRANCH   1  15
TORSDOF 7
ENDMDL
