MODEL 1
REMARK VINA RESULT:      -8.4      0.000      0.000
REMARK  7 active torsions:
REMARK  status: ('A' for Active; 'I' for Inactive)
REMARK    1  A    between atoms: C3_3  and  N1_4 
REMARK    2  A    between atoms: N1_4  and  C4_5 
REMARK    3  A    between atoms: C11_16  and  C12_17 
REMARK    4  A    between atoms: C12_17  and  C13_18 
REMARK    5  A    between atoms: C13_18  and  C14_19 
REMARK    6  A    between atoms: C15_20  and  C16_21 
REMARK    7  A    between atoms: N5_24  and  C18_25 
ROOT
HETATM    1  C1  UNL     1      23.543   3.485  52.669  1.00  0.00     0.030 C 
HETATM    2  C2  UNL     1      23.204   3.025  51.498  1.00  0.00     0.029 A 
HETATM    3  C3  UNL     1      23.675   3.671  50.377  1.00  0.00     0.141 A 
HETATM    4  N2  UNL     1      23.288   3.145  49.213  1.00  0.00    -0.224 NA
HETATM    5  C10 UNL     1      22.502   2.069  49.154  1.00  0.00     0.235 A 
HETATM    6  N3  UNL     1      22.053   1.451  50.262  1.00  0.00    -0.241 NA
HETATM    7  C11 UNL     1      22.399   1.921  51.494  1.00  0.00     0.068 A 
ENDROOT
BRANCH   7   8
HETATM    8  C12 UNL     1      21.979   1.344  52.601  1.00  0.00     0.018 C 
BRANCH   8   9
HETATM    9  C13 UNL     1      22.270  -0.098  52.794  1.00  0.00     0.123 C 
BRANCH   9  10
HETATM   10  C14 UNL     1      23.701  -0.188  53.136  1.00  0.00    -0.097 C 
HETATM   11  C15 UNL     1      24.875  -0.270  53.423  1.00  0.00    -0.064 C 
BRANCH  11  12
HETATM   12  C16 UNL     1      26.272  -0.365  53.752  1.00  0.00     0.054 A 
HETATM   13  C17 UNL     1      26.751   0.134  54.962  1.00  0.00     0.161 A 
HETATM   14  N4  UNL     1      28.079  -0.127  54.921  1.00  0.00    -0.181 NA
HETATM   15  N5  UNL     1      28.375  -0.739  53.768  1.00  0.00    -0.251 N 
HETATM   16  C19 UNL     1      27.287  -0.915  52.997  1.00  0.00     0.137 A 
BRANCH  15  17
HETATM   17  C18 UNL     1      29.735  -1.138  53.455  1.00  0.00     0.372 C 
HETATM   18  F2  UNL     1      30.534  -0.024  53.417  1.00  0.00    -0.232 F 
ENDBRANCH  15  17
ENDBRANCH  11  12
ENDBRANCH   9  10
ENDBRANCH   8   9
ENDBRANCH   7   8
BRANCH   3  19
HETATM   19  N1  UNL     1      24.507   4.809  50.506  1.00  0.00    -0.340 N 
HETATM   20  H3  UNL     1      24.266   5.485  51.289  1.00  0.00     0.167 HD
BRANCH  19  21
HETATM   21  C4  UNL     1      25.626   5.178  49.732  1.00  0.00     0.035 A 
HETATM   22  C5  UNL     1      26.686   4.369  49.392  1.00  0.00     0.032 A 
HETATM   23  C6  UNL     1      27.773   4.736  48.638  1.00  0.00     0.046 A 
HETATM   24  C7  UNL     1      27.819   6.031  48.173  1.00  0.00     0.138 A 
HETATM   25  F1  UNL     1      28.871   6.442  47.425  1.00  0.00    -0.204 F 
HETATM   26  C8  UNL     1      26.799   6.881  48.477  1.00  0.00     0.074 A 
HETATM   27 CL1  UNL     1      26.873   8.522  47.879  1.00  0.00    -0.081 Cl
HETATM   28  C9  UNL     1      25.754   6.454  49.227  1.00  0.00     0.056 A 
ENDBRANCH  19  21
ENDBRANCH   3  19
TORSDOF 7
ENDMDL
MODEL 2
REMARK VINA RESULT:      -8.1      3.550      6.424
REMARK  7 active torsions:
REMARK  status: ('A' for Active; 'I' for Inactive)
REMARK    1  A    between atoms: C3_3  and  N1_4 
REMARK    2  A    between atoms: N1_4  and  C4_5 
REMARK    3  A    between atoms: C11_16  and  C12_17 
REMARK    4  A    between atoms: C12_17  and  C13_18 
REMARK    5  A    between atoms: C13_18  and  C14_19 
REMARK    6  A    between atoms: C15_20  and  C16_21 
REMARK    7  A    between atoms: N5_24  and  C18_25 
ROOT
HETATM    1  C1  UNL     1      22.512   1.785  49.837  1.00  0.00     0.030 C 
HETATM    2  C2  UNL     1      22.348   2.850  50.567  1.00  0.00     0.029 A 
HETATM    3  C3  UNL     1      21.490   2.785  51.642  1.00  0.00     0.141 A 
HETATM    4  N2  UNL     1      21.371   3.913  52.345  1.00  0.00    -0.224 NA
HETATM    5  C10 UNL     1      22.042   5.019  52.019  1.00  0.00     0.235 A 
HETATM    6  N3  UNL     1      22.878   5.062  50.966  1.00  0.00    -0.241 NA
HETATM    7  C11 UNL     1      23.059   3.955  50.192  1.00  0.00     0.068 A 
ENDROOT
BRANCH   7   8
HETATM    8  C12 UNL     1      23.868   3.959  49.152  1.00  0.00     0.018 C 
BRANCH   8   9
HETATM    9  C13 UNL     1      25.272   4.395  49.356  1.00  0.00     0.123 C 
BRANCH   9  10
HETATM   10  C14 UNL     1      25.890   3.393  50.245  1.00  0.00    -0.097 C 
HETATM   11  C15 UNL     1      26.394   2.576  50.982  1.00  0.00    -0.064 C 
BRANCH  11  12
HETATM   12  C16 UNL     1      26.990   1.596  51.851  1.00  0.00     0.054 A 
HETATM   13  C17 UNL     1      26.679   0.245  51.713  1.00  0.00     0.161 A 
HETATM   14  N4  UNL     1      27.410  -0.361  52.678  1.00  0.00    -0.181 NA
HETATM   15  N5  UNL     1      28.110   0.563  53.348  1.00  0.00    -0.251 N 
HETATM   16  C19 UNL     1      27.889   1.804  52.877  1.00  0.00     0.137 A 
BRANCH  15  17
HETATM   17  C18 UNL     1      28.986   0.194  54.444  1.00  0.00     0.372 C 
HETATM   18  F2  UNL     1      28.227  -0.101  55.548  1.00  0.00    -0.232 F 
ENDBRANCH  15  17
ENDBRANCH  11  12
ENDBRANCH   9  10
ENDBRANCH   8   9
ENDBRANCH   7   8
BRANCH   3  19
HETATM   19  N1  UNL     1      20.806   1.581  51.935  1.00  0.00    -0.340 N 
HETATM   20  H3  UNL     1      19.885   1.424  51.431  1.00  0.00     0.167 HD
BRANCH  19  21
HETATM   21  C4  UNL     1      21.179   0.544  52.815  1.00  0.00     0.035 A 
HETATM   22  C5  UNL     1      20.347  -0.412  53.350  1.00  0.00     0.032 A 
HETATM   23  C6  UNL     1      20.718  -1.419  54.207  1.00  0.00     0.046 A 
HETATM   24  C7  UNL     1      22.044  -1.488  54.573  1.00  0.00     0.138 A 
HETATM   25  F1  UNL     1      22.459  -2.463  55.417  1.00  0.00    -0.204 F 
HETATM   26  C8  UNL     1      22.917  -0.569  54.077  1.00  0.00     0.074 A 
HETATM   27 CL1  UNL     1      24.597  -0.671  54.551  1.00  0.00    -0.081 Cl
HETATM   28  C9  UNL     1      22.484   0.400  53.233  1.00  0.00     0.056 A 
ENDBRANCH  19  21
ENDBRANCH   3  19
TORSDOF 7
ENDMDL
MODEL 3
REMARK VINA RESULT:      -7.9      3.361      7.583
REMARK  7 active torsions:
REMARK  status: ('A' for Active; 'I' for Inactive)
REMARK    1  A    between atoms: C3_3  and  N1_4 
REMARK    2  A    between atoms: N1_4  and  C4_5 
REMARK    3  A    between atoms: C11_16  and  C12_17 
REMARK    4  A    between atoms: C12_17  and  C13_18 
REMARK    5  A    between atoms: C13_18  and  C14_19 
REMARK    6  A    between atoms: C15_20  and  C16_21 
REMARK    7  A    between atoms: N5_24  and  C18_25 
ROOT
HETATM    1  C1  UNL     1      26.463   2.974  50.276  1.00  0.00     0.030 C 
HETATM    2  C2  UNL     1      25.426   2.889  51.059  1.00  0.00     0.029 A 
HETATM    3  C3  UNL     1      25.630   2.631  52.396  1.00  0.00     0.141 A 
HETATM    4  N2  UNL     1      24.523   2.558  53.137  1.00  0.00    -0.224 NA
HETATM    5  C10 UNL     1      23.310   2.726  52.608  1.00  0.00     0.235 A 
HETATM    6  N3  UNL     1      23.131   2.979  51.299  1.00  0.00    -0.241 NA
HETATM    7  C11 UNL     1      24.207   3.070  50.467  1.00  0.00     0.068 A 
ENDROOT
BRANCH   7   8
HETATM    8  C12 UNL     1      24.072   3.315  49.180  1.00  0.00     0.018 C 
BRANCH   8   9
HETATM    9  C13 UNL     1      23.530   4.635  48.770  1.00  0.00     0.123 C 
BRANCH   9  10
HETATM   10  C14 UNL     1      24.642   5.595  48.897  1.00  0.00    -0.097 C 
HETATM   11  C15 UNL     1      25.561   6.376  49.001  1.00  0.00    -0.064 C 
BRANCH  11  12
HETATM   12  C16 UNL     1      26.647   7.313  49.116  1.00  0.00     0.054 A 
HETATM   13  C17 UNL     1      26.554   8.403  49.978  1.00  0.00     0.161 A 
HETATM   14  N4  UNL     1      27.736   9.046  49.823  1.00  0.00    -0.181 NA
HETATM   15  N5  UNL     1      28.485   8.386  48.931  1.00  0.00    -0.251 N 
HETATM   16  C19 UNL     1      27.858   7.295  48.455  1.00  0.00     0.137 A 
BRANCH  15  17
HETATM   17  C18 UNL     1      29.811   8.852  48.569  1.00  0.00     0.372 C 
HETATM   18  F2  UNL     1      30.681   8.571  49.590  1.00  0.00    -0.232 F 
ENDBRANCH  15  17
ENDBRANCH  11  12
ENDBRANCH   9  10
ENDBRANCH   8   9
ENDBRANCH   7   8
BRANCH   3  19
HETATM   19  N1  UNL     1      26.944   2.462  52.896  1.00  0.00    -0.340 N 
HETATM   20  H3  UNL     1      27.465   3.346  53.165  1.00  0.00     0.167 HD
BRANCH  19  21
HETATM   21  C4  UNL     1      27.669   1.268  53.089  1.00  0.00     0.035 A 
HETATM   22  C5  UNL     1      28.923   1.155  53.645  1.00  0.00     0.032 A 
HETATM   23  C6  UNL     1      29.623  -0.012  53.830  1.00  0.00     0.046 A 
HETATM   24  C7  UNL     1      29.027  -1.184  53.423  1.00  0.00     0.138 A 
HETATM   25  F1  UNL     1      29.678  -2.362  53.583  1.00  0.00    -0.204 F 
HETATM   26  C8  UNL     1      27.786  -1.138  52.864  1.00  0.00     0.074 A 
HETATM   27 CL1  UNL     1      27.043  -2.636  52.353  1.00  0.00    -0.081 Cl
HETATM   28  C9  UNL     1      27.149   0.049  52.711  1.00  0.00     0.056 A 
ENDBRANCH  19  21
ENDBRANCH   3  19
TORSDOF 7
ENDMDL
MODEL 4
REMARK VINA RESULT:      -7.8      2.268      3.226
REMARK  7 active torsions:
REMARK  status: ('A' for Active; 'I' for Inactive)
REMARK    1  A    between atoms: C3_3  and  N1_4 
REMARK    2  A    between atoms: N1_4  and  C4_5 
REMARK    3  A    between atoms: C11_16  and  C12_17 
REMARK    4  A    between atoms: C12_17  and  C13_18 
REMARK    5  A    between atoms: C13_18  and  C14_19 
REMARK    6  A    between atoms: C15_20  and  C16_21 
REMARK    7  A    between atoms: N5_24  and  C18_25 
ROOT
HETATM    1  C1  UNL     1      25.504   3.986  49.365  1.00  0.00     0.030 C 
HETATM    2  C2  UNL     1      25.149   5.127  49.883  1.00  0.00     0.029 A 
HETATM    3  C3  UNL     1      25.711   6.280  49.385  1.00  0.00     0.141 A 
HETATM    4  N2  UNL     1      25.300   7.410  49.963  1.00  0.00    -0.224 NA
HETATM    5  C10 UNL     1      24.406   7.409  50.953  1.00  0.00     0.235 A 
HETATM    6  N3  UNL     1      23.866   6.270  51.426  1.00  0.00    -0.241 NA
HETATM    7  C11 UNL     1      24.230   5.069  50.893  1.00  0.00     0.068 A 
ENDROOT
BRANCH   7   8
HETATM    8  C12 UNL     1      23.725   3.934  51.331  1.00  0.00     0.018 C 
BRANCH   8   9
HETATM    9  C13 UNL     1      23.629   3.728  52.797  1.00  0.00     0.123 C 
BRANCH   9  10
HETATM   10  C14 UNL     1      24.688   2.765  53.150  1.00  0.00    -0.097 C 
HETATM   11  C15 UNL     1      25.561   1.979  53.446  1.00  0.00    -0.064 C 
BRANCH  11  12
HETATM   12  C16 UNL     1      26.590   1.036  53.796  1.00  0.00     0.054 A 
HETATM   13  C17 UNL     1      26.517   0.318  54.987  1.00  0.00     0.161 A 
HETATM   14  N4  UNL     1      27.631  -0.452  54.975  1.00  0.00    -0.181 NA
HETATM   15  N5  UNL     1      28.323  -0.211  53.855  1.00  0.00    -0.251 N 
HETATM   16  C19 UNL     1      27.722   0.709  53.079  1.00  0.00     0.137 A 
BRANCH  15  17
HETATM   17  C18 UNL     1      29.569  -0.901  53.577  1.00  0.00     0.372 C 
HETATM   18  F2  UNL     1      30.524   0.019  53.227  1.00  0.00    -0.232 F 
ENDBRANCH  15  17
ENDBRANCH  11  12
ENDBRANCH   9  10
ENDBRANCH   8   9
ENDBRANCH   7   8
BRANCH   3  19
HETATM   19  N1  UNL     1      26.655   6.214  48.331  1.00  0.00    -0.340 N 
HETATM   20  H3  UNL     1      26.281   5.941  47.377  1.00  0.00     0.167 HD
BRANCH  19  21
HETATM   21  C4  UNL     1      28.042   6.464  48.372  1.00  0.00     0.035 A 
HETATM   22  C5  UNL     1      29.044   5.531  48.228  1.00  0.00     0.032 A 
HETATM   23  C6  UNL     1      30.394   5.781  48.269  1.00  0.00     0.046 A 
HETATM   24  C7  UNL     1      30.795   7.082  48.474  1.00  0.00     0.138 A 
HETATM   25  F1  UNL     1      32.116   7.380  48.523  1.00  0.00    -0.204 F 
HETATM   26  C8  UNL     1      29.850   8.051  48.624  1.00  0.00     0.074 A 
HETATM   27 CL1  UNL     1      30.376   9.698  48.884  1.00  0.00    -0.081 Cl
HETATM   28  C9  UNL     1      28.533   7.736  48.572  1.00  0.00     0.056 A 
ENDBRANCH  19  21
ENDBRANCH   3  19
TORSDOF 7
ENDMDL
MODEL 5
REMARK VINA RESULT:      -7.7      3.540      7.676
REMARK  7 active torsions:
REMARK  status: ('A' for Active; 'I' for Inactive)
REMARK    1  A    between atoms: C3_3  and  N1_4 
REMARK    2  A    between atoms: N1_4  and  C4_5 
REMARK    3  A    between atoms: C11_16  and  C12_17 
REMARK    4  A    between atoms: C12_17  and  C13_18 
REMARK    5  A    between atoms: C13_18  and  C14_19 
REMARK    6  A    between atoms: C15_20  and  C16_21 
REMARK    7  A    between atoms: N5_24  and  C18_25 
ROOT
HETATM    1  C1  UNL     1      26.427   2.821  50.661  1.00  0.00     0.030 C 
HETATM    2  C2  UNL     1      25.253   2.897  51.220  1.00  0.00     0.029 A 
HETATM    3  C3  UNL     1      25.107   2.435  52.508  1.00  0.00     0.141 A 
HETATM    4  N2  UNL     1      23.878   2.546  53.017  1.00  0.00    -0.224 NA
HETATM    5  C10 UNL     1      22.872   3.070  52.316  1.00  0.00     0.235 A 
HETATM    6  N3  UNL     1      23.035   3.518  51.058  1.00  0.00    -0.241 NA
HETATM    7  C11 UNL     1      24.258   3.444  50.460  1.00  0.00     0.068 A 
ENDROOT
BRANCH   7   8
HETATM    8  C12 UNL     1      24.456   3.871  49.230  1.00  0.00     0.018 C 
BRANCH   8   9
HETATM    9  C13 UNL     1      24.421   5.334  48.981  1.00  0.00     0.123 C 
BRANCH   9  10
HETATM   10  C14 UNL     1      25.818   5.748  48.755  1.00  0.00    -0.097 C 
HETATM   11  C15 UNL     1      26.963   6.098  48.569  1.00  0.00    -0.064 C 
BRANCH  11  12
HETATM   12  C16 UNL     1      28.327   6.504  48.357  1.00  0.00     0.054 A 
HETATM   13  C17 UNL     1      29.325   5.554  48.154  1.00  0.00     0.161 A 
HETATM   14  N4  UNL     1      30.451   6.290  47.994  1.00  0.00    -0.181 NA
HETATM   15  N5  UNL     1      30.147   7.590  48.095  1.00  0.00    -0.251 N 
HETATM   16  C19 UNL     1      28.836   7.785  48.322  1.00  0.00     0.137 A 
BRANCH  15  17
HETATM   17  C18 UNL     1      31.168   8.613  47.964  1.00  0.00     0.372 C 
HETATM   18  F2  UNL     1      32.209   8.321  48.809  1.00  0.00    -0.232 F 
ENDBRANCH  15  17
ENDBRANCH  11  12
ENDBRANCH   9  10
ENDBRANCH   8   9
ENDBRANCH   7   8
BRANCH   3  19
HETATM   19  N1  UNL     1      26.216   1.888  53.199  1.00  0.00    -0.340 N 
HETATM   20  H3  UNL     1      26.706   2.528  53.889  1.00  0.00     0.167 HD
BRANCH  19  21
HETATM   21  C4  UNL     1      26.769   0.595  53.098  1.00  0.00     0.035 A 
HETATM   22  C5  UNL     1      26.125  -0.536  52.652  1.00  0.00     0.032 A 
HETATM   23  C6  UNL     1      26.670  -1.793  52.557  1.00  0.00     0.046 A 
HETATM   24  C7  UNL     1      27.983  -1.949  52.941  1.00  0.00     0.138 A 
HETATM   25  F1  UNL     1      28.567  -3.169  52.866  1.00  0.00    -0.204 F 
HETATM   26  C8  UNL     1      28.675  -0.866  53.392  1.00  0.00     0.074 A 
HETATM   27 CL1  UNL     1      30.341  -1.081  53.877  1.00  0.00    -0.081 Cl
HETATM   28  C9  UNL     1      28.075   0.348  53.461  1.00  0.00     0.056 A 
ENDBRANCH  19  21
ENDBRANCH   3  19
TORSDOF 7
ENDMDL
MODEL 6
REMARK VINA RESULT:      -7.6      4.380      7.607
REMARK  7 active torsions:
REMARK  status: ('A' for Active; 'I' for Inactive)
REMARK    1  A    between atoms: C3_3  and  N1_4 
REMARK    2  A    between atoms: N1_4  and  C4_5 
REMARK    3  A    between atoms: C11_16  and  C12_17 
REMARK    4  A    between atoms: C12_17  and  C13_18 
REMARK    5  A    between atoms: C13_18  and  C14_19 
REMARK    6  A    between atoms: C15_20  and  C16_21 
REMARK    7  A    between atoms: N5_24  and  C18_25 
ROOT
HETATM    1  C1  UNL     1      26.510   2.879  49.606  1.00  0.00     0.030 C 
HETATM    2  C2  UNL     1      25.763   3.833  50.085  1.00  0.00     0.029 A 
HETATM    3  C3  UNL     1      24.913   3.541  51.128  1.00  0.00     0.141 A 
HETATM    4  N2  UNL     1      24.179   4.565  51.569  1.00  0.00    -0.224 NA
HETATM    5  C10 UNL     1      24.273   5.781  51.028  1.00  0.00     0.235 A 
HETATM    6  N3  UNL     1      25.111   6.047  50.009  1.00  0.00    -0.241 NA
HETATM    7  C11 UNL     1      25.898   5.059  49.497  1.00  0.00     0.068 A 
ENDROOT
BRANCH   7   8
HETATM    8  C12 UNL     1      26.730   5.280  48.500  1.00  0.00     0.018 C 
BRANCH   8   9
HETATM    9  C13 UNL     1      27.517   6.538  48.509  1.00  0.00     0.123 C 
BRANCH   9  10
HETATM   10  C14 UNL     1      28.934   6.140  48.406  1.00  0.00    -0.097 C 
HETATM   11  C15 UNL     1      30.096   5.817  48.313  1.00  0.00    -0.064 C 
BRANCH  11  12
HETATM   12  C16 UNL     1      31.481   5.437  48.213  1.00  0.00     0.054 A 
HETATM   13  C17 UNL     1      32.467   6.178  48.861  1.00  0.00     0.161 A 
HETATM   14  N4  UNL     1      33.618   5.537  48.548  1.00  0.00    -0.181 NA
HETATM   15  N5  UNL     1      33.340   4.485  47.768  1.00  0.00    -0.251 N 
HETATM   16  C19 UNL     1      32.022   4.371  47.525  1.00  0.00     0.137 A 
BRANCH  15  17
HETATM   17  C18 UNL     1      34.392   3.613  47.279  1.00  0.00     0.372 C 
HETATM   18  F2  UNL     1      34.908   2.898  48.329  1.00  0.00    -0.232 F 
ENDBRANCH  15  17
ENDBRANCH  11  12
ENDBRANCH   9  10
ENDBRANCH   8   9
ENDBRANCH   7   8
BRANCH   3  19
HETATM   19  N1  UNL     1      24.860   2.229  51.658  1.00  0.00    -0.340 N 
HETATM   20  H3  UNL     1      23.951   1.698  51.518  1.00  0.00     0.167 HD
BRANCH  19  21
HETATM   21  C4  UNL     1      25.857   1.517  52.356  1.00  0.00     0.035 A 
HETATM   22  C5  UNL     1      26.753   2.042  53.260  1.00  0.00     0.032 A 
HETATM   23  C6  UNL     1      27.722   1.342  53.936  1.00  0.00     0.046 A 
HETATM   24  C7  UNL     1      27.817  -0.010  53.695  1.00  0.00     0.138 A 
HETATM   25  F1  UNL     1      28.757  -0.744  54.338  1.00  0.00    -0.204 F 
HETATM   26  C8  UNL     1      26.959  -0.588  52.811  1.00  0.00     0.074 A 
HETATM   27 CL1  UNL     1      27.093  -2.306  52.516  1.00  0.00    -0.081 Cl
HETATM   28  C9  UNL     1      26.023   0.161  52.176  1.00  0.00     0.056 A 
ENDBRANCH  19  21
ENDBRANCH   3  19
TORSDOF 7
ENDMDL
MODEL 7
REMARK VINA RESULT:      -7.6      1.640      2.259
REMARK  7 active torsions:
REMARK  status: ('A' for Active; 'I' for Inactive)
REMARK    1  A    between atoms: C3_3  and  N1_4 
REMARK    2  A    between atoms: N1_4  and  C4_5 
REMARK    3  A    between atoms: C11_16  and  C12_17 
REMARK    4  A    between atoms: C12_17  and  C13_18 
REMARK    5  A    between atoms: C13_18  and  C14_19 
REMARK    6  A    between atoms: C15_20  and  C16_21 
REMARK    7  A    between atoms: N5_24  and  C18_25 
ROOT
HETATM    1  C1  UNL     1      21.895   1.063  50.034  1.00  0.00     0.030 C 
HETATM    2  C2  UNL     1      21.512   2.024  50.825  1.00  0.00     0.029 A 
HETATM    3  C3  UNL     1      21.868   3.317  50.512  1.00  0.00     0.141 A 
HETATM    4  N2  UNL     1      21.441   4.249  51.366  1.00  0.00    -0.224 NA
HETATM    5  C10 UNL     1      20.721   3.937  52.444  1.00  0.00     0.235 A 
HETATM    6  N3  UNL     1      20.381   2.667  52.734  1.00  0.00    -0.241 NA
HETATM    7  C11 UNL     1      20.776   1.651  51.915  1.00  0.00     0.068 A 
ENDROOT
BRANCH   7   8
HETATM    8  C12 UNL     1      20.464   0.396  52.165  1.00  0.00     0.018 C 
BRANCH   8   9
HETATM    9  C13 UNL     1      20.924  -0.199  53.445  1.00  0.00     0.123 C 
BRANCH   9  10
HETATM   10  C14 UNL     1      22.394  -0.088  53.448  1.00  0.00    -0.097 C 
HETATM   11  C15 UNL     1      23.602  -0.004  53.444  1.00  0.00    -0.064 C 
BRANCH  11  12
HETATM   12  C16 UNL     1      25.036   0.109  53.439  1.00  0.00     0.054 A 
HETATM   13  C17 UNL     1      25.715   0.473  52.278  1.00  0.00     0.161 A 
HETATM   14  N4  UNL     1      27.018   0.476  52.647  1.00  0.00    -0.181 NA
HETATM   15  N5  UNL     1      27.113   0.138  53.939  1.00  0.00    -0.251 N 
HETATM   16  C19 UNL     1      25.908  -0.103  54.487  1.00  0.00     0.137 A 
BRANCH  15  17
HETATM   17  C18 UNL     1      28.401   0.061  54.603  1.00  0.00     0.372 C 
HETATM   18  F2  UNL     1      29.381   0.464  53.733  1.00  0.00    -0.232 F 
ENDBRANCH  15  17
ENDBRANCH  11  12
ENDBRANCH   9  10
ENDBRANCH   8   9
ENDBRANCH   7   8
BRANCH   3  19
HETATM   19  N1  UNL     1      22.635   3.582  49.351  1.00  0.00    -0.340 N 
HETATM   20  H3  UNL     1      22.141   3.464  48.420  1.00  0.00     0.167 HD
BRANCH  19  21
HETATM   21  C4  UNL     1      23.983   3.986  49.257  1.00  0.00     0.035 A 
HETATM   22  C5  UNL     1      25.087   3.228  49.574  1.00  0.00     0.032 A 
HETATM   23  C6  UNL     1      26.397   3.629  49.480  1.00  0.00     0.046 A 
HETATM   24  C7  UNL     1      26.642   4.906  49.028  1.00  0.00     0.138 A 
HETATM   25  F1  UNL     1      27.918   5.348  48.918  1.00  0.00    -0.204 F 
HETATM   26  C8  UNL     1      25.591   5.705  48.698  1.00  0.00     0.074 A 
HETATM   27 CL1  UNL     1      25.919   7.325  48.126  1.00  0.00    -0.081 Cl
HETATM   28  C9  UNL     1      24.320   5.247  48.815  1.00  0.00     0.056 A 
ENDBRANCH  19  21
ENDBRANCH   3  19
TORSDOF 7
ENDMDL
MODEL 8
REMARK VINA RESULT:      -7.5      3.851      6.449
REMARK  7 active torsions:
REMARK  status: ('A' for Active; 'I' for Inactive)
REMARK    1  A    between atoms: C3_3  and  N1_4 
REMARK    2  A    between atoms: N1_4  and  C4_5 
REMARK    3  A    between atoms: C11_16  and  C12_17 
REMARK    4  A    between atoms: C12_17  and  C13_18 
REMARK    5  A    between atoms: C13_18  and  C14_19 
REMARK    6  A    between atoms: C15_20  and  C16_21 
REMARK    7  A    between atoms: N5_24  and  C18_25 
ROOT
HETATM    1  C1  UNL     1      23.056   4.503  51.858  1.00  0.00     0.030 C 
HETATM    2  C2  UNL     1      22.731   4.039  50.686  1.00  0.00     0.029 A 
HETATM    3  C3  UNL     1      21.656   3.184  50.591  1.00  0.00     0.141 A 
HETATM    4  N2  UNL     1      21.380   2.749  49.360  1.00  0.00    -0.224 NA
HETATM    5  C10 UNL     1      22.104   3.123  48.304  1.00  0.00     0.235 A 
HETATM    6  N3  UNL     1      23.151   3.961  48.416  1.00  0.00    -0.241 NA
HETATM    7  C11 UNL     1      23.503   4.454  49.637  1.00  0.00     0.068 A 
ENDROOT
BRANCH   7   8
HETATM    8  C12 UNL     1      24.522   5.275  49.787  1.00  0.00     0.018 C 
BRANCH   8   9
HETATM    9  C13 UNL     1      25.862   4.820  49.340  1.00  0.00     0.123 C 
BRANCH   9  10
HETATM   10  C14 UNL     1      26.223   3.683  50.208  1.00  0.00    -0.097 C 
HETATM   11  C15 UNL     1      26.510   2.750  50.924  1.00  0.00    -0.064 C 
BRANCH  11  12
HETATM   12  C16 UNL     1      26.858   1.636  51.764  1.00  0.00     0.054 A 
HETATM   13  C17 UNL     1      27.744   1.800  52.827  1.00  0.00     0.161 A 
HETATM   14  N4  UNL     1      27.828   0.565  53.377  1.00  0.00    -0.181 NA
HETATM   15  N5  UNL     1      27.047  -0.279  52.692  1.00  0.00    -0.251 N 
HETATM   16  C19 UNL     1      26.416   0.332  51.674  1.00  0.00     0.137 A 
BRANCH  15  17
HETATM   17  C18 UNL     1      26.943  -1.678  53.064  1.00  0.00     0.372 C 
HETATM   18  F2  UNL     1      26.783  -2.434  51.931  1.00  0.00    -0.232 F 
ENDBRANCH  15  17
ENDBRANCH  11  12
ENDBRANCH   9  10
ENDBRANCH   8   9
ENDBRANCH   7   8
BRANCH   3  19
HETATM   19  N1  UNL     1      20.928   2.825  51.752  1.00  0.00    -0.340 N 
HETATM   20  H3  UNL     1      20.258   3.553  52.135  1.00  0.00     0.167 HD
BRANCH  19  21
HETATM   21  C4  UNL     1      20.969   1.619  52.482  1.00  0.00     0.035 A 
HETATM   22  C5  UNL     1      22.051   1.117  53.170  1.00  0.00     0.032 A 
HETATM   23  C6  UNL     1      22.083  -0.059  53.878  1.00  0.00     0.046 A 
HETATM   24  C7  UNL     1      20.934  -0.816  53.910  1.00  0.00     0.138 A 
HETATM   25  F1  UNL     1      20.916  -1.985  54.595  1.00  0.00    -0.204 F 
HETATM   26  C8  UNL     1      19.830  -0.373  53.248  1.00  0.00     0.074 A 
HETATM   27 CL1  UNL     1      18.378  -1.347  53.298  1.00  0.00    -0.081 Cl
HETATM   28  C9  UNL     1      19.865   0.799  52.567  1.00  0.00     0.056 A 
ENDBRANCH  19  21
ENDBRANCH   3  19
TORSDOF 7
ENDMDL
MODEL 9
REMARK VINA RESULT:      -7.5      4.973      8.204
REMARK  7 active torsions:
REMARK  status: ('A' for Active; 'I' for Inactive)
REMARK    1  A    between atoms: C3_3  and  N1_4 
REMARK    2  A    between atoms: N1_4  and  C4_5 
REMARK    3  A    between atoms: C11_16  and  C12_17 
REMARK    4  A    between atoms: C12_17  and  C13_18 
REMARK    5  A    between atoms: C13_18  and  C14_19 
REMARK    6  A    between atoms: C15_20  and  C16_21 
REMARK    7  A    between atoms: N5_24  and  C18_25 
ROOT
HETATM    1  C1  UNL     1      26.457   2.786  49.732  1.00  0.00     0.030 C 
HETATM    2  C2  UNL     1      25.764   3.833  50.079  1.00  0.00     0.029 A 
HETATM    3  C3  UNL     1      24.771   3.682  51.021  1.00  0.00     0.141 A 
HETATM    4  N2  UNL     1      24.103   4.795  51.328  1.00  0.00    -0.224 NA
HETATM    5  C10 UNL     1      24.387   5.966  50.755  1.00  0.00     0.235 A 
HETATM    6  N3  UNL     1      25.363   6.094  49.837  1.00  0.00    -0.241 NA
HETATM    7  C11 UNL     1      26.096   5.007  49.464  1.00  0.00     0.068 A 
ENDROOT
BRANCH   7   8
HETATM    8  C12 UNL     1      27.057   5.092  48.567  1.00  0.00     0.018 C 
BRANCH   8   9
HETATM    9  C13 UNL     1      27.873   6.332  48.530  1.00  0.00     0.123 C 
BRANCH   9  10
HETATM   10  C14 UNL     1      29.239   5.917  48.158  1.00  0.00    -0.097 C 
HETATM   11  C15 UNL     1      30.361   5.573  47.863  1.00  0.00    -0.064 C 
BRANCH  11  12
HETATM   12  C16 UNL     1      31.691   5.160  47.500  1.00  0.00     0.054 A 
HETATM   13  C17 UNL     1      32.752   6.062  47.552  1.00  0.00     0.161 A 
HETATM   14  N4  UNL     1      33.821   5.334  47.150  1.00  0.00    -0.181 NA
HETATM   15  N5  UNL     1      33.428   4.084  46.878  1.00  0.00    -0.251 N 
HETATM   16  C19 UNL     1      32.108   3.915  47.078  1.00  0.00     0.137 A 
BRANCH  15  17
HETATM   17  C18 UNL     1      34.373   3.080  46.424  1.00  0.00     0.372 C 
HETATM   18  F2  UNL     1      35.440   3.703  45.828  1.00  0.00    -0.232 F 
ENDBRANCH  15  17
ENDBRANCH  11  12
ENDBRANCH   9  10
ENDBRANCH   8   9
ENDBRANCH   7   8
BRANCH   3  19
HETATM   19  N1  UNL     1      24.519   2.411  51.592  1.00  0.00    -0.340 N 
HETATM   20  H3  UNL     1      25.352   1.907  52.013  1.00  0.00     0.167 HD
BRANCH  19  21
HETATM   21  C4  UNL     1      23.299   1.709  51.680  1.00  0.00     0.035 A 
HETATM   22  C5  UNL     1      22.451   1.411  50.637  1.00  0.00     0.032 A 
HETATM   23  C6  UNL     1      21.264   0.727  50.731  1.00  0.00     0.046 A 
HETATM   24  C7  UNL     1      20.874   0.294  51.979  1.00  0.00     0.138 A 
HETATM   25  F1  UNL     1      19.711  -0.385  52.123  1.00  0.00    -0.204 F 
HETATM   26  C8  UNL     1      21.671   0.559  53.051  1.00  0.00     0.074 A 
HETATM   27 CL1  UNL     1      21.161   0.004  54.628  1.00  0.00    -0.081 Cl
HETATM   28  C9  UNL     1      22.832   1.240  52.889  1.00  0.00     0.056 A 
ENDBRANCH  19  21
ENDBRANCH   3  19
TORSDOF 7
ENDMDL
