MODEL 1
REMARK VINA RESULT:      -8.2      0.000      0.000
REMARK  2 active torsions:
REMARK  status: ('A' for Active; 'I' for Inactive)
REMARK    1  A    between atoms: N1_1  and  C1_2 
REMARK    2  A    between atoms: N2_5  and  C4_6 
ROOT
HETATM    1  C4  UNL     1      25.363   2.891  51.630  1.00  0.00     0.230 C 
HETATM    2  C5  UNL     1      25.447   3.144  50.179  1.00  0.00     0.064 C 
HETATM    3  C6  UNL     1      26.729   3.508  49.607  1.00  0.00    -0.006 C 
HETATM    4  C7  UNL     1      26.945   4.673  48.977  1.00  0.00     0.105 C 
HETATM    5  N3  UNL     1      26.102   5.808  48.687  1.00  0.00    -0.289 N 
HETATM    6  N4  UNL     1      26.392   7.114  49.032  1.00  0.00    -0.168 NA
HETATM    7  C8  UNL     1      25.501   7.899  49.516  1.00  0.00     0.256 C 
HETATM    8  N5  UNL     1      24.156   7.500  49.738  1.00  0.00    -0.235 NA
HETATM    9  C9  UNL     1      23.715   7.708  50.951  1.00  0.00     0.208 C 
HETATM   10  N6  UNL     1      22.373   7.334  51.249  1.00  0.00    -0.351 N 
HETATM   11  C10 UNL     1      22.286   5.916  51.025  1.00  0.00     0.033 A 
HETATM   12  C11 UNL     1      21.273   5.534  50.170  1.00  0.00     0.029 A 
HETATM   13  C12 UNL     1      21.094   4.189  49.878  1.00  0.00     0.003 A 
HETATM   14  C13 UNL     1      21.967   3.336  50.485  1.00  0.00     0.007 A 
HETATM   15  C14 UNL     1      23.005   3.691  51.356  1.00  0.00    -0.054 A 
HETATM   16  C15 UNL     1      23.157   5.035  51.627  1.00  0.00     0.036 A 
HETATM   17  C16 UNL     1      23.874   2.640  51.940  1.00  0.00     0.074 C 
HETATM   18  H13 UNL     1      25.367   5.250  48.213  1.00  0.00     0.188 HD
HETATM   19  H16 UNL     1      21.441   7.729  51.569  1.00  0.00     0.166 HD
ENDROOT
BRANCH   1  20
HETATM   20  N2  UNL     1      26.131   1.864  52.202  1.00  0.00     0.093 N 
HETATM   21  C3  UNL     1      25.636   0.542  52.220  1.00  0.00     0.275 C 
HETATM   22  C2  UNL     1      26.738  -0.510  52.180  1.00  0.00     0.065 C 
HETATM   23  C1  UNL     1      27.813  -0.078  53.123  1.00  0.00     0.221 C 
HETATM   24  C18 UNL     1      27.238   0.868  54.140  1.00  0.00     0.065 C 
HETATM   25  C17 UNL     1      26.702   2.139  53.502  1.00  0.00     0.275 C 
BRANCH  23  26
HETATM   26  N1  UNL     1      28.253  -1.259  53.883  1.00  0.00     0.083 N 
HETATM   27  H1  UNL     1      27.825  -1.218  54.836  1.00  0.00     0.313 HD
HETATM   28  H2  UNL     1      27.903  -2.132  53.426  1.00  0.00     0.313 HD
ENDBRANCH  23  26
ENDBRANCH   1  20
TORSDOF 2
ENDMDL
MODEL 2
REMARK VINA RESULT:      -7.8      2.753      7.791
REMARK  2 active torsions:
REMARK  status: ('A' for Active; 'I' for Inactive)
REMARK    1  A    between atoms: N1_1  and  C1_2 
REMARK    2  A    between atoms: N2_5  and  C4_6 
ROOT
HETATM    1  C4  UNL     1      23.401   2.566  52.246  1.00  0.00     0.230 C 
HETATM    2  C5  UNL     1      22.954   1.236  51.792  1.00  0.00     0.064 C 
HETATM    3  C6  UNL     1      21.573   0.852  52.007  1.00  0.00    -0.006 C 
HETATM    4  C7  UNL     1      21.214  -0.205  52.754  1.00  0.00     0.105 C 
HETATM    5  N3  UNL     1      21.966  -1.187  53.495  1.00  0.00    -0.289 N 
HETATM    6  N4  UNL     1      21.784  -1.474  54.835  1.00  0.00    -0.168 NA
HETATM    7  C8  UNL     1      22.776  -1.643  55.630  1.00  0.00     0.256 C 
HETATM    8  N5  UNL     1      24.129  -1.551  55.211  1.00  0.00    -0.235 NA
HETATM    9  C9  UNL     1      24.865  -0.725  55.907  1.00  0.00     0.208 C 
HETATM   10  N6  UNL     1      26.235  -0.580  55.545  1.00  0.00    -0.351 N 
HETATM   11  C10 UNL     1      26.251  -0.093  54.191  1.00  0.00     0.033 A 
HETATM   12  C11 UNL     1      27.011  -0.848  53.322  1.00  0.00     0.029 A 
HETATM   13  C12 UNL     1      27.098  -0.473  51.988  1.00  0.00     0.003 A 
HETATM   14  C13 UNL     1      26.399   0.646  51.646  1.00  0.00     0.007 A 
HETATM   15  C14 UNL     1      25.619   1.432  52.504  1.00  0.00    -0.054 A 
HETATM   16  C15 UNL     1      25.552   1.035  53.823  1.00  0.00     0.036 A 
HETATM   17  C16 UNL     1      24.917   2.629  51.978  1.00  0.00     0.074 C 
HETATM   18  H13 UNL     1      22.552  -1.474  52.688  1.00  0.00     0.188 HD
HETATM   19  H16 UNL     1      27.222  -0.705  55.917  1.00  0.00     0.166 HD
ENDROOT
BRANCH   1  20
HETATM   20  N2  UNL     1      22.794   3.719  51.722  1.00  0.00     0.093 N 
HETATM   21  C3  UNL     1      22.495   3.793  50.343  1.00  0.00     0.275 C 
HETATM   22  C2  UNL     1      21.287   4.670  50.039  1.00  0.00     0.065 C 
HETATM   23  C1  UNL     1      21.402   5.906  50.869  1.00  0.00     0.221 C 
HETATM   24  C18 UNL     1      22.839   6.118  51.257  1.00  0.00     0.065 C 
HETATM   25  C17 UNL     1      23.373   4.985  52.115  1.00  0.00     0.275 C 
BRANCH  23  26
HETATM   26  N1  UNL     1      21.046   7.056  50.022  1.00  0.00     0.083 N 
HETATM   27  H1  UNL     1      21.294   6.829  49.032  1.00  0.00     0.313 HD
HETATM   28  H2  UNL     1      20.013   7.219  50.052  1.00  0.00     0.313 HD
ENDBRANCH  23  26
ENDBRANCH   1  20
TORSDOF 2
ENDMDL
MODEL 3
REMARK VINA RESULT:      -7.8      3.184      6.371
REMARK  2 active torsions:
REMARK  status: ('A' for Active; 'I' for Inactive)
REMARK    1  A    between atoms: N1_1  and  C1_2 
REMARK    2  A    between atoms: N2_5  and  C4_6 
ROOT
HETATM    1  C4  UNL     1      23.932   3.660  50.678  1.00  0.00     0.230 C 
HETATM    2  C5  UNL     1      23.706   2.499  49.796  1.00  0.00     0.064 C 
HETATM    3  C6  UNL     1      22.942   2.687  48.577  1.00  0.00    -0.006 C 
HETATM    4  C7  UNL     1      21.791   2.042  48.328  1.00  0.00     0.105 C 
HETATM    5  N3  UNL     1      21.022   1.076  49.074  1.00  0.00    -0.289 N 
HETATM    6  N4  UNL     1      19.687   1.213  49.400  1.00  0.00    -0.168 NA
HETATM    7  C8  UNL     1      19.241   0.913  50.564  1.00  0.00     0.256 C 
HETATM    8  N5  UNL     1      20.069   0.421  51.607  1.00  0.00    -0.235 NA
HETATM    9  C9  UNL     1      19.991   1.085  52.731  1.00  0.00     0.208 C 
HETATM   10  N6  UNL     1      20.793   0.648  53.824  1.00  0.00    -0.351 N 
HETATM   11  C10 UNL     1      22.161   0.747  53.391  1.00  0.00     0.033 A 
HETATM   12  C11 UNL     1      22.890  -0.416  53.533  1.00  0.00     0.029 A 
HETATM   13  C12 UNL     1      24.223  -0.439  53.146  1.00  0.00     0.003 A 
HETATM   14  C13 UNL     1      24.708   0.731  52.643  1.00  0.00     0.007 A 
HETATM   15  C14 UNL     1      23.995   1.926  52.485  1.00  0.00    -0.054 A 
HETATM   16  C15 UNL     1      22.673   1.918  52.879  1.00  0.00     0.036 A 
HETATM   17  C16 UNL     1      24.668   3.122  51.921  1.00  0.00     0.074 C 
HETATM   18  H13 UNL     1      21.811   0.413  49.194  1.00  0.00     0.188 HD
HETATM   19  H16 UNL     1      20.732   0.284  54.820  1.00  0.00     0.166 HD
ENDROOT
BRANCH   1  20
HETATM   20  N2  UNL     1      24.617   4.782  50.188  1.00  0.00     0.093 N 
HETATM   21  C3  UNL     1      26.000   4.699  49.913  1.00  0.00     0.275 C 
HETATM   22  C2  UNL     1      26.445   5.634  48.796  1.00  0.00     0.065 C 
HETATM   23  C1  UNL     1      25.784   6.955  49.017  1.00  0.00     0.221 C 
HETATM   24  C18 UNL     1      25.394   7.083  50.464  1.00  0.00     0.065 C 
HETATM   25  C17 UNL     1      24.381   6.031  50.880  1.00  0.00     0.275 C 
BRANCH  23  26
HETATM   26  N1  UNL     1      26.783   8.009  48.780  1.00  0.00     0.083 N 
HETATM   27  H1  UNL     1      26.936   8.096  47.750  1.00  0.00     0.313 HD
HETATM   28  H2  UNL     1      26.421   8.931  49.116  1.00  0.00     0.313 HD
ENDBRANCH  23  26
ENDBRANCH   1  20
TORSDOF 2
ENDMDL
MODEL 4
REMARK VINA RESULT:      -7.7      1.201      1.585
REMARK  2 active torsions:
REMARK  status: ('A' for Active; 'I' for Inactive)
REMARK    1  A    between atoms: N1_1  and  C1_2 
REMARK    2  A    between atoms: N2_5  and  C4_6 
ROOT
HETATM    1  C4  UNL     1      25.178   2.071  51.704  1.00  0.00     0.230 C 
HETATM    2  C5  UNL     1      25.358   2.513  50.308  1.00  0.00     0.064 C 
HETATM    3  C6  UNL     1      26.475   3.382  49.990  1.00  0.00    -0.006 C 
HETATM    4  C7  UNL     1      26.321   4.615  49.482  1.00  0.00     0.105 C 
HETATM    5  N3  UNL     1      25.161   5.395  49.123  1.00  0.00    -0.289 N 
HETATM    6  N4  UNL     1      24.888   6.665  49.594  1.00  0.00    -0.168 NA
HETATM    7  C8  UNL     1      23.710   7.009  49.965  1.00  0.00     0.256 C 
HETATM    8  N5  UNL     1      22.597   6.128  49.926  1.00  0.00    -0.235 NA
HETATM    9  C9  UNL     1      21.949   6.012  51.055  1.00  0.00     0.208 C 
HETATM   10  N6  UNL     1      20.819   5.144  51.092  1.00  0.00    -0.351 N 
HETATM   11  C10 UNL     1      21.303   3.829  50.767  1.00  0.00     0.033 A 
HETATM   12  C11 UNL     1      20.635   3.216  49.727  1.00  0.00     0.029 A 
HETATM   13  C12 UNL     1      21.018   1.943  49.325  1.00  0.00     0.003 A 
HETATM   14  C13 UNL     1      22.056   1.396  50.019  1.00  0.00     0.007 A 
HETATM   15  C14 UNL     1      22.754   1.992  51.077  1.00  0.00    -0.054 A 
HETATM   16  C15 UNL     1      22.350   3.256  51.454  1.00  0.00     0.036 A 
HETATM   17  C16 UNL     1      23.865   1.263  51.735  1.00  0.00     0.074 C 
HETATM   18  H13 UNL     1      24.763   4.672  48.494  1.00  0.00     0.188 HD
HETATM   19  H16 UNL     1      19.772   5.133  51.270  1.00  0.00     0.166 HD
ENDROOT
BRANCH   1  20
HETATM   20  N2  UNL     1      26.189   1.328  52.333  1.00  0.00     0.093 N 
HETATM   21  C3  UNL     1      25.964  -0.024  52.672  1.00  0.00     0.275 C 
HETATM   22  C2  UNL     1      27.235  -0.863  52.662  1.00  0.00     0.065 C 
HETATM   23  C1  UNL     1      28.308  -0.071  53.334  1.00  0.00     0.221 C 
HETATM   24  C18 UNL     1      27.682   0.959  54.233  1.00  0.00     0.065 C 
HETATM   25  C17 UNL     1      26.843   1.961  53.459  1.00  0.00     0.275 C 
BRANCH  23  26
HETATM   26  N1  UNL     1      29.051  -0.976  54.226  1.00  0.00     0.083 N 
HETATM   27  H1  UNL     1      28.368  -1.613  54.696  1.00  0.00     0.313 HD
HETATM   28  H2  UNL     1      29.699  -1.578  53.668  1.00  0.00     0.313 HD
ENDBRANCH  23  26
ENDBRANCH   1  20
TORSDOF 2
ENDMDL
MODEL 5
REMARK VINA RESULT:      -7.7      3.632      5.616
REMARK  2 active torsions:
REMARK  status: ('A' for Active; 'I' for Inactive)
REMARK    1  A    between atoms: N1_1  and  C1_2 
REMARK    2  A    between atoms: N2_5  and  C4_6 
ROOT
HETATM    1  C4  UNL     1      24.161   0.606  52.582  1.00  0.00     0.230 C 
HETATM    2  C5  UNL     1      23.244   0.834  53.715  1.00  0.00     0.064 C 
HETATM    3  C6  UNL     1      22.834  -0.299  54.521  1.00  0.00    -0.006 C 
HETATM    4  C7  UNL     1      21.554  -0.684  54.646  1.00  0.00     0.105 C 
HETATM    5  N3  UNL     1      20.316  -0.178  54.104  1.00  0.00    -0.289 N 
HETATM    6  N4  UNL     1      19.404  -0.930  53.388  1.00  0.00    -0.168 NA
HETATM    7  C8  UNL     1      18.839  -0.478  52.329  1.00  0.00     0.256 C 
HETATM    8  N5  UNL     1      19.099   0.816  51.805  1.00  0.00    -0.235 NA
HETATM    9  C9  UNL     1      19.452   0.838  50.546  1.00  0.00     0.208 C 
HETATM   10  N6  UNL     1      19.728   2.102  49.950  1.00  0.00    -0.351 N 
HETATM   11  C10 UNL     1      20.825   2.670  50.687  1.00  0.00     0.033 A 
HETATM   12  C11 UNL     1      20.589   3.939  51.175  1.00  0.00     0.029 A 
HETATM   13  C12 UNL     1      21.578   4.586  51.904  1.00  0.00     0.003 A 
HETATM   14  C13 UNL     1      22.733   3.883  52.079  1.00  0.00     0.007 A 
HETATM   15  C14 UNL     1      23.002   2.596  51.597  1.00  0.00    -0.054 A 
HETATM   16  C15 UNL     1      22.002   1.979  50.876  1.00  0.00     0.036 A 
HETATM   17  C16 UNL     1      24.317   1.964  51.870  1.00  0.00     0.074 C 
HETATM   18  H13 UNL     1      20.458   0.788  54.452  1.00  0.00     0.188 HD
HETATM   19  H16 UNL     1      19.413   2.753  49.172  1.00  0.00     0.166 HD
ENDROOT
BRANCH   1  20
HETATM   20  N2  UNL     1      25.434   0.062  52.818  1.00  0.00     0.093 N 
HETATM   21  C3  UNL     1      25.577  -1.323  53.048  1.00  0.00     0.275 C 
HETATM   22  C2  UNL     1      26.923  -1.870  52.590  1.00  0.00     0.065 C 
HETATM   23  C1  UNL     1      27.978  -0.906  53.025  1.00  0.00     0.221 C 
HETATM   24  C18 UNL     1      27.462  -0.084  54.173  1.00  0.00     0.065 C 
HETATM   25  C17 UNL     1      26.259   0.756  53.783  1.00  0.00     0.275 C 
BRANCH  23  26
HETATM   26  N1  UNL     1      29.107  -1.680  53.565  1.00  0.00     0.083 N 
HETATM   27  H1  UNL     1      29.680  -1.051  54.172  1.00  0.00     0.313 HD
HETATM   28  H2  UNL     1      28.754  -2.456  54.172  1.00  0.00     0.313 HD
ENDBRANCH  23  26
ENDBRANCH   1  20
TORSDOF 2
ENDMDL
MODEL 6
REMARK VINA RESULT:      -7.7      2.769      4.556
REMARK  2 active torsions:
REMARK  status: ('A' for Active; 'I' for Inactive)
REMARK    1  A    between atoms: N1_1  and  C1_2 
REMARK    2  A    between atoms: N2_5  and  C4_6 
ROOT
HETATM    1  C4  UNL     1      24.988   1.848  51.633  1.00  0.00     0.230 C 
HETATM    2  C5  UNL     1      23.797   2.396  52.308  1.00  0.00     0.064 C 
HETATM    3  C6  UNL     1      22.951   1.496  53.070  1.00  0.00    -0.006 C 
HETATM    4  C7  UNL     1      21.658   1.284  52.777  1.00  0.00     0.105 C 
HETATM    5  N3  UNL     1      20.781   1.801  51.755  1.00  0.00    -0.289 N 
HETATM    6  N4  UNL     1      20.049   1.024  50.877  1.00  0.00    -0.168 NA
HETATM    7  C8  UNL     1      19.961   1.314  49.631  1.00  0.00     0.256 C 
HETATM    8  N5  UNL     1      20.599   2.441  49.051  1.00  0.00    -0.235 NA
HETATM    9  C9  UNL     1      21.354   2.174  48.018  1.00  0.00     0.208 C 
HETATM   10  N6  UNL     1      22.027   3.257  47.381  1.00  0.00    -0.351 N 
HETATM   11  C10 UNL     1      22.892   3.839  48.373  1.00  0.00     0.033 A 
HETATM   12  C11 UNL     1      22.726   5.197  48.548  1.00  0.00     0.029 A 
HETATM   13  C12 UNL     1      23.506   5.867  49.481  1.00  0.00     0.003 A 
HETATM   14  C13 UNL     1      24.396   5.094  50.164  1.00  0.00     0.007 A 
HETATM   15  C14 UNL     1      24.588   3.715  50.010  1.00  0.00    -0.054 A 
HETATM   16  C15 UNL     1      23.799   3.077  49.076  1.00  0.00     0.036 A 
HETATM   17  C16 UNL     1      25.604   3.013  50.832  1.00  0.00     0.074 C 
HETATM   18  H13 UNL     1      20.961   2.797  51.984  1.00  0.00     0.188 HD
HETATM   19  H16 UNL     1      22.109   3.769  46.455  1.00  0.00     0.166 HD
ENDROOT
BRANCH   1  20
HETATM   20  N2  UNL     1      25.994   1.230  52.391  1.00  0.00     0.093 N 
HETATM   21  C3  UNL     1      27.282   1.804  52.456  1.00  0.00     0.275 C 
HETATM   22  C2  UNL     1      28.005   1.508  53.764  1.00  0.00     0.065 C 
HETATM   23  C1  UNL     1      27.790   0.066  54.085  1.00  0.00     0.221 C 
HETATM   24  C18 UNL     1      27.451  -0.683  52.827  1.00  0.00     0.065 C 
HETATM   25  C17 UNL     1      26.157  -0.195  52.200  1.00  0.00     0.275 C 
BRANCH  23  26
HETATM   26  N1  UNL     1      29.070  -0.493  54.548  1.00  0.00     0.083 N 
HETATM   27  H1  UNL     1      29.340  -1.276  53.911  1.00  0.00     0.313 HD
HETATM   28  H2  UNL     1      29.823   0.230  54.483  1.00  0.00     0.313 HD
ENDBRANCH  23  26
ENDBRANCH   1  20
TORSDOF 2
ENDMDL
MODEL 7
REMARK VINA RESULT:      -7.1      7.847     11.493
REMARK  2 active torsions:
REMARK  status: ('A' for Active; 'I' for Inactive)
REMARK    1  A    between atoms: N1_1  and  C1_2 
REMARK    2  A    between atoms: N2_5  and  C4_6 
ROOT
HETATM    1  C4  UNL     1      32.095   7.439  46.919  1.00  0.00     0.230 C 
HETATM    2  C5  UNL     1      33.506   7.858  47.004  1.00  0.00     0.064 C 
HETATM    3  C6  UNL     1      33.845   9.235  46.702  1.00  0.00    -0.006 C 
HETATM    4  C7  UNL     1      34.671   9.585  45.702  1.00  0.00     0.105 C 
HETATM    5  N3  UNL     1      35.405   8.825  44.721  1.00  0.00    -0.289 N 
HETATM    6  N4  UNL     1      35.327   9.016  43.355  1.00  0.00    -0.168 NA
HETATM    7  C8  UNL     1      35.258   8.031  42.537  1.00  0.00     0.256 C 
HETATM    8  N5  UNL     1      35.256   6.675  42.957  1.00  0.00    -0.235 NA
HETATM    9  C9  UNL     1      34.259   5.961  42.503  1.00  0.00     0.208 C 
HETATM   10  N6  UNL     1      34.191   4.589  42.882  1.00  0.00    -0.351 N 
HETATM   11  C10 UNL     1      34.082   4.567  44.316  1.00  0.00     0.033 A 
HETATM   12  C11 UNL     1      35.027   3.784  44.948  1.00  0.00     0.029 A 
HETATM   13  C12 UNL     1      35.021   3.688  46.333  1.00  0.00     0.003 A 
HETATM   14  C13 UNL     1      34.047   4.402  46.965  1.00  0.00     0.007 A 
HETATM   15  C14 UNL     1      33.076   5.205  46.354  1.00  0.00    -0.054 A 
HETATM   16  C15 UNL     1      33.107   5.280  44.977  1.00  0.00     0.036 A 
HETATM   17  C16 UNL     1      32.077   5.921  47.185  1.00  0.00     0.074 C 
HETATM   18  H13 UNL     1      35.885   8.225  45.418  1.00  0.00     0.188 HD
HETATM   19  H16 UNL     1      34.193   3.605  42.483  1.00  0.00     0.166 HD
ENDROOT
BRANCH   1  20
HETATM   20  N2  UNL     1      31.136   8.060  47.736  1.00  0.00     0.093 N 
HETATM   21  C3  UNL     1      31.385   8.221  49.117  1.00  0.00     0.275 C 
HETATM   22  C2  UNL     1      30.697   9.444  49.710  1.00  0.00     0.065 C 
HETATM   23  C1  UNL     1      29.306   9.490  49.169  1.00  0.00     0.221 C 
HETATM   24  C18 UNL     1      28.898   8.115  48.717  1.00  0.00     0.065 C 
HETATM   25  C17 UNL     1      29.772   7.602  47.585  1.00  0.00     0.275 C 
BRANCH  23  26
HETATM   26  N1  UNL     1      28.398   9.828  50.277  1.00  0.00     0.083 N 
HETATM   27  H1  UNL     1      28.681  10.756  50.667  1.00  0.00     0.313 HD
HETATM   28  H2  UNL     1      27.419   9.929  49.923  1.00  0.00     0.313 HD
ENDBRANCH  23  26
ENDBRANCH   1  20
TORSDOF 2
ENDMDL
MODEL 8
REMARK VINA RESULT:      -7.1      3.438      6.040
REMARK  2 active torsions:
REMARK  status: ('A' for Active; 'I' for Inactive)
REMARK    1  A    between atoms: N1_1  and  C1_2 
REMARK    2  A    between atoms: N2_5  and  C4_6 
ROOT
HETATM    1  C4  UNL     1      23.067   4.066  49.980  1.00  0.00     0.230 C 
HETATM    2  C5  UNL     1      22.739   3.076  48.936  1.00  0.00     0.064 C 
HETATM    3  C6  UNL     1      22.394   3.550  47.610  1.00  0.00    -0.006 C 
HETATM    4  C7  UNL     1      21.204   3.312  47.034  1.00  0.00     0.105 C 
HETATM    5  N3  UNL     1      20.024   2.604  47.467  1.00  0.00    -0.289 N 
HETATM    6  N4  UNL     1      18.751   3.140  47.500  1.00  0.00    -0.168 NA
HETATM    7  C8  UNL     1      17.960   2.943  48.490  1.00  0.00     0.256 C 
HETATM    8  N5  UNL     1      18.319   2.168  49.625  1.00  0.00    -0.235 NA
HETATM    9  C9  UNL     1      18.161   2.771  50.774  1.00  0.00     0.208 C 
HETATM   10  N6  UNL     1      18.499   2.055  51.958  1.00  0.00    -0.351 N 
HETATM   11  C10 UNL     1      19.899   1.738  51.858  1.00  0.00     0.033 A 
HETATM   12  C11 UNL     1      20.194   0.400  52.018  1.00  0.00     0.029 A 
HETATM   13  C12 UNL     1      21.513  -0.024  51.939  1.00  0.00     0.003 A 
HETATM   14  C13 UNL     1      22.431   0.956  51.701  1.00  0.00     0.007 A 
HETATM   15  C14 UNL     1      22.164   2.321  51.533  1.00  0.00    -0.054 A 
HETATM   16  C15 UNL     1      20.844   2.711  51.617  1.00  0.00     0.036 A 
HETATM   17  C16 UNL     1      23.278   3.267  51.282  1.00  0.00     0.074 C 
HETATM   18  H13 UNL     1      20.527   1.722  47.680  1.00  0.00     0.188 HD
HETATM   19  H16 UNL     1      18.087   1.684  52.864  1.00  0.00     0.166 HD
ENDROOT
BRANCH   1  20
HETATM   20  N2  UNL     1      24.153   4.936  49.795  1.00  0.00     0.093 N 
HETATM   21  C3  UNL     1      25.473   4.459  49.946  1.00  0.00     0.275 C 
HETATM   22  C2  UNL     1      26.481   5.203  49.079  1.00  0.00     0.065 C 
HETATM   23  C1  UNL     1      26.176   6.661  49.176  1.00  0.00     0.221 C 
HETATM   24  C18 UNL     1      25.410   6.930  50.442  1.00  0.00     0.065 C 
HETATM   25  C17 UNL     1      24.069   6.217  50.463  1.00  0.00     0.275 C 
BRANCH  23  26
HETATM   26  N1  UNL     1      27.449   7.384  49.322  1.00  0.00     0.083 N 
HETATM   27  H1  UNL     1      27.402   8.258  48.750  1.00  0.00     0.313 HD
HETATM   28  H2  UNL     1      27.587   7.674  50.317  1.00  0.00     0.313 HD
ENDBRANCH  23  26
ENDBRANCH   1  20
TORSDOF 2
ENDMDL
MODEL 9
REMARK VINA RESULT:      -7.1      3.459      4.470
REMARK  2 active torsions:
REMARK  status: ('A' for Active; 'I' for Inactive)
REMARK    1  A    between atoms: N1_1  and  C1_2 
REMARK    2  A    between atoms: N2_5  and  C4_6 
ROOT
HETATM    1  C4  UNL     1      22.554   1.718  51.842  1.00  0.00     0.230 C 
HETATM    2  C5  UNL     1      22.278   1.449  50.419  1.00  0.00     0.064 C 
HETATM    3  C6  UNL     1      23.027   2.176  49.412  1.00  0.00    -0.006 C 
HETATM    4  C7  UNL     1      22.448   2.985  48.510  1.00  0.00     0.105 C 
HETATM    5  N3  UNL     1      21.078   3.359  48.259  1.00  0.00    -0.289 N 
HETATM    6  N4  UNL     1      20.612   4.659  48.206  1.00  0.00    -0.168 NA
HETATM    7  C8  UNL     1      19.509   5.005  48.762  1.00  0.00     0.256 C 
HETATM    8  N5  UNL     1      18.681   4.095  49.471  1.00  0.00    -0.235 NA
HETATM    9  C9  UNL     1      18.372   4.466  50.686  1.00  0.00     0.208 C 
HETATM   10  N6  UNL     1      17.542   3.603  51.459  1.00  0.00    -0.351 N 
HETATM   11  C10 UNL     1      18.252   2.359  51.585  1.00  0.00     0.033 A 
HETATM   12  C11 UNL     1      17.534   1.249  51.190  1.00  0.00     0.029 A 
HETATM   13  C12 UNL     1      18.119  -0.007  51.266  1.00  0.00     0.003 A 
HETATM   14  C13 UNL     1      19.397  -0.031  51.741  1.00  0.00     0.007 A 
HETATM   15  C14 UNL     1      20.153   1.076  52.148  1.00  0.00    -0.054 A 
HETATM   16  C15 UNL     1      19.544   2.310  52.061  1.00  0.00     0.036 A 
HETATM   17  C16 UNL     1      21.537   0.884  52.646  1.00  0.00     0.074 C 
HETATM   18  H13 UNL     1      20.738   2.383  48.168  1.00  0.00     0.188 HD
HETATM   19  H16 UNL     1      16.607   3.562  51.960  1.00  0.00     0.166 HD
ENDROOT
BRANCH   1  20
HETATM   20  N2  UNL     1      23.841   1.491  52.355  1.00  0.00     0.093 N 
HETATM   21  C3  UNL     1      24.090   0.357  53.158  1.00  0.00     0.275 C 
HETATM   22  C2  UNL     1      25.521  -0.152  53.050  1.00  0.00     0.065 C 
HETATM   23  C1  UNL     1      26.429   1.033  53.091  1.00  0.00     0.221 C 
HETATM   24  C18 UNL     1      25.723   2.183  53.753  1.00  0.00     0.065 C 
HETATM   25  C17 UNL     1      24.493   2.623  52.978  1.00  0.00     0.275 C 
BRANCH  23  26
HETATM   26  N1  UNL     1      27.564   0.706  53.969  1.00  0.00     0.083 N 
HETATM   27  H1  UNL     1      28.222   0.085  53.444  1.00  0.00     0.313 HD
HETATM   28  H2  UNL     1      28.091   1.575  54.216  1.00  0.00     0.313 HD
ENDBRANCH  23  26
ENDBRANCH   1  20
TORSDOF 2
ENDMDL
