MODEL 1
REMARK VINA RESULT:      -7.1      0.000      0.000
REMARK  7 active torsions:
REMARK  status: ('A' for Active; 'I' for Inactive)
REMARK    1  A    between atoms: N1_1  and  C1_2 
REMARK    2  A    between atoms: C1_2  and  C2_3 
REMARK    3  A    between atoms: C2_3  and  C3_4 
REMARK    4  A    between atoms: C7_9  and  O1_10 
REMARK    5  A    between atoms: O1_10  and  C8_11 
REMARK    6  A    between atoms: C11_14  and  N3_15 
REMARK    7  A    between atoms: N3_15  and  C12_16 
ROOT
HETATM    1  C8  UNL     1      23.365  -0.448  53.580  1.00  0.00     0.114 A 
HETATM    2  C9  UNL     1      22.505   0.025  52.617  1.00  0.00     0.043 A 
HETATM    3  C10 UNL     1      21.137  -0.064  52.612  1.00  0.00     0.032 A 
HETATM    4  C11 UNL     1      20.535  -0.692  53.679  1.00  0.00     0.037 A 
HETATM    5  C13 UNL     1      21.309  -1.214  54.721  1.00  0.00     0.074 A 
HETATM    6  C14 UNL     1      22.706  -1.082  54.652  1.00  0.00     0.152 A 
HETATM    7  F1  UNL     1      23.213  -1.673  55.784  1.00  0.00    -0.203 F 
ENDROOT
BRANCH   1   8
HETATM    8  O1  UNL     1      24.669  -0.521  53.870  1.00  0.00    -0.307 OA
BRANCH   8   9
HETATM    9  C7  UNL     1      25.681   0.326  53.681  1.00  0.00     0.089 A 
HETATM   10  C3  UNL     1      26.643  -0.388  52.967  1.00  0.00     0.024 A 
HETATM   11  C4  UNL     1      27.867   0.179  52.579  1.00  0.00     0.131 A 
HETATM   12  N2  UNL     1      28.140   1.477  52.904  1.00  0.00    -0.272 NA
HETATM   13  C5  UNL     1      27.242   2.200  53.589  1.00  0.00     0.119 A 
HETATM   14  C6  UNL     1      26.075   1.607  53.942  1.00  0.00     0.057 A 
BRANCH  10  15
HETATM   15  C2  UNL     1      26.641  -1.787  52.476  1.00  0.00     0.091 C 
BRANCH  15  16
HETATM   16  C1  UNL     1      27.720  -2.462  52.839  1.00  0.00    -0.024 C 
BRANCH  16  17
HETATM   17  N1  UNL     1      28.576  -3.311  53.275  1.00  0.00    -0.258 NA
HETATM   18  H1  UNL     1      28.624  -4.268  52.817  1.00  0.00     0.197 HD
ENDBRANCH  16  17
ENDBRANCH  15  16
ENDBRANCH  10  15
ENDBRANCH   8   9
ENDBRANCH   1   8
BRANCH   4  19
HETATM   19  N3  UNL     1      19.115  -0.757  53.626  1.00  0.00    -0.334 N 
HETATM   20  H8  UNL     1      18.550  -0.937  54.485  1.00  0.00     0.168 HD
BRANCH  19  21
HETATM   21  C12 UNL     1      18.490  -0.568  52.363  1.00  0.00     0.353 C 
HETATM   22  O2  UNL     1      17.470   0.160  52.267  1.00  0.00    -0.283 OA
ENDBRANCH  19  21
ENDBRANCH   4  19
TORSDOF 7
ENDMDL
MODEL 2
REMARK VINA RESULT:      -7.1      1.534      3.070
REMARK  7 active torsions:
REMARK  status: ('A' for Active; 'I' for Inactive)
REMARK    1  A    between atoms: N1_1  and  C1_2 
REMARK    2  A    between atoms: C1_2  and  C2_3 
REMARK    3  A    between atoms: C2_3  and  C3_4 
REMARK    4  A    between atoms: C7_9  and  O1_10 
REMARK    5  A    between atoms: O1_10  and  C8_11 
REMARK    6  A    between atoms: C11_14  and  N3_15 
REMARK    7  A    between atoms: N3_15  and  C12_16 
ROOT
HETATM    1  C8  UNL     1      24.022  -0.346  53.516  1.00  0.00     0.114 A 
HETATM    2  C9  UNL     1      23.386  -0.962  54.568  1.00  0.00     0.043 A 
HETATM    3  C10 UNL     1      22.039  -0.979  54.826  1.00  0.00     0.032 A 
HETATM    4  C11 UNL     1      21.213  -0.312  53.950  1.00  0.00     0.037 A 
HETATM    5  C13 UNL     1      21.749   0.352  52.841  1.00  0.00     0.074 A 
HETATM    6  C14 UNL     1      23.139   0.323  52.646  1.00  0.00     0.152 A 
HETATM    7  F1  UNL     1      23.391   1.043  51.503  1.00  0.00    -0.203 F 
ENDROOT
BRANCH   1   8
HETATM    8  O1  UNL     1      25.243  -0.150  53.006  1.00  0.00    -0.307 OA
BRANCH   8   9
HETATM    9  C7  UNL     1      26.349  -0.895  53.006  1.00  0.00     0.089 A 
HETATM   10  C3  UNL     1      27.328  -0.118  53.625  1.00  0.00     0.024 A 
HETATM   11  C4  UNL     1      28.643  -0.573  53.810  1.00  0.00     0.131 A 
HETATM   12  N2  UNL     1      28.991  -1.819  53.375  1.00  0.00    -0.272 NA
HETATM   13  C5  UNL     1      28.080  -2.599  52.774  1.00  0.00     0.119 A 
HETATM   14  C6  UNL     1      26.823  -2.115  52.618  1.00  0.00     0.057 A 
BRANCH  10  15
HETATM   15  C2  UNL     1      27.259   1.248  54.194  1.00  0.00     0.091 C 
BRANCH  15  16
HETATM   16  C1  UNL     1      28.146   2.073  53.660  1.00  0.00    -0.024 C 
BRANCH  16  17
HETATM   17  N1  UNL     1      28.817   2.886  52.930  1.00  0.00    -0.258 NA
HETATM   18  H1  UNL     1      29.772   3.206  53.268  1.00  0.00     0.197 HD
ENDBRANCH  16  17
ENDBRANCH  15  16
ENDBRANCH  10  15
ENDBRANCH   8   9
ENDBRANCH   1   8
BRANCH   4  19
HETATM   19  N3  UNL     1      19.827  -0.360  54.262  1.00  0.00    -0.334 N 
HETATM   20  H8  UNL     1      19.468  -0.030  55.185  1.00  0.00     0.168 HD
BRANCH  19  21
HETATM   21  C12 UNL     1      18.942  -0.875  53.274  1.00  0.00     0.353 C 
HETATM   22  O2  UNL     1      17.710  -0.950  53.508  1.00  0.00    -0.283 OA
ENDBRANCH  19  21
ENDBRANCH   4  19
TORSDOF 7
ENDMDL
MODEL 3
REMARK VINA RESULT:      -7.0      2.370      2.777
REMARK  7 active torsions:
REMARK  status: ('A' for Active; 'I' for Inactive)
REMARK    1  A    between atoms: N1_1  and  C1_2 
REMARK    2  A    between atoms: C1_2  and  C2_3 
REMARK    3  A    between atoms: C2_3  and  C3_4 
REMARK    4  A    between atoms: C7_9  and  O1_10 
REMARK    5  A    between atoms: O1_10  and  C8_11 
REMARK    6  A    between atoms: C11_14  and  N3_15 
REMARK    7  A    between atoms: N3_15  and  C12_16 
ROOT
HETATM    1  C8  UNL     1      24.471   0.812  52.372  1.00  0.00     0.114 A 
HETATM    2  C9  UNL     1      23.647   0.224  53.301  1.00  0.00     0.043 A 
HETATM    3  C10 UNL     1      22.305   0.443  53.475  1.00  0.00     0.032 A 
HETATM    4  C11 UNL     1      21.694   1.350  52.639  1.00  0.00     0.037 A 
HETATM    5  C13 UNL     1      22.433   2.012  51.654  1.00  0.00     0.074 A 
HETATM    6  C14 UNL     1      23.805   1.732  51.539  1.00  0.00     0.152 A 
HETATM    7  F1  UNL     1      24.280   2.507  50.509  1.00  0.00    -0.203 F 
ENDROOT
BRANCH   1   8
HETATM    8  O1  UNL     1      25.745   0.819  51.963  1.00  0.00    -0.307 OA
BRANCH   8   9
HETATM    9  C7  UNL     1      26.891   1.086  52.591  1.00  0.00     0.089 A 
HETATM   10  C3  UNL     1      27.437  -0.154  52.923  1.00  0.00     0.024 A 
HETATM   11  C4  UNL     1      28.658  -0.280  53.603  1.00  0.00     0.131 A 
HETATM   12  N2  UNL     1      29.349   0.843  53.958  1.00  0.00    -0.272 NA
HETATM   13  C5  UNL     1      28.860   2.055  53.658  1.00  0.00     0.119 A 
HETATM   14  C6  UNL     1      27.676   2.125  53.000  1.00  0.00     0.057 A 
BRANCH  10  15
HETATM   15  C2  UNL     1      26.935  -1.527  52.678  1.00  0.00     0.091 C 
BRANCH  15  16
HETATM   16  C1  UNL     1      27.871  -2.451  52.827  1.00  0.00    -0.024 C 
BRANCH  16  17
HETATM   17  N1  UNL     1      28.567  -3.496  53.090  1.00  0.00    -0.258 NA
HETATM   18  H1  UNL     1      28.896  -3.651  54.088  1.00  0.00     0.197 HD
ENDBRANCH  16  17
ENDBRANCH  15  16
ENDBRANCH  10  15
ENDBRANCH   8   9
ENDBRANCH   1   8
BRANCH   4  19
HETATM   19  N3  UNL     1      20.302   1.541  52.861  1.00  0.00    -0.334 N 
HETATM   20  H8  UNL     1      19.826   1.135  53.696  1.00  0.00     0.168 HD
BRANCH  19  21
HETATM   21  C12 UNL     1      19.578   2.306  51.904  1.00  0.00     0.353 C 
HETATM   22  O2  UNL     1      19.202   3.472  52.183  1.00  0.00    -0.283 OA
ENDBRANCH  19  21
ENDBRANCH   4  19
TORSDOF 7
ENDMDL
MODEL 4
REMARK VINA RESULT:      -6.8      2.806      6.772
REMARK  7 active torsions:
REMARK  status: ('A' for Active; 'I' for Inactive)
REMARK    1  A    between atoms: N1_1  and  C1_2 
REMARK    2  A    between atoms: C1_2  and  C2_3 
REMARK    3  A    between atoms: C2_3  and  C3_4 
REMARK    4  A    between atoms: C7_9  and  O1_10 
REMARK    5  A    between atoms: O1_10  and  C8_11 
REMARK    6  A    between atoms: C11_14  and  N3_15 
REMARK    7  A    between atoms: N3_15  and  C12_16 
ROOT
HETATM    1  C8  UNL     1      24.680   0.600  52.775  1.00  0.00     0.114 A 
HETATM    2  C9  UNL     1      24.866  -0.043  53.975  1.00  0.00     0.043 A 
HETATM    3  C10 UNL     1      26.061  -0.380  54.558  1.00  0.00     0.032 A 
HETATM    4  C11 UNL     1      27.214  -0.047  53.885  1.00  0.00     0.037 A 
HETATM    5  C13 UNL     1      27.149   0.610  52.652  1.00  0.00     0.074 A 
HETATM    6  C14 UNL     1      25.886   0.921  52.121  1.00  0.00     0.152 A 
HETATM    7  F1  UNL     1      26.108   1.554  50.923  1.00  0.00    -0.203 F 
ENDROOT
BRANCH   1   8
HETATM    8  O1  UNL     1      23.709   1.049  51.971  1.00  0.00    -0.307 OA
BRANCH   8   9
HETATM    9  C7  UNL     1      22.760   1.972  52.135  1.00  0.00     0.089 A 
HETATM   10  C3  UNL     1      21.590   1.264  52.409  1.00  0.00     0.024 A 
HETATM   11  C4  UNL     1      20.362   1.904  52.641  1.00  0.00     0.131 A 
HETATM   12  N2  UNL     1      20.295   3.267  52.602  1.00  0.00    -0.272 NA
HETATM   13  C5  UNL     1      21.397   3.985  52.342  1.00  0.00     0.119 A 
HETATM   14  C6  UNL     1      22.559   3.322  52.124  1.00  0.00     0.057 A 
BRANCH  10  15
HETATM   15  C2  UNL     1      21.345  -0.193  52.518  1.00  0.00     0.091 C 
BRANCH  15  16
HETATM   16  C1  UNL     1      21.130  -0.588  53.763  1.00  0.00    -0.024 C 
BRANCH  16  17
HETATM   17  N1  UNL     1      21.047  -1.209  54.881  1.00  0.00    -0.258 NA
HETATM   18  H1  UNL     1      21.359  -0.711  55.765  1.00  0.00     0.197 HD
ENDBRANCH  16  17
ENDBRANCH  15  16
ENDBRANCH  10  15
ENDBRANCH   8   9
ENDBRANCH   1   8
BRANCH   4  19
HETATM   19  N3  UNL     1      28.425  -0.418  54.532  1.00  0.00    -0.334 N 
HETATM   20  H8  UNL     1      28.593  -0.193  55.537  1.00  0.00     0.168 HD
BRANCH  19  21
HETATM   21  C12 UNL     1      29.403  -1.108  53.762  1.00  0.00     0.353 C 
HETATM   22  O2  UNL     1      29.256  -2.328  53.503  1.00  0.00    -0.283 OA
ENDBRANCH  19  21
ENDBRANCH   4  19
TORSDOF 7
ENDMDL
MODEL 5
REMARK VINA RESULT:      -6.7      3.343      7.081
REMARK  7 active torsions:
REMARK  status: ('A' for Active; 'I' for Inactive)
REMARK    1  A    between atoms: N1_1  and  C1_2 
REMARK    2  A    between atoms: C1_2  and  C2_3 
REMARK    3  A    between atoms: C2_3  and  C3_4 
REMARK    4  A    between atoms: C7_9  and  O1_10 
REMARK    5  A    between atoms: O1_10  and  C8_11 
REMARK    6  A    between atoms: C11_14  and  N3_15 
REMARK    7  A    between atoms: N3_15  and  C12_16 
ROOT
HETATM    1  C8  UNL     1      24.371   0.725  52.406  1.00  0.00     0.114 A 
HETATM    2  C9  UNL     1      24.485  -0.199  53.417  1.00  0.00     0.043 A 
HETATM    3  C10 UNL     1      25.642  -0.721  53.937  1.00  0.00     0.032 A 
HETATM    4  C11 UNL     1      26.833  -0.285  53.403  1.00  0.00     0.037 A 
HETATM    5  C13 UNL     1      26.841   0.656  52.367  1.00  0.00     0.074 A 
HETATM    6  C14 UNL     1      25.613   1.142  51.890  1.00  0.00     0.152 A 
HETATM    7  F1  UNL     1      25.906   2.037  50.891  1.00  0.00    -0.203 F 
ENDROOT
BRANCH   1   8
HETATM    8  O1  UNL     1      23.450   1.398  51.708  1.00  0.00    -0.307 OA
BRANCH   8   9
HETATM    9  C7  UNL     1      22.189   1.740  51.975  1.00  0.00     0.089 A 
HETATM   10  C3  UNL     1      22.131   3.124  51.814  1.00  0.00     0.024 A 
HETATM   11  C4  UNL     1      20.949   3.855  52.013  1.00  0.00     0.131 A 
HETATM   12  N2  UNL     1      19.807   3.202  52.378  1.00  0.00    -0.272 NA
HETATM   13  C5  UNL     1      19.819   1.871  52.544  1.00  0.00     0.119 A 
HETATM   14  C6  UNL     1      20.985   1.209  52.340  1.00  0.00     0.057 A 
BRANCH  10  15
HETATM   15  C2  UNL     1      23.181   4.097  51.431  1.00  0.00     0.091 C 
BRANCH  15  16
HETATM   16  C1  UNL     1      23.661   4.770  52.465  1.00  0.00    -0.024 C 
BRANCH  16  17
HETATM   17  N1  UNL     1      23.856   5.416  53.555  1.00  0.00    -0.258 NA
HETATM   18  H1  UNL     1      23.570   6.438  53.601  1.00  0.00     0.197 HD
ENDBRANCH  16  17
ENDBRANCH  15  16
ENDBRANCH  10  15
ENDBRANCH   8   9
ENDBRANCH   1   8
BRANCH   4  19
HETATM   19  N3  UNL     1      28.003  -0.855  53.976  1.00  0.00    -0.334 N 
HETATM   20  H8  UNL     1      28.110  -1.889  54.071  1.00  0.00     0.168 HD
BRANCH  19  21
HETATM   21  C12 UNL     1      29.025   0.031  54.417  1.00  0.00     0.353 C 
HETATM   22  O2  UNL     1      28.746   0.977  55.196  1.00  0.00    -0.283 OA
ENDBRANCH  19  21
ENDBRANCH   4  19
TORSDOF 7
ENDMDL
MODEL 6
REMARK VINA RESULT:      -6.5      4.613      5.366
REMARK  7 active torsions:
REMARK  status: ('A' for Active; 'I' for Inactive)
REMARK    1  A    between atoms: N1_1  and  C1_2 
REMARK    2  A    between atoms: C1_2  and  C2_3 
REMARK    3  A    between atoms: C2_3  and  C3_4 
REMARK    4  A    between atoms: C7_9  and  O1_10 
REMARK    5  A    between atoms: O1_10  and  C8_11 
REMARK    6  A    between atoms: C11_14  and  N3_15 
REMARK    7  A    between atoms: N3_15  and  C12_16 
ROOT
HETATM    1  C8  UNL     1      26.236   2.583  50.950  1.00  0.00     0.114 A 
HETATM    2  C9  UNL     1      26.445   3.384  49.853  1.00  0.00     0.043 A 
HETATM    3  C10 UNL     1      25.618   4.368  49.376  1.00  0.00     0.032 A 
HETATM    4  C11 UNL     1      24.442   4.597  50.055  1.00  0.00     0.037 A 
HETATM    5  C13 UNL     1      24.121   3.842  51.187  1.00  0.00     0.074 A 
HETATM    6  C14 UNL     1      25.022   2.851  51.613  1.00  0.00     0.152 A 
HETATM    7  F1  UNL     1      24.470   2.270  52.728  1.00  0.00    -0.203 F 
ENDROOT
BRANCH   1   8
HETATM    8  O1  UNL     1      26.807   1.590  51.641  1.00  0.00    -0.307 OA
BRANCH   8   9
HETATM    9  C7  UNL     1      27.621   1.581  52.698  1.00  0.00     0.089 A 
HETATM   10  C3  UNL     1      27.620   0.267  53.164  1.00  0.00     0.024 A 
HETATM   11  C4  UNL     1      28.370  -0.136  54.280  1.00  0.00     0.131 A 
HETATM   12  N2  UNL     1      29.134   0.781  54.943  1.00  0.00    -0.272 NA
HETATM   13  C5  UNL     1      29.164   2.056  54.528  1.00  0.00     0.119 A 
HETATM   14  C6  UNL     1      28.422   2.396  53.445  1.00  0.00     0.057 A 
BRANCH  10  15
HETATM   15  C2  UNL     1      26.906  -0.934  52.668  1.00  0.00     0.091 C 
BRANCH  15  16
HETATM   16  C1  UNL     1      27.630  -2.038  52.760  1.00  0.00    -0.024 C 
BRANCH  16  17
HETATM   17  N1  UNL     1      28.082  -3.237  52.804  1.00  0.00    -0.258 NA
HETATM   18  H1  UNL     1      27.750  -3.879  53.581  1.00  0.00     0.197 HD
ENDBRANCH  16  17
ENDBRANCH  15  16
ENDBRANCH  10  15
ENDBRANCH   8   9
ENDBRANCH   1   8
BRANCH   4  19
HETATM   19  N3  UNL     1      23.620   5.628  49.520  1.00  0.00    -0.334 N 
HETATM   20  H8  UNL     1      22.941   6.144  50.121  1.00  0.00     0.168 HD
BRANCH  19  21
HETATM   21  C12 UNL     1      23.756   5.933  48.137  1.00  0.00     0.353 C 
HETATM   22  O2  UNL     1      23.145   6.915  47.646  1.00  0.00    -0.283 OA
ENDBRANCH  19  21
ENDBRANCH   4  19
TORSDOF 7
ENDMDL
MODEL 7
REMARK VINA RESULT:      -6.4      2.362      3.588
REMARK  7 active torsions:
REMARK  status: ('A' for Active; 'I' for Inactive)
REMARK    1  A    between atoms: N1_1  and  C1_2 
REMARK    2  A    between atoms: C1_2  and  C2_3 
REMARK    3  A    between atoms: C2_3  and  C3_4 
REMARK    4  A    between atoms: C7_9  and  O1_10 
REMARK    5  A    between atoms: O1_10  and  C8_11 
REMARK    6  A    between atoms: C11_14  and  N3_15 
REMARK    7  A    between atoms: N3_15  and  C12_16 
ROOT
HETATM    1  C8  UNL     1      22.280  -0.360  53.127  1.00  0.00     0.114 A 
HETATM    2  C9  UNL     1      21.747  -1.262  54.016  1.00  0.00     0.043 A 
HETATM    3  C10 UNL     1      20.422  -1.565  54.196  1.00  0.00     0.032 A 
HETATM    4  C11 UNL     1      19.505  -0.904  53.410  1.00  0.00     0.037 A 
HETATM    5  C13 UNL     1      19.931   0.038  52.468  1.00  0.00     0.074 A 
HETATM    6  C14 UNL     1      21.307   0.292  52.344  1.00  0.00     0.152 A 
HETATM    7  F1  UNL     1      21.445   1.243  51.363  1.00  0.00    -0.203 F 
ENDROOT
BRANCH   1   8
HETATM    8  O1  UNL     1      23.454   0.139  52.725  1.00  0.00    -0.307 OA
BRANCH   8   9
HETATM    9  C7  UNL     1      24.617   0.323  53.352  1.00  0.00     0.089 A 
HETATM   10  C3  UNL     1      24.913   1.678  53.209  1.00  0.00     0.024 A 
HETATM   11  C4  UNL     1      26.075   2.254  53.745  1.00  0.00     0.131 A 
HETATM   12  N2  UNL     1      26.957   1.473  54.435  1.00  0.00    -0.272 NA
HETATM   13  C5  UNL     1      26.710   0.165  54.597  1.00  0.00     0.119 A 
HETATM   14  C6  UNL     1      25.574  -0.345  54.060  1.00  0.00     0.057 A 
BRANCH  10  15
HETATM   15  C2  UNL     1      24.168   2.763  52.527  1.00  0.00     0.091 C 
BRANCH  15  16
HETATM   16  C1  UNL     1      24.917   3.444  51.674  1.00  0.00    -0.024 C 
BRANCH  16  17
HETATM   17  N1  UNL     1      25.392   4.175  50.733  1.00  0.00    -0.258 NA
HETATM   18  H1  UNL     1      25.206   3.893  49.726  1.00  0.00     0.197 HD
ENDBRANCH  16  17
ENDBRANCH  15  16
ENDBRANCH  10  15
ENDBRANCH   8   9
ENDBRANCH   1   8
BRANCH   4  19
HETATM   19  N3  UNL     1      18.145  -1.253  53.635  1.00  0.00    -0.334 N 
HETATM   20  H8  UNL     1      17.416  -0.521  53.782  1.00  0.00     0.168 HD
BRANCH  19  21
HETATM   21  C12 UNL     1      17.810  -2.635  53.653  1.00  0.00     0.353 C 
HETATM   22  O2  UNL     1      16.720  -3.027  53.165  1.00  0.00    -0.283 OA
ENDBRANCH  19  21
ENDBRANCH   4  19
TORSDOF 7
ENDMDL
MODEL 8
REMARK VINA RESULT:      -6.3      2.398      7.337
REMARK  7 active torsions:
REMARK  status: ('A' for Active; 'I' for Inactive)
REMARK    1  A    between atoms: N1_1  and  C1_2 
REMARK    2  A    between atoms: C1_2  and  C2_3 
REMARK    3  A    between atoms: C2_3  and  C3_4 
REMARK    4  A    between atoms: C7_9  and  O1_10 
REMARK    5  A    between atoms: O1_10  and  C8_11 
REMARK    6  A    between atoms: C11_14  and  N3_15 
REMARK    7  A    between atoms: N3_15  and  C12_16 
ROOT
HETATM    1  C8  UNL     1      24.477   0.283  52.967  1.00  0.00     0.114 A 
HETATM    2  C9  UNL     1      25.524  -0.597  53.099  1.00  0.00     0.043 A 
HETATM    3  C10 UNL     1      26.788  -0.319  53.553  1.00  0.00     0.032 A 
HETATM    4  C11 UNL     1      27.061   0.979  53.922  1.00  0.00     0.037 A 
HETATM    5  C13 UNL     1      26.071   1.963  53.830  1.00  0.00     0.074 A 
HETATM    6  C14 UNL     1      24.801   1.598  53.355  1.00  0.00     0.152 A 
HETATM    7  F1  UNL     1      24.034   2.737  53.365  1.00  0.00    -0.203 F 
ENDROOT
BRANCH   1   8
HETATM    8  O1  UNL     1      23.197   0.331  52.579  1.00  0.00    -0.307 OA
BRANCH   8   9
HETATM    9  C7  UNL     1      22.092  -0.249  53.048  1.00  0.00     0.089 A 
HETATM   10  C3  UNL     1      21.029   0.395  52.416  1.00  0.00     0.024 A 
HETATM   11  C4  UNL     1      19.690   0.053  52.660  1.00  0.00     0.131 A 
HETATM   12  N2  UNL     1      19.401  -0.946  53.545  1.00  0.00    -0.272 NA
HETATM   13  C5  UNL     1      20.394  -1.592  54.175  1.00  0.00     0.119 A 
HETATM   14  C6  UNL     1      21.671  -1.225  53.906  1.00  0.00     0.057 A 
BRANCH  10  15
HETATM   15  C2  UNL     1      21.020   1.496  51.424  1.00  0.00     0.091 C 
BRANCH  15  16
HETATM   16  C1  UNL     1      20.507   2.618  51.905  1.00  0.00    -0.024 C 
BRANCH  16  17
HETATM   17  N1  UNL     1      19.812   3.663  52.170  1.00  0.00    -0.258 NA
HETATM   18  H1  UNL     1      18.765   3.557  52.309  1.00  0.00     0.197 HD
ENDBRANCH  16  17
ENDBRANCH  15  16
ENDBRANCH  10  15
ENDBRANCH   8   9
ENDBRANCH   1   8
BRANCH   4  19
HETATM   19  N3  UNL     1      28.385   1.215  54.386  1.00  0.00    -0.334 N 
HETATM   20  H8  UNL     1      28.675   2.153  54.738  1.00  0.00     0.168 HD
BRANCH  19  21
HETATM   21  C12 UNL     1      29.302   0.128  54.353  1.00  0.00     0.353 C 
HETATM   22  O2  UNL     1      30.214   0.098  53.488  1.00  0.00    -0.283 OA
ENDBRANCH  19  21
ENDBRANCH   4  19
TORSDOF 7
ENDMDL
MODEL 9
REMARK VINA RESULT:      -6.3      5.147      7.336
REMARK  7 active torsions:
REMARK  status: ('A' for Active; 'I' for Inactive)
REMARK    1  A    between atoms: N1_1  and  C1_2 
REMARK    2  A    between atoms: C1_2  and  C2_3 
REMARK    3  A    between atoms: C2_3  and  C3_4 
REMARK    4  A    between atoms: C7_9  and  O1_10 
REMARK    5  A    between atoms: O1_10  and  C8_11 
REMARK    6  A    between atoms: C11_14  and  N3_15 
REMARK    7  A    between atoms: N3_15  and  C12_16 
ROOT
HETATM    1  C8  UNL     1      25.036   3.782  50.582  1.00  0.00     0.114 A 
HETATM    2  C9  UNL     1      24.336   4.895  50.980  1.00  0.00     0.043 A 
HETATM    3  C10 UNL     1      24.554   6.194  50.596  1.00  0.00     0.032 A 
HETATM    4  C11 UNL     1      25.584   6.433  49.714  1.00  0.00     0.037 A 
HETATM    5  C13 UNL     1      26.367   5.376  49.240  1.00  0.00     0.074 A 
HETATM    6  C14 UNL     1      26.080   4.073  49.681  1.00  0.00     0.152 A 
HETATM    7  F1  UNL     1      26.987   3.242  49.071  1.00  0.00    -0.203 F 
ENDROOT
BRANCH   1   8
HETATM    8  O1  UNL     1      25.078   2.457  50.759  1.00  0.00    -0.307 OA
BRANCH   8   9
HETATM    9  C7  UNL     1      24.523   1.652  51.666  1.00  0.00     0.089 A 
HETATM   10  C3  UNL     1      25.586   1.033  52.322  1.00  0.00     0.024 A 
HETATM   11  C4  UNL     1      25.393   0.104  53.357  1.00  0.00     0.131 A 
HETATM   12  N2  UNL     1      24.124  -0.215  53.746  1.00  0.00    -0.272 NA
HETATM   13  C5  UNL     1      23.073   0.357  53.140  1.00  0.00     0.119 A 
HETATM   14  C6  UNL     1      23.311   1.248  52.147  1.00  0.00     0.057 A 
BRANCH  10  15
HETATM   15  C2  UNL     1      27.050   1.169  52.132  1.00  0.00     0.091 C 
BRANCH  15  16
HETATM   16  C1  UNL     1      27.607   2.003  52.996  1.00  0.00    -0.024 C 
BRANCH  16  17
HETATM   17  N1  UNL     1      27.946   2.711  54.010  1.00  0.00    -0.258 NA
HETATM   18  H1  UNL     1      27.988   3.767  53.903  1.00  0.00     0.197 HD
ENDBRANCH  16  17
ENDBRANCH  15  16
ENDBRANCH  10  15
ENDBRANCH   8   9
ENDBRANCH   1   8
BRANCH   4  19
HETATM   19  N3  UNL     1      25.768   7.794  49.347  1.00  0.00    -0.334 N 
HETATM   20  H8  UNL     1      25.207   8.229  48.582  1.00  0.00     0.168 HD
BRANCH  19  21
HETATM   21  C12 UNL     1      26.745   8.546  50.058  1.00  0.00     0.353 C 
HETATM   22  O2  UNL     1      26.556   9.766  50.289  1.00  0.00    -0.283 OA
ENDBRANCH  19  21
ENDBRANCH   4  19
TORSDOF 7
ENDMDL
