MODEL 1
REMARK VINA RESULT:      -8.4      0.000      0.000
REMARK  2 active torsions:
REMARK  status: ('A' for Active; 'I' for Inactive)
REMARK    1  A    between atoms: N1_2  and  C3_4 
REMARK    2  A    between atoms: C9_13  and  O1_14 
ROOT
HETATM    1  C3  UNL     1      27.583  -0.632  53.098  1.00  0.00     0.723 A 
HETATM    2  N2  UNL     1      26.440  -1.209  53.186  1.00  0.00    -0.056 NA
HETATM    3  C4  UNL     1      25.171  -0.513  52.968  1.00  0.00     0.382 A 
HETATM    4  N3  UNL     1      24.450  -0.528  54.162  1.00  0.00    -0.146 NA
HETATM    5  N4  UNL     1      23.357  -0.858  54.497  1.00  0.00    -0.190 NA
HETATM    6  C5  UNL     1      22.402  -1.394  53.581  1.00  0.00     0.200 C 
HETATM    7  C6  UNL     1      21.210  -0.511  53.474  1.00  0.00    -0.007 C 
HETATM    8  C7  UNL     1      20.546   0.174  52.573  1.00  0.00    -0.026 C 
HETATM    9  C8  UNL     1      20.715   0.383  51.119  1.00  0.00     0.065 C 
HETATM   10  C9  UNL     1      20.950   1.839  50.787  1.00  0.00     0.176 C 
HETATM   11  C10 UNL     1      22.197   2.264  51.526  1.00  0.00     0.013 A 
HETATM   12  C11 UNL     1      23.241   1.391  51.725  1.00  0.00     0.042 A 
HETATM   13  C12 UNL     1      24.366   1.777  52.415  1.00  0.00     0.040 A 
HETATM   14  C13 UNL     1      24.454   3.059  52.916  1.00  0.00     0.033 A 
HETATM   15  C14 UNL     1      23.432   3.971  52.741  1.00  0.00     0.045 A 
HETATM   16  C15 UNL     1      22.317   3.534  52.038  1.00  0.00     0.125 A 
HETATM   17  F1  UNL     1      21.268   4.372  51.824  1.00  0.00    -0.205 F 
HETATM   18  N5  UNL     1      25.480   0.893  52.657  1.00  0.00    -0.297 N 
HETATM   19  C16 UNL     1      26.745   1.479  52.571  1.00  0.00     0.233 A 
HETATM   20  N6  UNL     1      27.756   0.743  52.784  1.00  0.00    -0.058 NA
ENDROOT
BRANCH   1  21
HETATM   21  N1  UNL     1      28.778  -1.399  53.331  1.00  0.00    -0.223 N 
HETATM   22  C1  UNL     1      28.752  -2.829  53.130  1.00  0.00     0.168 C 
HETATM   23  C2  UNL     1      30.013  -0.777  53.764  1.00  0.00     0.168 C 
ENDBRANCH   1  21
BRANCH  10  24
HETATM   24  O1  UNL     1      19.882   2.640  51.147  1.00  0.00    -0.302 OA
HETATM   25 BR1  UNL     1      18.366   2.315  50.159  1.00  0.00     0.100 Br
ENDBRANCH  10  24
TORSDOF 2
ENDMDL
MODEL 2
REMARK VINA RESULT:      -8.1      4.491      7.512
REMARK  2 active torsions:
REMARK  status: ('A' for Active; 'I' for Inactive)
REMARK    1  A    between atoms: N1_2  and  C3_4 
REMARK    2  A    between atoms: C9_13  and  O1_14 
ROOT
HETATM    1  C3  UNL     1      18.536   1.428  50.203  1.00  0.00     0.723 A 
HETATM    2  N2  UNL     1      19.589   2.160  50.258  1.00  0.00    -0.056 NA
HETATM    3  C4  UNL     1      20.734   1.855  51.117  1.00  0.00     0.382 A 
HETATM    4  N3  UNL     1      20.864   2.879  52.056  1.00  0.00    -0.146 NA
HETATM    5  N4  UNL     1      21.737   3.605  52.414  1.00  0.00    -0.190 NA
HETATM    6  C5  UNL     1      23.050   3.561  51.857  1.00  0.00     0.200 C 
HETATM    7  C6  UNL     1      24.056   3.189  52.887  1.00  0.00    -0.007 C 
HETATM    8  C7  UNL     1      24.956   2.265  53.122  1.00  0.00    -0.026 C 
HETATM    9  C8  UNL     1      25.409   1.066  52.383  1.00  0.00     0.065 C 
HETATM   10  C9  UNL     1      25.168  -0.201  53.172  1.00  0.00     0.176 C 
HETATM   11  C10 UNL     1      23.683  -0.278  53.438  1.00  0.00     0.013 A 
HETATM   12  C11 UNL     1      22.768   0.187  52.523  1.00  0.00     0.042 A 
HETATM   13  C12 UNL     1      21.419   0.132  52.778  1.00  0.00     0.040 A 
HETATM   14  C13 UNL     1      20.970  -0.400  53.969  1.00  0.00     0.033 A 
HETATM   15  C14 UNL     1      21.849  -0.882  54.919  1.00  0.00     0.045 A 
HETATM   16  C15 UNL     1      23.202  -0.802  54.615  1.00  0.00     0.125 A 
HETATM   17  F1  UNL     1      24.132  -1.254  55.498  1.00  0.00    -0.205 F 
HETATM   18  N5  UNL     1      20.424   0.618  51.853  1.00  0.00    -0.297 N 
HETATM   19  C16 UNL     1      19.260  -0.149  51.760  1.00  0.00     0.233 A 
HETATM   20  N6  UNL     1      18.352   0.243  50.965  1.00  0.00    -0.058 NA
ENDROOT
BRANCH   1  21
HETATM   21  N1  UNL     1      17.460   1.809  49.328  1.00  0.00    -0.223 N 
HETATM   22  C1  UNL     1      16.261   1.006  49.288  1.00  0.00     0.168 C 
HETATM   23  C2  UNL     1      17.543   2.981  48.480  1.00  0.00     0.168 C 
ENDBRANCH   1  21
BRANCH  10  24
HETATM   24  O1  UNL     1      25.871  -0.222  54.362  1.00  0.00    -0.302 OA
HETATM   25 BR1  UNL     1      27.681   0.006  54.140  1.00  0.00     0.100 Br
ENDBRANCH  10  24
TORSDOF 2
ENDMDL
MODEL 3
REMARK VINA RESULT:      -7.8      4.389      6.349
REMARK  2 active torsions:
REMARK  status: ('A' for Active; 'I' for Inactive)
REMARK    1  A    between atoms: N1_2  and  C3_4 
REMARK    2  A    between atoms: C9_13  and  O1_14 
ROOT
HETATM    1  C3  UNL     1      24.599   6.059  48.547  1.00  0.00     0.723 A 
HETATM    2  N2  UNL     1      23.541   5.333  48.562  1.00  0.00    -0.056 NA
HETATM    3  C4  UNL     1      23.413   4.119  49.369  1.00  0.00     0.382 A 
HETATM    4  N3  UNL     1      23.262   3.032  48.507  1.00  0.00    -0.146 NA
HETATM    5  N4  UNL     1      22.484   2.139  48.385  1.00  0.00    -0.190 NA
HETATM    6  C5  UNL     1      21.360   1.977  49.250  1.00  0.00     0.200 C 
HETATM    7  C6  UNL     1      21.449   0.701  50.010  1.00  0.00    -0.007 C 
HETATM    8  C7  UNL     1      21.492   0.272  51.248  1.00  0.00    -0.026 C 
HETATM    9  C8  UNL     1      21.466   0.945  52.565  1.00  0.00     0.065 C 
HETATM   10  C9  UNL     1      22.731   0.686  53.352  1.00  0.00     0.176 C 
HETATM   11  C10 UNL     1      23.880   1.205  52.520  1.00  0.00     0.013 A 
HETATM   12  C11 UNL     1      23.740   2.318  51.724  1.00  0.00     0.042 A 
HETATM   13  C12 UNL     1      24.784   2.775  50.955  1.00  0.00     0.040 A 
HETATM   14  C13 UNL     1      25.993   2.111  50.980  1.00  0.00     0.033 A 
HETATM   15  C14 UNL     1      26.183   0.991  51.764  1.00  0.00     0.045 A 
HETATM   16  C15 UNL     1      25.098   0.568  52.522  1.00  0.00     0.125 A 
HETATM   17  F1  UNL     1      25.204  -0.528  53.320  1.00  0.00    -0.205 F 
HETATM   18  N5  UNL     1      24.680   3.931  50.096  1.00  0.00    -0.297 N 
HETATM   19  C16 UNL     1      25.809   4.751  50.050  1.00  0.00     0.233 A 
HETATM   20  N6  UNL     1      25.768   5.776  49.303  1.00  0.00    -0.058 NA
ENDROOT
BRANCH   1  21
HETATM   21  N1  UNL     1      24.632   7.236  47.720  1.00  0.00    -0.223 N 
HETATM   22  C1  UNL     1      23.520   7.517  46.843  1.00  0.00     0.168 C 
HETATM   23  C2  UNL     1      25.753   8.153  47.740  1.00  0.00     0.168 C 
ENDBRANCH   1  21
BRANCH  10  24
HETATM   24  O1  UNL     1      22.909  -0.656  53.634  1.00  0.00    -0.302 OA
HETATM   25 BR1  UNL     1      21.501  -1.397  54.554  1.00  0.00     0.100 Br
ENDBRANCH  10  24
TORSDOF 2
ENDMDL
MODEL 4
REMARK VINA RESULT:      -7.5      1.853      3.359
REMARK  2 active torsions:
REMARK  status: ('A' for Active; 'I' for Inactive)
REMARK    1  A    between atoms: N1_2  and  C3_4 
REMARK    2  A    between atoms: C9_13  and  O1_14 
ROOT
HETATM    1  C3  UNL     1      27.565   0.794  53.906  1.00  0.00     0.723 A 
HETATM    2  N2  UNL     1      27.075   1.690  53.130  1.00  0.00    -0.056 NA
HETATM    3  C4  UNL     1      25.661   1.743  52.758  1.00  0.00     0.382 A 
HETATM    4  N3  UNL     1      25.561   1.541  51.381  1.00  0.00    -0.146 NA
HETATM    5  N4  UNL     1      25.055   2.113  50.467  1.00  0.00    -0.190 NA
HETATM    6  C5  UNL     1      24.323   3.327  50.632  1.00  0.00     0.200 C 
HETATM    7  C6  UNL     1      22.899   3.151  50.239  1.00  0.00    -0.007 C 
HETATM    8  C7  UNL     1      21.697   3.255  50.753  1.00  0.00    -0.026 C 
HETATM    9  C8  UNL     1      21.185   3.638  52.086  1.00  0.00     0.065 C 
HETATM   10  C9  UNL     1      20.415   2.510  52.735  1.00  0.00     0.176 C 
HETATM   11  C10 UNL     1      21.364   1.340  52.853  1.00  0.00     0.013 A 
HETATM   12  C11 UNL     1      22.705   1.531  53.092  1.00  0.00     0.042 A 
HETATM   13  C12 UNL     1      23.568   0.464  53.181  1.00  0.00     0.040 A 
HETATM   14  C13 UNL     1      23.085  -0.820  53.029  1.00  0.00     0.033 A 
HETATM   15  C14 UNL     1      21.747  -1.061  52.789  1.00  0.00     0.045 A 
HETATM   16  C15 UNL     1      20.916   0.049  52.708  1.00  0.00     0.125 A 
HETATM   17  F1  UNL     1      19.586  -0.105  52.473  1.00  0.00    -0.205 F 
HETATM   18  N5  UNL     1      24.983   0.616  53.419  1.00  0.00    -0.297 N 
HETATM   19  C16 UNL     1      25.558  -0.339  54.260  1.00  0.00     0.233 A 
HETATM   20  N6  UNL     1      26.803  -0.252  54.493  1.00  0.00    -0.058 NA
ENDROOT
BRANCH   1  21
HETATM   21  N1  UNL     1      28.971   0.823  54.215  1.00  0.00    -0.223 N 
HETATM   22  C1  UNL     1      29.784  -0.333  53.922  1.00  0.00     0.168 C 
HETATM   23  C2  UNL     1      29.597   1.983  54.814  1.00  0.00     0.168 C 
ENDBRANCH   1  21
BRANCH  10  24
HETATM   24  O1  UNL     1      19.296   2.149  52.006  1.00  0.00    -0.302 OA
HETATM   25 BR1  UNL     1      18.229   3.577  51.561  1.00  0.00     0.100 Br
ENDBRANCH  10  24
TORSDOF 2
ENDMDL
MODEL 5
REMARK VINA RESULT:      -7.4      2.691      4.439
REMARK  2 active torsions:
REMARK  status: ('A' for Active; 'I' for Inactive)
REMARK    1  A    between atoms: N1_2  and  C3_4 
REMARK    2  A    between atoms: C9_13  and  O1_14 
ROOT
HETATM    1  C3  UNL     1      27.406   0.902  52.944  1.00  0.00     0.723 A 
HETATM    2  N2  UNL     1      27.542   1.980  52.261  1.00  0.00    -0.056 NA
HETATM    3  C4  UNL     1      26.421   2.680  51.634  1.00  0.00     0.382 A 
HETATM    4  N3  UNL     1      26.601   2.650  50.251  1.00  0.00    -0.146 NA
HETATM    5  N4  UNL     1      26.626   3.454  49.374  1.00  0.00    -0.190 NA
HETATM    6  C5  UNL     1      26.442   4.850  49.607  1.00  0.00     0.200 C 
HETATM    7  C6  UNL     1      25.222   5.351  48.918  1.00  0.00    -0.007 C 
HETATM    8  C7  UNL     1      24.082   5.936  49.195  1.00  0.00    -0.026 C 
HETATM    9  C8  UNL     1      23.450   6.402  50.449  1.00  0.00     0.065 C 
HETATM   10  C9  UNL     1      22.148   5.683  50.719  1.00  0.00     0.176 C 
HETATM   11  C10 UNL     1      22.469   4.209  50.810  1.00  0.00     0.013 A 
HETATM   12  C11 UNL     1      23.660   3.769  51.338  1.00  0.00     0.042 A 
HETATM   13  C12 UNL     1      23.955   2.428  51.401  1.00  0.00     0.040 A 
HETATM   14  C13 UNL     1      23.044   1.505  50.928  1.00  0.00     0.033 A 
HETATM   15  C14 UNL     1      21.835   1.898  50.391  1.00  0.00     0.045 A 
HETATM   16  C15 UNL     1      21.584   3.264  50.349  1.00  0.00     0.125 A 
HETATM   17  F1  UNL     1      20.416   3.731  49.834  1.00  0.00    -0.205 F 
HETATM   18  N5  UNL     1      25.196   1.921  51.935  1.00  0.00    -0.297 N 
HETATM   19  C16 UNL     1      25.093   0.749  52.687  1.00  0.00     0.233 A 
HETATM   20  N6  UNL     1      26.159   0.259  53.172  1.00  0.00    -0.058 NA
ENDROOT
BRANCH   1  21
HETATM   21  N1  UNL     1      28.569   0.284  53.523  1.00  0.00    -0.223 N 
HETATM   22  C1  UNL     1      29.420   1.056  54.398  1.00  0.00     0.168 C 
HETATM   23  C2  UNL     1      28.915  -1.096  53.252  1.00  0.00     0.168 C 
ENDBRANCH   1  21
BRANCH  10  24
HETATM   24  O1  UNL     1      21.206   5.910  49.732  1.00  0.00    -0.302 OA
HETATM   25 BR1  UNL     1      20.625   7.652  49.671  1.00  0.00     0.100 Br
ENDBRANCH  10  24
TORSDOF 2
ENDMDL
MODEL 6
REMARK VINA RESULT:      -7.3      2.093      2.343
REMARK  2 active torsions:
REMARK  status: ('A' for Active; 'I' for Inactive)
REMARK    1  A    between atoms: N1_2  and  C3_4 
REMARK    2  A    between atoms: C9_13  and  O1_14 
ROOT
HETATM    1  C3  UNL     1      27.148   0.735  52.821  1.00  0.00     0.723 A 
HETATM    2  N2  UNL     1      25.964   0.243  52.768  1.00  0.00    -0.056 NA
HETATM    3  C4  UNL     1      24.859   0.889  52.059  1.00  0.00     0.382 A 
HETATM    4  N3  UNL     1      23.881   1.235  52.993  1.00  0.00    -0.146 NA
HETATM    5  N4  UNL     1      22.712   1.048  53.116  1.00  0.00    -0.190 NA
HETATM    6  C5  UNL     1      21.949   0.306  52.165  1.00  0.00     0.200 C 
HETATM    7  C6  UNL     1      20.909   1.160  51.530  1.00  0.00    -0.007 C 
HETATM    8  C7  UNL     1      20.547   1.583  50.342  1.00  0.00    -0.026 C 
HETATM    9  C8  UNL     1      21.071   1.367  48.976  1.00  0.00     0.065 C 
HETATM   10  C9  UNL     1      21.522   2.662  48.339  1.00  0.00     0.176 C 
HETATM   11  C10 UNL     1      22.599   3.238  49.229  1.00  0.00     0.013 A 
HETATM   12  C11 UNL     1      23.474   2.424  49.910  1.00  0.00     0.042 A 
HETATM   13  C12 UNL     1      24.440   2.953  50.733  1.00  0.00     0.040 A 
HETATM   14  C13 UNL     1      24.537   4.322  50.881  1.00  0.00     0.033 A 
HETATM   15  C14 UNL     1      23.682   5.180  50.217  1.00  0.00     0.045 A 
HETATM   16  C15 UNL     1      22.724   4.597  49.398  1.00  0.00     0.125 A 
HETATM   17  F1  UNL     1      21.844   5.373  48.712  1.00  0.00    -0.205 F 
HETATM   18  N5  UNL     1      25.372   2.139  51.475  1.00  0.00    -0.297 N 
HETATM   19  C16 UNL     1      26.674   2.637  51.558  1.00  0.00     0.233 A 
HETATM   20  N6  UNL     1      27.528   1.959  52.207  1.00  0.00    -0.058 NA
ENDROOT
BRANCH   1  21
HETATM   21  N1  UNL     1      28.172   0.027  53.543  1.00  0.00    -0.223 N 
HETATM   22  C1  UNL     1      28.469  -1.341  53.192  1.00  0.00     0.168 C 
HETATM   23  C2  UNL     1      28.918   0.650  54.618  1.00  0.00     0.168 C 
ENDBRANCH   1  21
BRANCH  10  24
HETATM   24  O1  UNL     1      20.486   3.565  48.192  1.00  0.00    -0.302 OA
HETATM   25 BR1  UNL     1      19.424   3.219  46.733  1.00  0.00     0.100 Br
ENDBRANCH  10  24
TORSDOF 2
ENDMDL
MODEL 7
REMARK VINA RESULT:      -7.2      7.643      9.666
REMARK  2 active torsions:
REMARK  status: ('A' for Active; 'I' for Inactive)
REMARK    1  A    between atoms: N1_2  and  C3_4 
REMARK    2  A    between atoms: C9_13  and  O1_14 
ROOT
HETATM    1  C3  UNL     1      27.752  11.068  48.665  1.00  0.00     0.723 A 
HETATM    2  N2  UNL     1      26.544  10.698  48.436  1.00  0.00    -0.056 NA
HETATM    3  C4  UNL     1      26.106   9.303  48.498  1.00  0.00     0.382 A 
HETATM    4  N3  UNL     1      25.691   8.916  47.223  1.00  0.00    -0.146 NA
HETATM    5  N4  UNL     1      24.713   8.424  46.756  1.00  0.00    -0.190 NA
HETATM    6  C5  UNL     1      23.578   8.071  47.546  1.00  0.00     0.200 C 
HETATM    7  C6  UNL     1      23.335   6.604  47.507  1.00  0.00    -0.007 C 
HETATM    8  C7  UNL     1      23.259   5.578  48.321  1.00  0.00    -0.026 C 
HETATM    9  C8  UNL     1      23.394   5.422  49.785  1.00  0.00     0.065 C 
HETATM   10  C9  UNL     1      24.546   4.512  50.147  1.00  0.00     0.176 C 
HETATM   11  C10 UNL     1      25.796   5.133  49.568  1.00  0.00     0.013 A 
HETATM   12  C11 UNL     1      25.948   6.498  49.497  1.00  0.00     0.042 A 
HETATM   13  C12 UNL     1      27.080   7.057  48.953  1.00  0.00     0.040 A 
HETATM   14  C13 UNL     1      28.081   6.240  48.469  1.00  0.00     0.033 A 
HETATM   15  C14 UNL     1      27.974   4.865  48.519  1.00  0.00     0.045 A 
HETATM   16  C15 UNL     1      26.812   4.348  49.077  1.00  0.00     0.125 A 
HETATM   17  F1  UNL     1      26.631   3.003  49.163  1.00  0.00    -0.205 F 
HETATM   18  N5  UNL     1      27.278   8.483  48.847  1.00  0.00    -0.297 N 
HETATM   19  C16 UNL     1      28.579   8.930  49.090  1.00  0.00     0.233 A 
HETATM   20  N6  UNL     1      28.805  10.175  49.001  1.00  0.00    -0.058 NA
ENDROOT
BRANCH   1  21
HETATM   21  N1  UNL     1      28.088  12.464  48.579  1.00  0.00    -0.223 N 
HETATM   22  C1  UNL     1      29.446  12.883  48.833  1.00  0.00     0.168 C 
HETATM   23  C2  UNL     1      27.099  13.469  48.245  1.00  0.00     0.168 C 
ENDBRANCH   1  21
BRANCH  10  24
HETATM   24  O1  UNL     1      24.376   3.229  49.660  1.00  0.00    -0.302 OA
HETATM   25 BR1  UNL     1      23.475   2.125  50.821  1.00  0.00     0.100 Br
ENDBRANCH  10  24
TORSDOF 2
ENDMDL
MODEL 8
REMARK VINA RESULT:      -7.2      4.581      7.548
REMARK  2 active torsions:
REMARK  status: ('A' for Active; 'I' for Inactive)
REMARK    1  A    between atoms: N1_2  and  C3_4 
REMARK    2  A    between atoms: C9_13  and  O1_14 
ROOT
HETATM    1  C3  UNL     1      19.748   3.353  48.561  1.00  0.00     0.723 A 
HETATM    2  N2  UNL     1      20.697   3.972  49.164  1.00  0.00    -0.056 NA
HETATM    3  C4  UNL     1      21.517   3.359  50.210  1.00  0.00     0.382 A 
HETATM    4  N3  UNL     1      21.297   4.050  51.403  1.00  0.00    -0.146 NA
HETATM    5  N4  UNL     1      21.978   4.584  52.220  1.00  0.00    -0.190 NA
HETATM    6  C5  UNL     1      23.401   4.629  52.123  1.00  0.00     0.200 C 
HETATM    7  C6  UNL     1      24.037   3.910  53.259  1.00  0.00    -0.007 C 
HETATM    8  C7  UNL     1      24.851   2.906  53.481  1.00  0.00    -0.026 C 
HETATM    9  C8  UNL     1      25.565   1.954  52.603  1.00  0.00     0.065 C 
HETATM   10  C9  UNL     1      25.135   0.527  52.857  1.00  0.00     0.176 C 
HETATM   11  C10 UNL     1      23.647   0.463  52.600  1.00  0.00     0.013 A 
HETATM   12  C11 UNL     1      23.057   1.232  51.625  1.00  0.00     0.042 A 
HETATM   13  C12 UNL     1      21.701   1.184  51.408  1.00  0.00     0.040 A 
HETATM   14  C13 UNL     1      20.915   0.352  52.178  1.00  0.00     0.033 A 
HETATM   15  C14 UNL     1      21.461  -0.440  53.168  1.00  0.00     0.045 A 
HETATM   16  C15 UNL     1      22.836  -0.355  53.349  1.00  0.00     0.125 A 
HETATM   17  F1  UNL     1      23.450  -1.103  54.305  1.00  0.00    -0.205 F 
HETATM   18  N5  UNL     1      21.037   1.981  50.405  1.00  0.00    -0.297 N 
HETATM   19  C16 UNL     1      19.997   1.346  49.722  1.00  0.00     0.233 A 
HETATM   20  N6  UNL     1      19.377   2.008  48.835  1.00  0.00    -0.058 NA
ENDROOT
BRANCH   1  21
HETATM   21  N1  UNL     1      18.996   4.039  47.545  1.00  0.00    -0.223 N 
HETATM   22  C1  UNL     1      18.726   5.450  47.694  1.00  0.00     0.168 C 
HETATM   23  C2  UNL     1      18.496   3.353  46.371  1.00  0.00     0.168 C 
ENDBRANCH   1  21
BRANCH  10  24
HETATM   24  O1  UNL     1      25.419   0.114  54.145  1.00  0.00    -0.302 OA
HETATM   25 BR1  UNL     1      27.204   0.226  54.567  1.00  0.00     0.100 Br
ENDBRANCH  10  24
TORSDOF 2
ENDMDL
MODEL 9
REMARK VINA RESULT:      -7.1      5.135      7.605
REMARK  2 active torsions:
REMARK  status: ('A' for Active; 'I' for Inactive)
REMARK    1  A    between atoms: N1_2  and  C3_4 
REMARK    2  A    between atoms: C9_13  and  O1_14 
ROOT
HETATM    1  C3  UNL     1      22.053   7.732  49.674  1.00  0.00     0.723 A 
HETATM    2  N2  UNL     1      21.439   6.646  49.975  1.00  0.00    -0.056 NA
HETATM    3  C4  UNL     1      22.131   5.407  50.334  1.00  0.00     0.382 A 
HETATM    4  N3  UNL     1      21.838   4.443  49.369  1.00  0.00    -0.146 NA
HETATM    5  N4  UNL     1      21.414   3.331  49.372  1.00  0.00    -0.190 NA
HETATM    6  C5  UNL     1      21.063   2.647  50.575  1.00  0.00     0.200 C 
HETATM    7  C6  UNL     1      21.915   1.444  50.773  1.00  0.00    -0.007 C 
HETATM    8  C7  UNL     1      22.760   0.945  51.644  1.00  0.00    -0.026 C 
HETATM    9  C8  UNL     1      23.285   1.415  52.944  1.00  0.00     0.065 C 
HETATM   10  C9  UNL     1      24.784   1.606  52.907  1.00  0.00     0.176 C 
HETATM   11  C10 UNL     1      25.072   2.622  51.828  1.00  0.00     0.013 A 
HETATM   12  C11 UNL     1      24.206   3.660  51.575  1.00  0.00     0.042 A 
HETATM   13  C12 UNL     1      24.463   4.572  50.579  1.00  0.00     0.040 A 
HETATM   14  C13 UNL     1      25.608   4.448  49.819  1.00  0.00     0.033 A 
HETATM   15  C14 UNL     1      26.509   3.424  50.036  1.00  0.00     0.045 A 
HETATM   16  C15 UNL     1      26.204   2.529  51.053  1.00  0.00     0.125 A 
HETATM   17  F1  UNL     1      27.039   1.492  51.328  1.00  0.00    -0.205 F 
HETATM   18  N5  UNL     1      23.579   5.669  50.270  1.00  0.00    -0.297 N 
HETATM   19  C16 UNL     1      24.204   6.873  49.938  1.00  0.00     0.233 A 
HETATM   20  N6  UNL     1      23.467   7.865  49.651  1.00  0.00    -0.058 NA
ENDROOT
BRANCH   1  21
HETATM   21  N1  UNL     1      21.286   8.901  49.332  1.00  0.00    -0.223 N 
HETATM   22  C1  UNL     1      19.979   9.087  49.917  1.00  0.00     0.168 C 
HETATM   23  C2  UNL     1      21.788   9.902  48.414  1.00  0.00     0.168 C 
ENDBRANCH   1  21
BRANCH  10  24
HETATM   24  O1  UNL     1      25.458   0.426  52.649  1.00  0.00    -0.302 OA
HETATM   25 BR1  UNL     1      26.147  -0.361  54.160  1.00  0.00     0.100 Br
ENDBRANCH  10  24
TORSDOF 2
ENDMDL
