MODEL 1
REMARK VINA RESULT:      -7.8      0.000      0.000
REMARK  8 active torsions:
REMARK  status: ('A' for Active; 'I' for Inactive)
REMARK    1  A    between atoms: C2_2  and  C3_4 
REMARK    2  A    between atoms: C4_5  and  C5_6 
REMARK    3  A    between atoms: C6_7  and  O1_8 
REMARK    4  A    between atoms: O1_8  and  C7_9 
REMARK    5  A    between atoms: C10_12  and  N1_13 
REMARK    6  A    between atoms: N1_13  and  C11_14 
REMARK    7  A    between atoms: C13_16  and  C14_17 
REMARK    8  A    between atoms: C16_19  and  N2_20 
ROOT
HETATM    1  C7  UNL     1      23.126   3.162  50.101  1.00  0.00     0.096 A 
HETATM    2  C8  UNL     1      23.286   3.326  51.483  1.00  0.00     0.041 A 
HETATM    3  C9  UNL     1      22.837   2.310  52.312  1.00  0.00     0.032 A 
HETATM    4  C10 UNL     1      22.237   1.133  51.878  1.00  0.00     0.035 A 
HETATM    5  C18 UNL     1      22.116   1.047  50.507  1.00  0.00     0.056 A 
HETATM    6  C19 UNL     1      22.537   2.014  49.610  1.00  0.00     0.070 A 
HETATM    7 CL1  UNL     1      22.381   1.896  47.892  1.00  0.00    -0.081 Cl
ENDROOT
BRANCH   4   8
HETATM    8  N1  UNL     1      21.795   0.130  52.769  1.00  0.00    -0.341 N 
HETATM    9  H9  UNL     1      20.791  -0.154  52.680  1.00  0.00     0.167 HD
BRANCH   8  10
HETATM   10  C11 UNL     1      22.788  -0.352  53.667  1.00  0.00     0.131 A 
HETATM   11  C12 UNL     1      24.121  -0.161  53.366  1.00  0.00     0.082 A 
HETATM   12  C13 UNL     1      25.136  -0.595  54.178  1.00  0.00     0.070 A 
HETATM   13  N3  UNL     1      24.821  -1.226  55.298  1.00  0.00    -0.241 NA
HETATM   14  C17 UNL     1      23.516  -1.436  55.634  1.00  0.00     0.235 A 
HETATM   15  N4  UNL     1      22.551  -1.000  54.821  1.00  0.00    -0.224 NA
BRANCH  12  16
HETATM   16  C14 UNL     1      26.514  -0.347  53.774  1.00  0.00     0.006 A 
HETATM   17  C15 UNL     1      27.344  -0.040  52.765  1.00  0.00     0.025 A 
HETATM   18  C16 UNL     1      27.956  -0.236  54.060  1.00  0.00     0.276 A 
BRANCH  18  19
HETATM   19  N2  UNL     1      28.456   0.936  54.776  1.00  0.00     0.090 N 
HETATM   20  H13 UNL     1      27.770   1.211  55.522  1.00  0.00     0.314 HD
HETATM   21  H14 UNL     1      29.359   0.686  55.237  1.00  0.00     0.314 HD
ENDBRANCH  18  19
ENDBRANCH  12  16
ENDBRANCH   8  10
ENDBRANCH   4   8
BRANCH   1  22
HETATM   22  O1  UNL     1      23.609   4.238  49.372  1.00  0.00    -0.321 OA
BRANCH  22  23
HETATM   23  C6  UNL     1      23.125   5.530  49.507  1.00  0.00     0.142 C 
HETATM   24  C5  UNL     1      24.085   6.406  49.243  1.00  0.00     0.025 C 
BRANCH  24  25
HETATM   25  C4  UNL     1      25.222   5.561  48.930  1.00  0.00     0.005 C 
HETATM   26  C3  UNL     1      26.433   6.081  48.717  1.00  0.00     0.036 C 
BRANCH  26  27
HETATM   27  C2  UNL     1      27.775   5.669  48.397  1.00  0.00     0.050 C 
HETATM   28  C1  UNL     1      28.937   6.244  48.184  1.00  0.00     0.337 C 
HETATM   29  F1  UNL     1      28.443   4.514  48.184  1.00  0.00    -0.427 F 
ENDBRANCH  26  27
ENDBRANCH  24  25
ENDBRANCH  22  23
ENDBRANCH   1  22
TORSDOF 8
ENDMDL
MODEL 2
REMARK VINA RESULT:      -7.7      4.794      8.758
REMARK  8 active torsions:
REMARK  status: ('A' for Active; 'I' for Inactive)
REMARK    1  A    between atoms: C2_2  and  C3_4 
REMARK    2  A    between atoms: C4_5  and  C5_6 
REMARK    3  A    between atoms: C6_7  and  O1_8 
REMARK    4  A    between atoms: O1_8  and  C7_9 
REMARK    5  A    between atoms: C10_12  and  N1_13 
REMARK    6  A    between atoms: N1_13  and  C11_14 
REMARK    7  A    between atoms: C13_16  and  C14_17 
REMARK    8  A    between atoms: C16_19  and  N2_20 
ROOT
HETATM    1  C7  UNL     1      25.402   2.995  51.155  1.00  0.00     0.096 A 
HETATM    2  C8  UNL     1      26.466   2.972  50.243  1.00  0.00     0.041 A 
HETATM    3  C9  UNL     1      26.576   4.026  49.350  1.00  0.00     0.032 A 
HETATM    4  C10 UNL     1      25.709   5.111  49.285  1.00  0.00     0.035 A 
HETATM    5  C18 UNL     1      24.690   5.060  50.214  1.00  0.00     0.056 A 
HETATM    6  C19 UNL     1      24.508   4.047  51.139  1.00  0.00     0.070 A 
HETATM    7 CL1  UNL     1      23.228   3.993  52.300  1.00  0.00    -0.081 Cl
ENDROOT
BRANCH   4   8
HETATM    8  N1  UNL     1      25.867   6.158  48.351  1.00  0.00    -0.341 N 
HETATM    9  H9  UNL     1      25.657   5.920  47.353  1.00  0.00     0.167 HD
BRANCH   8  10
HETATM   10  C11 UNL     1      26.295   7.397  48.907  1.00  0.00     0.131 A 
HETATM   11  C12 UNL     1      27.634   7.727  48.868  1.00  0.00     0.082 A 
HETATM   12  C13 UNL     1      28.127   8.898  49.380  1.00  0.00     0.070 A 
HETATM   13  N3  UNL     1      27.278   9.747  49.937  1.00  0.00    -0.241 NA
HETATM   14  C17 UNL     1      25.946   9.461  49.997  1.00  0.00     0.235 A 
HETATM   15  N4  UNL     1      25.499   8.311  49.487  1.00  0.00    -0.224 NA
BRANCH  12  16
HETATM   16  C14 UNL     1      29.558   9.157  49.294  1.00  0.00     0.006 A 
HETATM   17  C15 UNL     1      30.536  10.070  49.392  1.00  0.00     0.025 A 
HETATM   18  C16 UNL     1      30.948   8.724  49.064  1.00  0.00     0.276 A 
BRANCH  18  19
HETATM   19  N2  UNL     1      31.634   7.940  50.089  1.00  0.00     0.090 N 
HETATM   20  H13 UNL     1      32.590   7.674  49.745  1.00  0.00     0.314 HD
HETATM   21  H14 UNL     1      31.745   8.530  50.943  1.00  0.00     0.314 HD
ENDBRANCH  18  19
ENDBRANCH  12  16
ENDBRANCH   8  10
ENDBRANCH   4   8
BRANCH   1  22
HETATM   22  O1  UNL     1      25.392   1.895  51.997  1.00  0.00    -0.321 OA
BRANCH  22  23
HETATM   23  C6  UNL     1      26.333   0.877  51.936  1.00  0.00     0.142 C 
HETATM   24  C5  UNL     1      25.923  -0.165  52.646  1.00  0.00     0.025 C 
BRANCH  24  25
HETATM   25  C4  UNL     1      24.642   0.274  53.165  1.00  0.00     0.005 C 
HETATM   26  C3  UNL     1      23.743  -0.600  53.620  1.00  0.00     0.036 C 
BRANCH  26  27
HETATM   27  C2  UNL     1      22.423  -0.635  54.193  1.00  0.00     0.050 C 
HETATM   28  C1  UNL     1      21.497  -1.536  54.431  1.00  0.00     0.337 C 
HETATM   29  F1  UNL     1      21.551   0.234  54.751  1.00  0.00    -0.427 F 
ENDBRANCH  26  27
ENDBRANCH  24  25
ENDBRANCH  22  23
ENDBRANCH   1  22
TORSDOF 8
ENDMDL
MODEL 3
REMARK VINA RESULT:      -7.7      4.869      8.405
REMARK  8 active torsions:
REMARK  status: ('A' for Active; 'I' for Inactive)
REMARK    1  A    between atoms: C2_2  and  C3_4 
REMARK    2  A    between atoms: C4_5  and  C5_6 
REMARK    3  A    between atoms: C6_7  and  O1_8 
REMARK    4  A    between atoms: O1_8  and  C7_9 
REMARK    5  A    between atoms: C10_12  and  N1_13 
REMARK    6  A    between atoms: N1_13  and  C11_14 
REMARK    7  A    between atoms: C13_16  and  C14_17 
REMARK    8  A    between atoms: C16_19  and  N2_20 
ROOT
HETATM    1  C7  UNL     1      25.509   4.420  50.177  1.00  0.00     0.096 A 
HETATM    2  C8  UNL     1      26.554   3.778  49.497  1.00  0.00     0.041 A 
HETATM    3  C9  UNL     1      27.405   4.561  48.734  1.00  0.00     0.032 A 
HETATM    4  C10 UNL     1      27.306   5.940  48.587  1.00  0.00     0.035 A 
HETATM    5  C18 UNL     1      26.254   6.496  49.286  1.00  0.00     0.056 A 
HETATM    6  C19 UNL     1      25.359   5.788  50.070  1.00  0.00     0.070 A 
HETATM    7 CL1  UNL     1      24.044   6.494  50.943  1.00  0.00    -0.081 Cl
ENDROOT
BRANCH   4   8
HETATM    8  N1  UNL     1      28.202   6.689  47.793  1.00  0.00    -0.341 N 
HETATM    9  H9  UNL     1      27.776   7.228  47.003  1.00  0.00     0.167 HD
BRANCH   8  10
HETATM   10  C11 UNL     1      29.567   6.599  48.184  1.00  0.00     0.131 A 
HETATM   11  C12 UNL     1      30.321   5.524  47.762  1.00  0.00     0.082 A 
HETATM   12  C13 UNL     1      31.640   5.363  48.095  1.00  0.00     0.070 A 
HETATM   13  N3  UNL     1      32.213   6.282  48.856  1.00  0.00    -0.241 NA
HETATM   14  C17 UNL     1      31.505   7.361  49.297  1.00  0.00     0.235 A 
HETATM   15  N4  UNL     1      30.221   7.487  48.953  1.00  0.00    -0.224 NA
BRANCH  12  16
HETATM   16  C14 UNL     1      32.353   4.192  47.601  1.00  0.00     0.006 A 
HETATM   17  C15 UNL     1      32.757   3.502  46.523  1.00  0.00     0.025 A 
HETATM   18  C16 UNL     1      33.123   2.952  47.809  1.00  0.00     0.276 A 
BRANCH  18  19
HETATM   19  N2  UNL     1      34.521   3.038  48.227  1.00  0.00     0.090 N 
HETATM   20  H13 UNL     1      34.775   2.181  48.779  1.00  0.00     0.314 HD
HETATM   21  H14 UNL     1      35.123   3.069  47.375  1.00  0.00     0.314 HD
ENDBRANCH  18  19
ENDBRANCH  12  16
ENDBRANCH   8  10
ENDBRANCH   4   8
BRANCH   1  22
HETATM   22  O1  UNL     1      24.723   3.541  50.906  1.00  0.00    -0.321 OA
BRANCH  22  23
HETATM   23  C6  UNL     1      23.548   2.986  50.422  1.00  0.00     0.142 C 
HETATM   24  C5  UNL     1      23.279   1.858  51.065  1.00  0.00     0.025 C 
BRANCH  24  25
HETATM   25  C4  UNL     1      24.382   1.742  51.999  1.00  0.00     0.005 C 
HETATM   26  C3  UNL     1      24.591   0.618  52.687  1.00  0.00     0.036 C 
BRANCH  26  27
HETATM   27  C2  UNL     1      25.494   0.068  53.664  1.00  0.00     0.050 C 
HETATM   28  C1  UNL     1      26.794  -0.014  53.840  1.00  0.00     0.337 C 
HETATM   29  F1  UNL     1      25.415  -0.598  54.838  1.00  0.00    -0.427 F 
ENDBRANCH  26  27
ENDBRANCH  24  25
ENDBRANCH  22  23
ENDBRANCH   1  22
TORSDOF 8
ENDMDL
MODEL 4
REMARK VINA RESULT:      -7.7      2.082      2.298
REMARK  8 active torsions:
REMARK  status: ('A' for Active; 'I' for Inactive)
REMARK    1  A    between atoms: C2_2  and  C3_4 
REMARK    2  A    between atoms: C4_5  and  C5_6 
REMARK    3  A    between atoms: C6_7  and  O1_8 
REMARK    4  A    between atoms: O1_8  and  C7_9 
REMARK    5  A    between atoms: C10_12  and  N1_13 
REMARK    6  A    between atoms: N1_13  and  C11_14 
REMARK    7  A    between atoms: C13_16  and  C14_17 
REMARK    8  A    between atoms: C16_19  and  N2_20 
ROOT
HETATM    1  C7  UNL     1      24.330   4.916  51.320  1.00  0.00     0.096 A 
HETATM    2  C8  UNL     1      23.443   4.550  52.341  1.00  0.00     0.041 A 
HETATM    3  C9  UNL     1      23.200   3.199  52.534  1.00  0.00     0.032 A 
HETATM    4  C10 UNL     1      23.769   2.171  51.790  1.00  0.00     0.035 A 
HETATM    5  C18 UNL     1      24.629   2.613  50.806  1.00  0.00     0.056 A 
HETATM    6  C19 UNL     1      24.927   3.940  50.548  1.00  0.00     0.070 A 
HETATM    7 CL1  UNL     1      26.008   4.483  49.312  1.00  0.00    -0.081 Cl
ENDROOT
BRANCH   4   8
HETATM    8  N1  UNL     1      23.484   0.809  52.029  1.00  0.00    -0.341 N 
HETATM    9  H9  UNL     1      22.770   0.372  51.399  1.00  0.00     0.167 HD
BRANCH   8  10
HETATM   10  C11 UNL     1      24.212   0.224  53.102  1.00  0.00     0.131 A 
HETATM   11  C12 UNL     1      25.577   0.407  53.171  1.00  0.00     0.082 A 
HETATM   12  C13 UNL     1      26.350  -0.123  54.171  1.00  0.00     0.070 A 
HETATM   13  N3  UNL     1      25.756  -0.843  55.110  1.00  0.00    -0.241 NA
HETATM   14  C17 UNL     1      24.409  -1.049  55.081  1.00  0.00     0.235 A 
HETATM   15  N4  UNL     1      23.685  -0.517  54.092  1.00  0.00    -0.224 NA
BRANCH  12  16
HETATM   16  C14 UNL     1      27.786   0.124  54.157  1.00  0.00     0.006 A 
HETATM   17  C15 UNL     1      28.969  -0.198  53.613  1.00  0.00     0.025 A 
HETATM   18  C16 UNL     1      28.993   0.819  54.639  1.00  0.00     0.276 A 
BRANCH  18  19
HETATM   19  N2  UNL     1      29.231   2.204  54.237  1.00  0.00     0.090 N 
HETATM   20  H13 UNL     1      28.655   2.427  53.387  1.00  0.00     0.314 HD
HETATM   21  H14 UNL     1      28.928   2.834  55.013  1.00  0.00     0.314 HD
ENDBRANCH  18  19
ENDBRANCH  12  16
ENDBRANCH   8  10
ENDBRANCH   4   8
BRANCH   1  22
HETATM   22  O1  UNL     1      24.497   6.288  51.219  1.00  0.00    -0.321 OA
BRANCH  22  23
HETATM   23  C6  UNL     1      23.517   7.143  50.737  1.00  0.00     0.142 C 
HETATM   24  C5  UNL     1      24.074   8.157  50.091  1.00  0.00     0.025 C 
BRANCH  24  25
HETATM   25  C4  UNL     1      25.493   7.877  50.202  1.00  0.00     0.005 C 
HETATM   26  C3  UNL     1      26.353   8.274  49.263  1.00  0.00     0.036 C 
BRANCH  26  27
HETATM   27  C2  UNL     1      27.759   8.230  48.958  1.00  0.00     0.050 C 
HETATM   28  C1  UNL     1      28.576   7.461  48.274  1.00  0.00     0.337 C 
HETATM   29  F1  UNL     1      28.864   8.961  49.225  1.00  0.00    -0.427 F 
ENDBRANCH  26  27
ENDBRANCH  24  25
ENDBRANCH  22  23
ENDBRANCH   1  22
TORSDOF 8
ENDMDL
MODEL 5
REMARK VINA RESULT:      -7.6      4.961      8.359
REMARK  8 active torsions:
REMARK  status: ('A' for Active; 'I' for Inactive)
REMARK    1  A    between atoms: C2_2  and  C3_4 
REMARK    2  A    between atoms: C4_5  and  C5_6 
REMARK    3  A    between atoms: C6_7  and  O1_8 
REMARK    4  A    between atoms: O1_8  and  C7_9 
REMARK    5  A    between atoms: C10_12  and  N1_13 
REMARK    6  A    between atoms: N1_13  and  C11_14 
REMARK    7  A    between atoms: C13_16  and  C14_17 
REMARK    8  A    between atoms: C16_19  and  N2_20 
ROOT
HETATM    1  C7  UNL     1      25.431   5.240  49.923  1.00  0.00     0.096 A 
HETATM    2  C8  UNL     1      25.412   6.614  49.650  1.00  0.00     0.041 A 
HETATM    3  C9  UNL     1      26.443   7.137  48.886  1.00  0.00     0.032 A 
HETATM    4  C10 UNL     1      27.503   6.401  48.365  1.00  0.00     0.035 A 
HETATM    5  C18 UNL     1      27.450   5.058  48.678  1.00  0.00     0.056 A 
HETATM    6  C19 UNL     1      26.457   4.457  49.433  1.00  0.00     0.070 A 
HETATM    7 CL1  UNL     1      26.399   2.773  49.818  1.00  0.00    -0.081 Cl
ENDROOT
BRANCH   4   8
HETATM    8  N1  UNL     1      28.531   6.986  47.594  1.00  0.00    -0.341 N 
HETATM    9  H9  UNL     1      28.224   7.508  46.739  1.00  0.00     0.167 HD
BRANCH   8  10
HETATM   10  C11 UNL     1      29.847   6.777  48.092  1.00  0.00     0.131 A 
HETATM   11  C12 UNL     1      30.567   5.683  47.659  1.00  0.00     0.082 A 
HETATM   12  C13 UNL     1      31.839   5.411  48.090  1.00  0.00     0.070 A 
HETATM   13  N3  UNL     1      32.397   6.236  48.962  1.00  0.00    -0.241 NA
HETATM   14  C17 UNL     1      31.722   7.329  49.417  1.00  0.00     0.235 A 
HETATM   15  N4  UNL     1      30.483   7.565  48.975  1.00  0.00    -0.224 NA
BRANCH  12  16
HETATM   16  C14 UNL     1      32.518   4.229  47.576  1.00  0.00     0.006 A 
HETATM   17  C15 UNL     1      32.944   3.570  46.488  1.00  0.00     0.025 A 
HETATM   18  C16 UNL     1      33.214   2.943  47.761  1.00  0.00     0.276 A 
BRANCH  18  19
HETATM   19  N2  UNL     1      34.590   2.936  48.253  1.00  0.00     0.090 N 
HETATM   20  H13 UNL     1      34.598   3.175  49.276  1.00  0.00     0.314 HD
HETATM   21  H14 UNL     1      34.981   1.975  48.138  1.00  0.00     0.314 HD
ENDBRANCH  18  19
ENDBRANCH  12  16
ENDBRANCH   8  10
ENDBRANCH   4   8
BRANCH   1  22
HETATM   22  O1  UNL     1      24.354   4.830  50.693  1.00  0.00    -0.321 OA
BRANCH  22  23
HETATM   23  C6  UNL     1      23.841   5.572  51.746  1.00  0.00     0.142 C 
HETATM   24  C5  UNL     1      23.368   4.765  52.685  1.00  0.00     0.025 C 
BRANCH  24  25
HETATM   25  C4  UNL     1      23.622   3.445  52.140  1.00  0.00     0.005 C 
HETATM   26  C3  UNL     1      24.133   2.470  52.895  1.00  0.00     0.036 C 
BRANCH  26  27
HETATM   27  C2  UNL     1      24.532   1.090  52.803  1.00  0.00     0.050 C 
HETATM   28  C1  UNL     1      24.197  -0.051  53.361  1.00  0.00     0.337 C 
HETATM   29  F1  UNL     1      25.415   0.349  52.097  1.00  0.00    -0.427 F 
ENDBRANCH  26  27
ENDBRANCH  24  25
ENDBRANCH  22  23
ENDBRANCH   1  22
TORSDOF 8
ENDMDL
MODEL 6
REMARK VINA RESULT:      -7.6      3.457      5.056
REMARK  8 active torsions:
REMARK  status: ('A' for Active; 'I' for Inactive)
REMARK    1  A    between atoms: C2_2  and  C3_4 
REMARK    2  A    between atoms: C4_5  and  C5_6 
REMARK    3  A    between atoms: C6_7  and  O1_8 
REMARK    4  A    between atoms: O1_8  and  C7_9 
REMARK    5  A    between atoms: C10_12  and  N1_13 
REMARK    6  A    between atoms: N1_13  and  C11_14 
REMARK    7  A    between atoms: C13_16  and  C14_17 
REMARK    8  A    between atoms: C16_19  and  N2_20 
ROOT
HETATM    1  C7  UNL     1      27.433   6.727  48.720  1.00  0.00     0.096 A 
HETATM    2  C8  UNL     1      26.126   6.822  49.215  1.00  0.00     0.041 A 
HETATM    3  C9  UNL     1      25.459   5.644  49.512  1.00  0.00     0.032 A 
HETATM    4  C10 UNL     1      25.987   4.366  49.357  1.00  0.00     0.035 A 
HETATM    5  C18 UNL     1      27.277   4.358  48.866  1.00  0.00     0.056 A 
HETATM    6  C19 UNL     1      28.012   5.486  48.545  1.00  0.00     0.070 A 
HETATM    7 CL1  UNL     1      29.628   5.465  47.931  1.00  0.00    -0.081 Cl
ENDROOT
BRANCH   4   8
HETATM    8  N1  UNL     1      25.262   3.198  49.674  1.00  0.00    -0.341 N 
HETATM    9  H9  UNL     1      24.780   2.724  48.873  1.00  0.00     0.167 HD
BRANCH   8  10
HETATM   10  C11 UNL     1      25.287   2.831  51.049  1.00  0.00     0.131 A 
HETATM   11  C12 UNL     1      26.224   1.917  51.486  1.00  0.00     0.082 A 
HETATM   12  C13 UNL     1      26.315   1.511  52.791  1.00  0.00     0.070 A 
HETATM   13  N3  UNL     1      25.464   2.019  53.669  1.00  0.00    -0.241 NA
HETATM   14  C17 UNL     1      24.522   2.925  53.280  1.00  0.00     0.235 A 
HETATM   15  N4  UNL     1      24.461   3.300  51.999  1.00  0.00    -0.224 NA
BRANCH  12  16
HETATM   16  C14 UNL     1      27.337   0.539  53.157  1.00  0.00     0.006 A 
HETATM   17  C15 UNL     1      27.826  -0.695  52.961  1.00  0.00     0.025 A 
HETATM   18  C16 UNL     1      28.525   0.125  53.925  1.00  0.00     0.276 A 
BRANCH  18  19
HETATM   19  N2  UNL     1      29.836   0.658  53.561  1.00  0.00     0.090 N 
HETATM   20  H13 UNL     1      30.586  -0.004  53.883  1.00  0.00     0.314 HD
HETATM   21  H14 UNL     1      29.889   0.732  52.521  1.00  0.00     0.314 HD
ENDBRANCH  18  19
ENDBRANCH  12  16
ENDBRANCH   8  10
ENDBRANCH   4   8
BRANCH   1  22
HETATM   22  O1  UNL     1      28.000   7.964  48.459  1.00  0.00    -0.321 OA
BRANCH  22  23
HETATM   23  C6  UNL     1      27.791   9.083  49.252  1.00  0.00     0.142 C 
HETATM   24  C5  UNL     1      28.939   9.712  49.464  1.00  0.00     0.025 C 
BRANCH  24  25
HETATM   25  C4  UNL     1      29.897   8.900  48.739  1.00  0.00     0.005 C 
HETATM   26  C3  UNL     1      31.150   8.755  49.173  1.00  0.00     0.036 C 
BRANCH  26  27
HETATM   27  C2  UNL     1      32.377   8.093  48.815  1.00  0.00     0.050 C 
HETATM   28  C1  UNL     1      32.848   6.866  48.811  1.00  0.00     0.337 C 
HETATM   29  F1  UNL     1      33.587   8.430  48.313  1.00  0.00    -0.427 F 
ENDBRANCH  26  27
ENDBRANCH  24  25
ENDBRANCH  22  23
ENDBRANCH   1  22
TORSDOF 8
ENDMDL
MODEL 7
REMARK VINA RESULT:      -7.5      4.458      8.125
REMARK  8 active torsions:
REMARK  status: ('A' for Active; 'I' for Inactive)
REMARK    1  A    between atoms: C2_2  and  C3_4 
REMARK    2  A    between atoms: C4_5  and  C5_6 
REMARK    3  A    between atoms: C6_7  and  O1_8 
REMARK    4  A    between atoms: O1_8  and  C7_9 
REMARK    5  A    between atoms: C10_12  and  N1_13 
REMARK    6  A    between atoms: N1_13  and  C11_14 
REMARK    7  A    between atoms: C13_16  and  C14_17 
REMARK    8  A    between atoms: C16_19  and  N2_20 
ROOT
HETATM    1  C7  UNL     1      25.302   3.054  51.404  1.00  0.00     0.096 A 
HETATM    2  C8  UNL     1      26.327   2.865  50.468  1.00  0.00     0.041 A 
HETATM    3  C9  UNL     1      26.509   3.842  49.501  1.00  0.00     0.032 A 
HETATM    4  C10 UNL     1      25.749   5.001  49.385  1.00  0.00     0.035 A 
HETATM    5  C18 UNL     1      24.762   5.113  50.342  1.00  0.00     0.056 A 
HETATM    6  C19 UNL     1      24.514   4.186  51.340  1.00  0.00     0.070 A 
HETATM    7 CL1  UNL     1      23.274   4.336  52.536  1.00  0.00    -0.081 Cl
ENDROOT
BRANCH   4   8
HETATM    8  N1  UNL     1      25.976   5.963  48.377  1.00  0.00    -0.341 N 
HETATM    9  H9  UNL     1      25.236   6.042  47.641  1.00  0.00     0.167 HD
BRANCH   8  10
HETATM   10  C11 UNL     1      27.192   6.692  48.508  1.00  0.00     0.131 A 
HETATM   11  C12 UNL     1      28.377   6.103  48.114  1.00  0.00     0.082 A 
HETATM   12  C13 UNL     1      29.588   6.736  48.208  1.00  0.00     0.070 A 
HETATM   13  N3  UNL     1      29.620   7.965  48.698  1.00  0.00    -0.241 NA
HETATM   14  C17 UNL     1      28.473   8.584  49.099  1.00  0.00     0.235 A 
HETATM   15  N4  UNL     1      27.309   7.939  48.994  1.00  0.00    -0.224 NA
BRANCH  12  16
HETATM   16  C14 UNL     1      30.785   6.032  47.768  1.00  0.00     0.006 A 
HETATM   17  C15 UNL     1      31.775   5.968  46.864  1.00  0.00     0.025 A 
HETATM   18  C16 UNL     1      31.788   4.960  47.900  1.00  0.00     0.276 A 
BRANCH  18  19
HETATM   19  N2  UNL     1      32.805   5.054  48.947  1.00  0.00     0.090 N 
HETATM   20  H13 UNL     1      33.758   5.088  48.508  1.00  0.00     0.314 HD
HETATM   21  H14 UNL     1      32.656   5.940  49.478  1.00  0.00     0.314 HD
ENDBRANCH  18  19
ENDBRANCH  12  16
ENDBRANCH   8  10
ENDBRANCH   4   8
BRANCH   1  22
HETATM   22  O1  UNL     1      25.213   2.018  52.320  1.00  0.00    -0.321 OA
BRANCH  22  23
HETATM   23  C6  UNL     1      24.285   0.991  52.224  1.00  0.00     0.142 C 
HETATM   24  C5  UNL     1      24.676  -0.045  52.953  1.00  0.00     0.025 C 
BRANCH  24  25
HETATM   25  C4  UNL     1      25.931   0.408  53.521  1.00  0.00     0.005 C 
HETATM   26  C3  UNL     1      27.005  -0.383  53.545  1.00  0.00     0.036 C 
BRANCH  26  27
HETATM   27  C2  UNL     1      28.379  -0.373  53.976  1.00  0.00     0.050 C 
HETATM   28  C1  UNL     1      29.540  -0.775  53.510  1.00  0.00     0.337 C 
HETATM   29  F1  UNL     1      29.091   0.060  55.040  1.00  0.00    -0.427 F 
ENDBRANCH  26  27
ENDBRANCH  24  25
ENDBRANCH  22  23
ENDBRANCH   1  22
TORSDOF 8
ENDMDL
MODEL 8
REMARK VINA RESULT:      -7.4      4.558      8.477
REMARK  8 active torsions:
REMARK  status: ('A' for Active; 'I' for Inactive)
REMARK    1  A    between atoms: C2_2  and  C3_4 
REMARK    2  A    between atoms: C4_5  and  C5_6 
REMARK    3  A    between atoms: C6_7  and  O1_8 
REMARK    4  A    between atoms: O1_8  and  C7_9 
REMARK    5  A    between atoms: C10_12  and  N1_13 
REMARK    6  A    between atoms: N1_13  and  C11_14 
REMARK    7  A    between atoms: C13_16  and  C14_17 
REMARK    8  A    between atoms: C16_19  and  N2_20 
ROOT
HETATM    1  C7  UNL     1      25.366   2.784  51.744  1.00  0.00     0.096 A 
HETATM    2  C8  UNL     1      26.402   2.490  50.848  1.00  0.00     0.041 A 
HETATM    3  C9  UNL     1      26.630   3.378  49.809  1.00  0.00     0.032 A 
HETATM    4  C10 UNL     1      25.906   4.545  49.582  1.00  0.00     0.035 A 
HETATM    5  C18 UNL     1      24.905   4.762  50.506  1.00  0.00     0.056 A 
HETATM    6  C19 UNL     1      24.613   3.928  51.572  1.00  0.00     0.070 A 
HETATM    7 CL1  UNL     1      23.356   4.209  52.726  1.00  0.00    -0.081 Cl
ENDROOT
BRANCH   4   8
HETATM    8  N1  UNL     1      26.179   5.414  48.504  1.00  0.00    -0.341 N 
HETATM    9  H9  UNL     1      25.393   5.572  47.830  1.00  0.00     0.167 HD
BRANCH   8  10
HETATM   10  C11 UNL     1      27.497   5.952  48.487  1.00  0.00     0.131 A 
HETATM   11  C12 UNL     1      27.670   7.315  48.611  1.00  0.00     0.082 A 
HETATM   12  C13 UNL     1      28.904   7.912  48.604  1.00  0.00     0.070 A 
HETATM   13  N3  UNL     1      29.974   7.143  48.471  1.00  0.00    -0.241 NA
HETATM   14  C17 UNL     1      29.848   5.791  48.346  1.00  0.00     0.235 A 
HETATM   15  N4  UNL     1      28.630   5.242  48.358  1.00  0.00    -0.224 NA
BRANCH  12  16
HETATM   16  C14 UNL     1      28.986   9.360  48.739  1.00  0.00     0.006 A 
HETATM   17  C15 UNL     1      28.330  10.493  49.033  1.00  0.00     0.025 A 
HETATM   18  C16 UNL     1      29.725  10.634  48.681  1.00  0.00     0.276 A 
BRANCH  18  19
HETATM   19  N2  UNL     1      30.678  10.958  49.741  1.00  0.00     0.090 N 
HETATM   20  H13 UNL     1      30.206  11.550  50.469  1.00  0.00     0.314 HD
HETATM   21  H14 UNL     1      30.990  10.070  50.193  1.00  0.00     0.314 HD
ENDBRANCH  18  19
ENDBRANCH  12  16
ENDBRANCH   8  10
ENDBRANCH   4   8
BRANCH   1  22
HETATM   22  O1  UNL     1      25.231   1.829  52.740  1.00  0.00    -0.321 OA
BRANCH  22  23
HETATM   23  C6  UNL     1      24.293   0.808  52.697  1.00  0.00     0.142 C 
HETATM   24  C5  UNL     1      24.832  -0.324  53.126  1.00  0.00     0.025 C 
BRANCH  24  25
HETATM   25  C4  UNL     1      26.193   0.061  53.445  1.00  0.00     0.005 C 
HETATM   26  C3  UNL     1      27.223  -0.740  53.165  1.00  0.00     0.036 C 
BRANCH  26  27
HETATM   27  C2  UNL     1      28.657  -0.785  53.287  1.00  0.00     0.050 C 
HETATM   28  C1  UNL     1      29.604  -0.051  53.826  1.00  0.00     0.337 C 
HETATM   29  F1  UNL     1      29.668  -1.602  52.915  1.00  0.00    -0.427 F 
ENDBRANCH  26  27
ENDBRANCH  24  25
ENDBRANCH  22  23
ENDBRANCH   1  22
TORSDOF 8
ENDMDL
MODEL 9
REMARK VINA RESULT:      -7.4      4.098      7.673
REMARK  8 active torsions:
REMARK  status: ('A' for Active; 'I' for Inactive)
REMARK    1  A    between atoms: C2_2  and  C3_4 
REMARK    2  A    between atoms: C4_5  and  C5_6 
REMARK    3  A    between atoms: C6_7  and  O1_8 
REMARK    4  A    between atoms: O1_8  and  C7_9 
REMARK    5  A    between atoms: C10_12  and  N1_13 
REMARK    6  A    between atoms: N1_13  and  C11_14 
REMARK    7  A    between atoms: C13_16  and  C14_17 
REMARK    8  A    between atoms: C16_19  and  N2_20 
ROOT
HETATM    1  C7  UNL     1      23.496   2.534  51.949  1.00  0.00     0.096 A 
HETATM    2  C8  UNL     1      23.873   3.453  52.937  1.00  0.00     0.041 A 
HETATM    3  C9  UNL     1      23.460   4.767  52.790  1.00  0.00     0.032 A 
HETATM    4  C10 UNL     1      22.697   5.251  51.732  1.00  0.00     0.035 A 
HETATM    5  C18 UNL     1      22.368   4.285  50.802  1.00  0.00     0.056 A 
HETATM    6  C19 UNL     1      22.738   2.954  50.875  1.00  0.00     0.070 A 
HETATM    7 CL1  UNL     1      22.319   1.751  49.705  1.00  0.00    -0.081 Cl
ENDROOT
BRANCH   4   8
HETATM    8  N1  UNL     1      22.306   6.603  51.630  1.00  0.00    -0.341 N 
HETATM    9  H9  UNL     1      21.653   6.950  52.371  1.00  0.00     0.167 HD
BRANCH   8  10
HETATM   10  C11 UNL     1      22.858   7.305  50.521  1.00  0.00     0.131 A 
HETATM   11  C12 UNL     1      24.196   7.641  50.534  1.00  0.00     0.082 A 
HETATM   12  C13 UNL     1      24.803   8.316  49.508  1.00  0.00     0.070 A 
HETATM   13  N3  UNL     1      24.071   8.660  48.461  1.00  0.00    -0.241 NA
HETATM   14  C17 UNL     1      22.744   8.348  48.407  1.00  0.00     0.235 A 
HETATM   15  N4  UNL     1      22.184   7.689  49.424  1.00  0.00    -0.224 NA
BRANCH  12  16
HETATM   16  C14 UNL     1      26.223   8.627  49.614  1.00  0.00     0.006 A 
HETATM   17  C15 UNL     1      27.192   9.184  50.357  1.00  0.00     0.025 A 
HETATM   18  C16 UNL     1      27.602   8.612  49.094  1.00  0.00     0.276 A 
BRANCH  18  19
HETATM   19  N2  UNL     1      28.361   7.363  49.113  1.00  0.00     0.090 N 
HETATM   20  H13 UNL     1      29.344   7.545  48.793  1.00  0.00     0.314 HD
HETATM   21  H14 UNL     1      28.397   7.008  50.095  1.00  0.00     0.314 HD
ENDBRANCH  18  19
ENDBRANCH  12  16
ENDBRANCH   8  10
ENDBRANCH   4   8
BRANCH   1  22
HETATM   22  O1  UNL     1      23.963   1.253  52.200  1.00  0.00    -0.321 OA
BRANCH  22  23
HETATM   23  C6  UNL     1      23.208   0.274  52.828  1.00  0.00     0.142 C 
HETATM   24  C5  UNL     1      23.997  -0.541  53.514  1.00  0.00     0.025 C 
BRANCH  24  25
HETATM   25  C4  UNL     1      25.320   0.002  53.269  1.00  0.00     0.005 C 
HETATM   26  C3  UNL     1      26.330  -0.230  54.110  1.00  0.00     0.036 C 
BRANCH  26  27
HETATM   27  C2  UNL     1      27.727   0.077  54.276  1.00  0.00     0.050 C 
HETATM   28  C1  UNL     1      28.707   0.547  53.537  1.00  0.00     0.337 C 
HETATM   29  F1  UNL     1      28.651   0.031  55.261  1.00  0.00    -0.427 F 
ENDBRANCH  26  27
ENDBRANCH  24  25
ENDBRANCH  22  23
ENDBRANCH   1  22
TORSDOF 8
ENDMDL
