MODEL 1
REMARK VINA RESULT:      -6.7      0.000      0.000
REMARK  8 active torsions:
REMARK  status: ('A' for Active; 'I' for Inactive)
REMARK    1  A    between atoms: N3_8  and  C6_9 
REMARK    2  A    between atoms: C6_9  and  N4_10 
REMARK       I    between atoms: N4_10  and  C8_12 
REMARK    3  A    between atoms: C8_12  and  C9_14 
REMARK    4  A    between atoms: C10_15  and  C11_16 
REMARK       I    between atoms: C11_16  and  N5_18 
REMARK    5  A    between atoms: N5_18  and  C12_19 
REMARK    6  A    between atoms: C12_19  and  C13_20 
REMARK    7  A    between atoms: C13_20  and  C14_21 
REMARK    8  A    between atoms: C14_21  and  N6_22 
ROOT
HETATM    1  N4  UNL     1      25.816   3.662  50.418  1.00  0.00    -0.335 N 
HETATM    2  C7  UNL     1      24.638   3.992  51.209  1.00  0.00     0.154 C 
HETATM    3  C8  UNL     1      26.392   4.482  49.423  1.00  0.00     0.244 C 
HETATM    4  O1  UNL     1      27.336   3.707  49.123  1.00  0.00    -0.268 OA
ENDROOT
BRANCH   3   5
HETATM    5  C9  UNL     1      26.173   5.754  48.802  1.00  0.00     0.080 C 
HETATM    6  C10 UNL     1      27.108   6.592  48.378  1.00  0.00     0.079 C 
BRANCH   6   7
HETATM    7  C11 UNL     1      26.923   7.889  47.746  1.00  0.00     0.241 C 
HETATM    8  O2  UNL     1      25.730   8.336  47.650  1.00  0.00    -0.269 OA
HETATM    9  N5  UNL     1      27.927   8.731  47.211  1.00  0.00    -0.358 N 
HETATM   10  H12 UNL     1      28.842   8.189  47.362  1.00  0.00     0.162 HD
BRANCH   9  11
HETATM   11  C12 UNL     1      28.040   9.989  46.588  1.00  0.00     0.124 C 
BRANCH  11  12
HETATM   12  C13 UNL     1      27.995  11.239  47.365  1.00  0.00     0.050 C 
BRANCH  12  13
HETATM   13  C14 UNL     1      28.562  11.139  48.735  1.00  0.00     0.273 C 
BRANCH  13  14
HETATM   14  N6  UNL     1      30.039  11.120  48.704  1.00  0.00     0.080 N 
HETATM   15  C15 UNL     1      30.591  10.004  49.404  1.00  0.00     0.309 C 
HETATM   16  C16 UNL     1      30.571  12.384  49.100  1.00  0.00     0.309 C 
ENDBRANCH  13  14
ENDBRANCH  12  13
ENDBRANCH  11  12
ENDBRANCH   9  11
ENDBRANCH   6   7
ENDBRANCH   3   5
BRANCH   1  17
HETATM   17  C6  UNL     1      26.472   2.385  50.662  1.00  0.00     0.276 C 
BRANCH  17  18
HETATM   18  N3  UNL     1      27.292   2.493  51.812  1.00  0.00    -0.267 NA
HETATM   19  C5  UNL     1      27.619   1.647  52.683  1.00  0.00     0.095 A 
HETATM   20  C2  UNL     1      27.359   0.242  52.952  1.00  0.00     0.066 A 
HETATM   21  C4  UNL     1      28.507   2.224  53.723  1.00  0.00     0.151 A 
HETATM   22  C1  UNL     1      26.573  -0.308  52.052  1.00  0.00     0.068 C 
HETATM   23  N1  UNL     1      27.914  -0.417  54.078  1.00  0.00    -0.244 NA
HETATM   24  C3  UNL     1      28.672   0.173  54.921  1.00  0.00     0.232 A 
HETATM   25  N2  UNL     1      28.957   1.543  54.704  1.00  0.00    -0.252 NA
ENDBRANCH  17  18
ENDBRANCH   1  17
TORSDOF 8
ENDMDL
MODEL 2
REMARK VINA RESULT:      -6.5      4.189      5.100
REMARK  8 active torsions:
REMARK  status: ('A' for Active; 'I' for Inactive)
REMARK    1  A    between atoms: N3_8  and  C6_9 
REMARK    2  A    between atoms: C6_9  and  N4_10 
REMARK       I    between atoms: N4_10  and  C8_12 
REMARK    3  A    between atoms: C8_12  and  C9_14 
REMARK    4  A    between atoms: C10_15  and  C11_16 
REMARK       I    between atoms: C11_16  and  N5_18 
REMARK    5  A    between atoms: N5_18  and  C12_19 
REMARK    6  A    between atoms: C12_19  and  C13_20 
REMARK    7  A    between atoms: C13_20  and  C14_21 
REMARK    8  A    between atoms: C14_21  and  N6_22 
ROOT
HETATM    1  N4  UNL     1      25.303   2.142  51.154  1.00  0.00    -0.335 N 
HETATM    2  C7  UNL     1      26.343   1.553  51.987  1.00  0.00     0.154 C 
HETATM    3  C8  UNL     1      25.502   3.145  50.180  1.00  0.00     0.244 C 
HETATM    4  O1  UNL     1      24.302   3.228  49.808  1.00  0.00    -0.268 OA
ENDROOT
BRANCH   3   5
HETATM    5  C9  UNL     1      26.564   3.934  49.632  1.00  0.00     0.080 C 
HETATM    6  C10 UNL     1      26.450   5.137  49.089  1.00  0.00     0.079 C 
BRANCH   6   7
HETATM    7  C11 UNL     1      27.505   5.964  48.524  1.00  0.00     0.241 C 
HETATM    8  O2  UNL     1      27.156   6.961  47.807  1.00  0.00    -0.269 OA
HETATM    9  N5  UNL     1      28.902   5.790  48.677  1.00  0.00    -0.358 N 
HETATM   10  H12 UNL     1      28.999   4.909  49.282  1.00  0.00     0.162 HD
BRANCH   9  11
HETATM   11  C12 UNL     1      30.101   6.415  48.282  1.00  0.00     0.124 C 
BRANCH  11  12
HETATM   12  C13 UNL     1      31.339   6.264  49.063  1.00  0.00     0.050 C 
BRANCH  12  13
HETATM   13  C14 UNL     1      32.592   6.363  48.268  1.00  0.00     0.273 C 
BRANCH  13  14
HETATM   14  N6  UNL     1      33.412   5.143  48.407  1.00  0.00     0.080 N 
HETATM   15  C15 UNL     1      34.806   5.391  48.217  1.00  0.00     0.309 C 
HETATM   16  C16 UNL     1      32.889   4.085  47.604  1.00  0.00     0.309 C 
ENDBRANCH  13  14
ENDBRANCH  12  13
ENDBRANCH  11  12
ENDBRANCH   9  11
ENDBRANCH   6   7
ENDBRANCH   3   5
BRANCH   1  17
HETATM   17  C6  UNL     1      23.937   1.668  51.324  1.00  0.00     0.276 C 
BRANCH  17  18
HETATM   18  N3  UNL     1      23.881   0.796  52.439  1.00  0.00    -0.267 NA
HETATM   19  C5  UNL     1      22.925   0.156  52.948  1.00  0.00     0.095 A 
HETATM   20  C2  UNL     1      21.505  -0.018  52.691  1.00  0.00     0.066 A 
HETATM   21  C4  UNL     1      23.346  -0.637  54.130  1.00  0.00     0.151 A 
HETATM   22  C1  UNL     1      21.092   0.672  51.649  1.00  0.00     0.068 C 
HETATM   23  N1  UNL     1      20.696  -0.849  53.507  1.00  0.00    -0.244 NA
HETATM   24  C3  UNL     1      21.156  -1.495  54.508  1.00  0.00     0.232 A 
HETATM   25  N2  UNL     1      22.535  -1.359  54.801  1.00  0.00    -0.252 NA
ENDBRANCH  17  18
ENDBRANCH   1  17
TORSDOF 8
ENDMDL
MODEL 3
REMARK VINA RESULT:      -6.4      7.712     11.746
REMARK  8 active torsions:
REMARK  status: ('A' for Active; 'I' for Inactive)
REMARK    1  A    between atoms: N3_8  and  C6_9 
REMARK    2  A    between atoms: C6_9  and  N4_10 
REMARK       I    between atoms: N4_10  and  C8_12 
REMARK    3  A    between atoms: C8_12  and  C9_14 
REMARK    4  A    between atoms: C10_15  and  C11_16 
REMARK       I    between atoms: C11_16  and  N5_18 
REMARK    5  A    between atoms: N5_18  and  C12_19 
REMARK    6  A    between atoms: C12_19  and  C13_20 
REMARK    7  A    between atoms: C13_20  and  C14_21 
REMARK    8  A    between atoms: C14_21  and  N6_22 
ROOT
HETATM    1  N4  UNL     1      22.835  -0.250  53.594  1.00  0.00    -0.335 N 
HETATM    2  C7  UNL     1      23.029  -1.070  54.783  1.00  0.00     0.154 C 
HETATM    3  C8  UNL     1      21.587   0.150  53.068  1.00  0.00     0.244 C 
HETATM    4  O1  UNL     1      22.042   0.812  52.099  1.00  0.00    -0.268 OA
ENDROOT
BRANCH   3   5
HETATM    5  C9  UNL     1      20.190  -0.005  53.344  1.00  0.00     0.080 C 
HETATM    6  C10 UNL     1      19.248  -0.322  52.468  1.00  0.00     0.079 C 
BRANCH   6   7
HETATM    7  C11 UNL     1      17.823  -0.487  52.713  1.00  0.00     0.241 C 
HETATM    8  O2  UNL     1      17.472  -1.243  53.680  1.00  0.00    -0.269 OA
HETATM    9  N5  UNL     1      16.757   0.103  51.991  1.00  0.00    -0.358 N 
HETATM   10  H12 UNL     1      17.238   0.676  51.221  1.00  0.00     0.162 HD
BRANCH   9  11
HETATM   11  C12 UNL     1      15.349   0.139  52.012  1.00  0.00     0.124 C 
BRANCH  11  12
HETATM   12  C13 UNL     1      14.618   1.260  52.625  1.00  0.00     0.050 C 
BRANCH  12  13
HETATM   13  C14 UNL     1      13.548   0.859  53.576  1.00  0.00     0.273 C 
BRANCH  13  14
HETATM   14  N6  UNL     1      12.668   1.999  53.903  1.00  0.00     0.080 N 
HETATM   15  C15 UNL     1      11.702   1.680  54.906  1.00  0.00     0.309 C 
HETATM   16  C16 UNL     1      12.116   2.572  52.717  1.00  0.00     0.309 C 
ENDBRANCH  13  14
ENDBRANCH  12  13
ENDBRANCH  11  12
ENDBRANCH   9  11
ENDBRANCH   6   7
ENDBRANCH   3   5
BRANCH   1  17
HETATM   17  C6  UNL     1      24.016   0.206  52.876  1.00  0.00     0.276 C 
BRANCH  17  18
HETATM   18  N3  UNL     1      25.132   0.182  53.747  1.00  0.00    -0.267 NA
HETATM   19  C5  UNL     1      26.278   0.689  53.647  1.00  0.00     0.095 A 
HETATM   20  C2  UNL     1      27.003   1.495  52.679  1.00  0.00     0.066 A 
HETATM   21  C4  UNL     1      27.131   0.391  54.825  1.00  0.00     0.151 A 
HETATM   22  C1  UNL     1      26.281   1.781  51.617  1.00  0.00     0.068 C 
HETATM   23  N1  UNL     1      28.344   1.902  52.901  1.00  0.00    -0.244 NA
HETATM   24  C3  UNL     1      28.995   1.591  53.955  1.00  0.00     0.232 A 
HETATM   25  N2  UNL     1      28.333   0.806  54.930  1.00  0.00    -0.252 NA
ENDBRANCH  17  18
ENDBRANCH   1  17
TORSDOF 8
ENDMDL
MODEL 4
REMARK VINA RESULT:      -6.3      3.323      4.239
REMARK  8 active torsions:
REMARK  status: ('A' for Active; 'I' for Inactive)
REMARK    1  A    between atoms: N3_8  and  C6_9 
REMARK    2  A    between atoms: C6_9  and  N4_10 
REMARK       I    between atoms: N4_10  and  C8_12 
REMARK    3  A    between atoms: C8_12  and  C9_14 
REMARK    4  A    between atoms: C10_15  and  C11_16 
REMARK       I    between atoms: C11_16  and  N5_18 
REMARK    5  A    between atoms: N5_18  and  C12_19 
REMARK    6  A    between atoms: C12_19  and  C13_20 
REMARK    7  A    between atoms: C13_20  and  C14_21 
REMARK    8  A    between atoms: C14_21  and  N6_22 
ROOT
HETATM    1  N4  UNL     1      25.474   2.323  51.029  1.00  0.00    -0.335 N 
HETATM    2  C7  UNL     1      26.476   1.494  51.686  1.00  0.00     0.154 C 
HETATM    3  C8  UNL     1      25.744   3.433  50.199  1.00  0.00     0.244 C 
HETATM    4  O1  UNL     1      24.546   3.714  49.936  1.00  0.00    -0.268 OA
ENDROOT
BRANCH   3   5
HETATM    5  C9  UNL     1      26.866   4.166  49.694  1.00  0.00     0.080 C 
HETATM    6  C10 UNL     1      26.819   5.223  48.896  1.00  0.00     0.079 C 
BRANCH   6   7
HETATM    7  C11 UNL     1      27.936   5.988  48.364  1.00  0.00     0.241 C 
HETATM    8  O2  UNL     1      27.670   6.937  47.552  1.00  0.00    -0.269 OA
HETATM    9  N5  UNL     1      29.311   5.802  48.646  1.00  0.00    -0.358 N 
HETATM   10  H12 UNL     1      29.338   4.966  49.318  1.00  0.00     0.162 HD
BRANCH   9  11
HETATM   11  C12 UNL     1      30.553   6.377  48.310  1.00  0.00     0.124 C 
BRANCH  11  12
HETATM   12  C13 UNL     1      31.186   7.392  49.167  1.00  0.00     0.050 C 
BRANCH  12  13
HETATM   13  C14 UNL     1      31.375   8.719  48.523  1.00  0.00     0.273 C 
BRANCH  13  14
HETATM   14  N6  UNL     1      30.077   9.344  48.195  1.00  0.00     0.080 N 
HETATM   15  C15 UNL     1      30.210  10.465  47.320  1.00  0.00     0.309 C 
HETATM   16  C16 UNL     1      29.328   9.610  49.382  1.00  0.00     0.309 C 
ENDBRANCH  13  14
ENDBRANCH  12  13
ENDBRANCH  11  12
ENDBRANCH   9  11
ENDBRANCH   6   7
ENDBRANCH   3   5
BRANCH   1  17
HETATM   17  C6  UNL     1      24.071   1.993  51.231  1.00  0.00     0.276 C 
BRANCH  17  18
HETATM   18  N3  UNL     1      23.971   0.916  52.146  1.00  0.00    -0.267 NA
HETATM   19  C5  UNL     1      23.028   0.538  52.887  1.00  0.00     0.095 A 
HETATM   20  C2  UNL     1      21.667   0.959  53.175  1.00  0.00     0.066 A 
HETATM   21  C4  UNL     1      23.388  -0.657  53.690  1.00  0.00     0.151 A 
HETATM   22  C1  UNL     1      21.309   2.019  52.482  1.00  0.00     0.068 C 
HETATM   23  N1  UNL     1      20.855   0.271  54.112  1.00  0.00    -0.244 NA
HETATM   24  C3  UNL     1      21.261  -0.755  54.757  1.00  0.00     0.232 A 
HETATM   25  N2  UNL     1      22.580  -1.207  54.512  1.00  0.00    -0.252 NA
ENDBRANCH  17  18
ENDBRANCH   1  17
TORSDOF 8
ENDMDL
MODEL 5
REMARK VINA RESULT:      -6.2      7.682     10.732
REMARK  8 active torsions:
REMARK  status: ('A' for Active; 'I' for Inactive)
REMARK    1  A    between atoms: N3_8  and  C6_9 
REMARK    2  A    between atoms: C6_9  and  N4_10 
REMARK       I    between atoms: N4_10  and  C8_12 
REMARK    3  A    between atoms: C8_12  and  C9_14 
REMARK    4  A    between atoms: C10_15  and  C11_16 
REMARK       I    between atoms: C11_16  and  N5_18 
REMARK    5  A    between atoms: N5_18  and  C12_19 
REMARK    6  A    between atoms: C12_19  and  C13_20 
REMARK    7  A    between atoms: C13_20  and  C14_21 
REMARK    8  A    between atoms: C14_21  and  N6_22 
ROOT
HETATM    1  N4  UNL     1      22.991   0.354  52.862  1.00  0.00    -0.335 N 
HETATM    2  C7  UNL     1      23.466   1.631  52.346  1.00  0.00     0.154 C 
HETATM    3  C8  UNL     1      21.639   0.003  53.069  1.00  0.00     0.244 C 
HETATM    4  O1  UNL     1      21.853  -1.162  53.492  1.00  0.00    -0.268 OA
ENDROOT
BRANCH   3   5
HETATM    5  C9  UNL     1      20.334   0.577  52.931  1.00  0.00     0.080 C 
HETATM    6  C10 UNL     1      19.859   1.198  51.862  1.00  0.00     0.079 C 
BRANCH   6   7
HETATM    7  C11 UNL     1      18.541   1.792  51.688  1.00  0.00     0.241 C 
HETATM    8  O2  UNL     1      18.463   3.067  51.675  1.00  0.00    -0.269 OA
HETATM    9  N5  UNL     1      17.311   1.110  51.530  1.00  0.00    -0.358 N 
HETATM   10  H12 UNL     1      17.569   0.070  51.585  1.00  0.00     0.162 HD
BRANCH   9  11
HETATM   11  C12 UNL     1      15.948   1.407  51.331  1.00  0.00     0.124 C 
BRANCH  11  12
HETATM   12  C13 UNL     1      15.035   1.623  52.465  1.00  0.00     0.050 C 
BRANCH  12  13
HETATM   13  C14 UNL     1      14.770   3.050  52.788  1.00  0.00     0.273 C 
BRANCH  13  14
HETATM   14  N6  UNL     1      13.345   3.271  53.108  1.00  0.00     0.080 N 
HETATM   15  C15 UNL     1      13.140   4.397  53.963  1.00  0.00     0.309 C 
HETATM   16  C16 UNL     1      12.736   2.065  53.568  1.00  0.00     0.309 C 
ENDBRANCH  13  14
ENDBRANCH  12  13
ENDBRANCH  11  12
ENDBRANCH   9  11
ENDBRANCH   6   7
ENDBRANCH   3   5
BRANCH   1  17
HETATM   17  C6  UNL     1      23.980  -0.662  53.194  1.00  0.00     0.276 C 
BRANCH  17  18
HETATM   18  N3  UNL     1      25.039  -0.063  53.920  1.00  0.00    -0.267 NA
HETATM   19  C5  UNL     1      26.280  -0.266  53.902  1.00  0.00     0.095 A 
HETATM   20  C2  UNL     1      27.205  -1.138  53.197  1.00  0.00     0.066 A 
HETATM   21  C4  UNL     1      27.008   0.611  54.853  1.00  0.00     0.151 A 
HETATM   22  C1  UNL     1      26.597  -1.934  52.342  1.00  0.00     0.068 C 
HETATM   23  N1  UNL     1      28.601  -1.098  53.440  1.00  0.00    -0.244 NA
HETATM   24  C3  UNL     1      29.133  -0.302  54.285  1.00  0.00     0.232 A 
HETATM   25  N2  UNL     1      28.275   0.569  55.000  1.00  0.00    -0.252 NA
ENDBRANCH  17  18
ENDBRANCH   1  17
TORSDOF 8
ENDMDL
MODEL 6
REMARK VINA RESULT:      -6.2      3.345      4.124
REMARK  8 active torsions:
REMARK  status: ('A' for Active; 'I' for Inactive)
REMARK    1  A    between atoms: N3_8  and  C6_9 
REMARK    2  A    between atoms: C6_9  and  N4_10 
REMARK       I    between atoms: N4_10  and  C8_12 
REMARK    3  A    between atoms: C8_12  and  C9_14 
REMARK    4  A    between atoms: C10_15  and  C11_16 
REMARK       I    between atoms: C11_16  and  N5_18 
REMARK    5  A    between atoms: N5_18  and  C12_19 
REMARK    6  A    between atoms: C12_19  and  C13_20 
REMARK    7  A    between atoms: C13_20  and  C14_21 
REMARK    8  A    between atoms: C14_21  and  N6_22 
ROOT
HETATM    1  N4  UNL     1      24.133   3.578  51.114  1.00  0.00    -0.335 N 
HETATM    2  C7  UNL     1      23.425   4.334  52.139  1.00  0.00     0.154 C 
HETATM    3  C8  UNL     1      25.001   4.124  50.144  1.00  0.00     0.244 C 
HETATM    4  O1  UNL     1      25.297   3.037  49.583  1.00  0.00    -0.268 OA
ENDROOT
BRANCH   3   5
HETATM    5  C9  UNL     1      25.514   5.398  49.738  1.00  0.00     0.080 C 
HETATM    6  C10 UNL     1      26.638   5.616  49.071  1.00  0.00     0.079 C 
BRANCH   6   7
HETATM    7  C11 UNL     1      27.189   6.893  48.645  1.00  0.00     0.241 C 
HETATM    8  O2  UNL     1      26.645   7.468  47.642  1.00  0.00    -0.269 OA
HETATM    9  N5  UNL     1      28.279   7.589  49.221  1.00  0.00    -0.358 N 
HETATM   10  H12 UNL     1      28.611   6.955  50.021  1.00  0.00     0.162 HD
BRANCH   9  11
HETATM   11  C12 UNL     1      28.985   8.795  49.042  1.00  0.00     0.124 C 
BRANCH  11  12
HETATM   12  C13 UNL     1      30.325   8.817  48.432  1.00  0.00     0.050 C 
BRANCH  12  13
HETATM   13  C14 UNL     1      31.429   8.414  49.342  1.00  0.00     0.273 C 
BRANCH  13  14
HETATM   14  N6  UNL     1      31.997   7.108  48.949  1.00  0.00     0.080 N 
HETATM   15  C15 UNL     1      31.731   6.081  49.905  1.00  0.00     0.309 C 
HETATM   16  C16 UNL     1      33.375   7.240  48.596  1.00  0.00     0.309 C 
ENDBRANCH  13  14
ENDBRANCH  12  13
ENDBRANCH  11  12
ENDBRANCH   9  11
ENDBRANCH   6   7
ENDBRANCH   3   5
BRANCH   1  17
HETATM   17  C6  UNL     1      23.943   2.135  51.073  1.00  0.00     0.276 C 
BRANCH  17  18
HETATM   18  N3  UNL     1      22.798   1.791  51.831  1.00  0.00    -0.267 NA
HETATM   19  C5  UNL     1      22.610   0.900  52.698  1.00  0.00     0.095 A 
HETATM   20  C2  UNL     1      23.388  -0.154  53.326  1.00  0.00     0.066 A 
HETATM   21  C4  UNL     1      21.223   0.914  53.228  1.00  0.00     0.151 A 
HETATM   22  C1  UNL     1      24.626  -0.201  52.881  1.00  0.00     0.068 C 
HETATM   23  N1  UNL     1      22.828  -1.013  54.305  1.00  0.00    -0.244 NA
HETATM   24  C3  UNL     1      21.616  -0.919  54.696  1.00  0.00     0.232 A 
HETATM   25  N2  UNL     1      20.814   0.092  54.115  1.00  0.00    -0.252 NA
ENDBRANCH  17  18
ENDBRANCH   1  17
TORSDOF 8
ENDMDL
MODEL 7
REMARK VINA RESULT:      -6.1      3.701      4.617
REMARK  8 active torsions:
REMARK  status: ('A' for Active; 'I' for Inactive)
REMARK    1  A    between atoms: N3_8  and  C6_9 
REMARK    2  A    between atoms: C6_9  and  N4_10 
REMARK       I    between atoms: N4_10  and  C8_12 
REMARK    3  A    between atoms: C8_12  and  C9_14 
REMARK    4  A    between atoms: C10_15  and  C11_16 
REMARK       I    between atoms: C11_16  and  N5_18 
REMARK    5  A    between atoms: N5_18  and  C12_19 
REMARK    6  A    between atoms: C12_19  and  C13_20 
REMARK    7  A    between atoms: C13_20  and  C14_21 
REMARK    8  A    between atoms: C14_21  and  N6_22 
ROOT
HETATM    1  N4  UNL     1      24.644   2.600  51.731  1.00  0.00    -0.335 N 
HETATM    2  C7  UNL     1      25.626   1.538  51.905  1.00  0.00     0.154 C 
HETATM    3  C8  UNL     1      24.783   3.714  50.875  1.00  0.00     0.244 C 
HETATM    4  O1  UNL     1      23.669   4.239  51.136  1.00  0.00    -0.268 OA
ENDROOT
BRANCH   3   5
HETATM    5  C9  UNL     1      25.732   4.268  49.956  1.00  0.00     0.080 C 
HETATM    6  C10 UNL     1      25.900   5.553  49.680  1.00  0.00     0.079 C 
BRANCH   6   7
HETATM    7  C11 UNL     1      26.852   6.148  48.754  1.00  0.00     0.241 C 
HETATM    8  O2  UNL     1      26.393   6.938  47.861  1.00  0.00    -0.269 OA
HETATM    9  N5  UNL     1      28.253   5.951  48.723  1.00  0.00    -0.358 N 
HETATM   10  H12 UNL     1      28.445   5.256  49.519  1.00  0.00     0.162 HD
BRANCH   9  11
HETATM   11  C12 UNL     1      29.373   6.390  47.990  1.00  0.00     0.124 C 
BRANCH  11  12
HETATM   12  C13 UNL     1      29.609   7.820  47.730  1.00  0.00     0.050 C 
BRANCH  12  13
HETATM   13  C14 UNL     1      29.821   8.647  48.947  1.00  0.00     0.273 C 
BRANCH  13  14
HETATM   14  N6  UNL     1      28.807   9.716  49.050  1.00  0.00     0.080 N 
HETATM   15  C15 UNL     1      27.793   9.424  50.013  1.00  0.00     0.309 C 
HETATM   16  C16 UNL     1      28.308  10.069  47.760  1.00  0.00     0.309 C 
ENDBRANCH  13  14
ENDBRANCH  12  13
ENDBRANCH  11  12
ENDBRANCH   9  11
ENDBRANCH   6   7
ENDBRANCH   3   5
BRANCH   1  17
HETATM   17  C6  UNL     1      23.407   2.522  52.495  1.00  0.00     0.276 C 
BRANCH  17  18
HETATM   18  N3  UNL     1      23.284   1.227  53.055  1.00  0.00    -0.267 NA
HETATM   19  C5  UNL     1      22.273   0.534  53.335  1.00  0.00     0.095 A 
HETATM   20  C2  UNL     1      20.829   0.673  53.244  1.00  0.00     0.066 A 
HETATM   21  C4  UNL     1      22.637  -0.782  53.918  1.00  0.00     0.151 A 
HETATM   22  C1  UNL     1      20.465   1.830  52.732  1.00  0.00     0.068 C 
HETATM   23  N1  UNL     1      19.952  -0.353  53.676  1.00  0.00    -0.244 NA
HETATM   24  C3  UNL     1      20.366  -1.457  54.168  1.00  0.00     0.232 A 
HETATM   25  N2  UNL     1      21.766  -1.643  54.278  1.00  0.00    -0.252 NA
ENDBRANCH  17  18
ENDBRANCH   1  17
TORSDOF 8
ENDMDL
MODEL 8
REMARK VINA RESULT:      -6.1      6.738     10.120
REMARK  8 active torsions:
REMARK  status: ('A' for Active; 'I' for Inactive)
REMARK    1  A    between atoms: N3_8  and  C6_9 
REMARK    2  A    between atoms: C6_9  and  N4_10 
REMARK       I    between atoms: N4_10  and  C8_12 
REMARK    3  A    between atoms: C8_12  and  C9_14 
REMARK    4  A    between atoms: C10_15  and  C11_16 
REMARK       I    between atoms: C11_16  and  N5_18 
REMARK    5  A    between atoms: N5_18  and  C12_19 
REMARK    6  A    between atoms: C12_19  and  C13_20 
REMARK    7  A    between atoms: C13_20  and  C14_21 
REMARK    8  A    between atoms: C14_21  and  N6_22 
ROOT
HETATM    1  N4  UNL     1      23.869   0.689  52.729  1.00  0.00    -0.335 N 
HETATM    2  C7  UNL     1      23.701  -0.449  53.625  1.00  0.00     0.154 C 
HETATM    3  C8  UNL     1      22.828   1.503  52.233  1.00  0.00     0.244 C 
HETATM    4  O1  UNL     1      23.557   2.279  51.560  1.00  0.00    -0.268 OA
ENDROOT
BRANCH   3   5
HETATM    5  C9  UNL     1      21.402   1.614  52.312  1.00  0.00     0.080 C 
HETATM    6  C10 UNL     1      20.520   0.907  51.621  1.00  0.00     0.079 C 
BRANCH   6   7
HETATM    7  C11 UNL     1      19.069   0.994  51.676  1.00  0.00     0.241 C 
HETATM    8  O2  UNL     1      18.440   0.044  52.251  1.00  0.00    -0.269 OA
HETATM    9  N5  UNL     1      18.254   2.029  51.155  1.00  0.00    -0.358 N 
HETATM   10  H12 UNL     1      18.946   2.714  50.701  1.00  0.00     0.162 HD
BRANCH   9  11
HETATM   11  C12 UNL     1      16.890   2.374  51.082  1.00  0.00     0.124 C 
BRANCH  11  12
HETATM   12  C13 UNL     1      16.314   3.415  51.949  1.00  0.00     0.050 C 
BRANCH  12  13
HETATM   13  C14 UNL     1      15.062   3.019  52.647  1.00  0.00     0.273 C 
BRANCH  13  14
HETATM   14  N6  UNL     1      14.015   4.049  52.493  1.00  0.00     0.080 N 
HETATM   15  C15 UNL     1      13.441   4.442  53.741  1.00  0.00     0.309 C 
HETATM   16  C16 UNL     1      13.061   3.660  51.504  1.00  0.00     0.309 C 
ENDBRANCH  13  14
ENDBRANCH  12  13
ENDBRANCH  11  12
ENDBRANCH   9  11
ENDBRANCH   6   7
ENDBRANCH   3   5
BRANCH   1  17
HETATM   17  C6  UNL     1      25.218   1.031  52.302  1.00  0.00     0.276 C 
BRANCH  17  18
HETATM   18  N3  UNL     1      26.079  -0.066  52.549  1.00  0.00    -0.267 NA
HETATM   19  C5  UNL     1      27.276  -0.114  52.933  1.00  0.00     0.095 A 
HETATM   20  C2  UNL     1      28.317   0.833  53.294  1.00  0.00     0.066 A 
HETATM   21  C4  UNL     1      27.773  -1.508  53.049  1.00  0.00     0.151 A 
HETATM   22  C1  UNL     1      27.915   2.084  53.202  1.00  0.00     0.068 C 
HETATM   23  N1  UNL     1      29.609   0.407  53.693  1.00  0.00    -0.244 NA
HETATM   24  C3  UNL     1      29.940  -0.825  53.762  1.00  0.00     0.232 A 
HETATM   25  N2  UNL     1      28.961  -1.790  53.420  1.00  0.00    -0.252 NA
ENDBRANCH  17  18
ENDBRANCH   1  17
TORSDOF 8
ENDMDL
MODEL 9
REMARK VINA RESULT:      -6.1      1.523      9.547
REMARK  8 active torsions:
REMARK  status: ('A' for Active; 'I' for Inactive)
REMARK    1  A    between atoms: N3_8  and  C6_9 
REMARK    2  A    between atoms: C6_9  and  N4_10 
REMARK       I    between atoms: N4_10  and  C8_12 
REMARK    3  A    between atoms: C8_12  and  C9_14 
REMARK    4  A    between atoms: C10_15  and  C11_16 
REMARK       I    between atoms: C11_16  and  N5_18 
REMARK    5  A    between atoms: N5_18  and  C12_19 
REMARK    6  A    between atoms: C12_19  and  C13_20 
REMARK    7  A    between atoms: C13_20  and  C14_21 
REMARK    8  A    between atoms: C14_21  and  N6_22 
ROOT
HETATM    1  N4  UNL     1      27.644   7.561  47.269  1.00  0.00    -0.335 N 
HETATM    2  C7  UNL     1      26.417   8.285  46.965  1.00  0.00     0.154 C 
HETATM    3  C8  UNL     1      27.732   6.388  48.049  1.00  0.00     0.244 C 
HETATM    4  O1  UNL     1      28.978   6.238  47.949  1.00  0.00    -0.268 OA
ENDROOT
BRANCH   3   5
HETATM    5  C9  UNL     1      26.878   5.505  48.787  1.00  0.00     0.080 C 
HETATM    6  C10 UNL     1      27.149   4.254  49.129  1.00  0.00     0.079 C 
BRANCH   6   7
HETATM    7  C11 UNL     1      26.306   3.332  49.875  1.00  0.00     0.241 C 
HETATM    8  O2  UNL     1      25.078   3.246  49.536  1.00  0.00    -0.269 OA
HETATM    9  N5  UNL     1      26.694   2.503  50.955  1.00  0.00    -0.358 N 
HETATM   10  H12 UNL     1      27.734   2.723  51.105  1.00  0.00     0.162 HD
BRANCH   9  11
HETATM   11  C12 UNL     1      26.127   1.540  51.814  1.00  0.00     0.124 C 
BRANCH  11  12
HETATM   12  C13 UNL     1      26.515   0.122  51.741  1.00  0.00     0.050 C 
BRANCH  12  13
HETATM   13  C14 UNL     1      27.364  -0.348  52.868  1.00  0.00     0.273 C 
BRANCH  13  14
HETATM   14  N6  UNL     1      27.444   0.667  53.938  1.00  0.00     0.080 N 
HETATM   15  C15 UNL     1      28.786   1.071  54.215  1.00  0.00     0.309 C 
HETATM   16  C16 UNL     1      26.706   0.251  55.088  1.00  0.00     0.309 C 
ENDBRANCH  13  14
ENDBRANCH  12  13
ENDBRANCH  11  12
ENDBRANCH   9  11
ENDBRANCH   6   7
ENDBRANCH   3   5
BRANCH   1  17
HETATM   17  C6  UNL     1      28.895   8.074  46.730  1.00  0.00     0.276 C 
BRANCH  17  18
HETATM   18  N3  UNL     1      28.880   9.490  46.780  1.00  0.00    -0.267 NA
HETATM   19  C5  UNL     1      29.443  10.301  47.558  1.00  0.00     0.095 A 
HETATM   20  C2  UNL     1      30.325  10.232  48.711  1.00  0.00     0.066 A 
HETATM   21  C4  UNL     1      29.128  11.713  47.223  1.00  0.00     0.151 A 
HETATM   22  C1  UNL     1      30.627   8.995  49.042  1.00  0.00     0.068 C 
HETATM   23  N1  UNL     1      30.780  11.400  49.374  1.00  0.00    -0.244 NA
HETATM   24  C3  UNL     1      30.450  12.578  49.005  1.00  0.00     0.232 A 
HETATM   25  N2  UNL     1      29.591  12.700  47.886  1.00  0.00    -0.252 NA
ENDBRANCH  17  18
ENDBRANCH   1  17
TORSDOF 8
ENDMDL
