MODEL 1
REMARK VINA RESULT:      -6.8      0.000      0.000
REMARK  7 active torsions:
REMARK  status: ('A' for Active; 'I' for Inactive)
REMARK    1  A    between atoms: N1_2  and  C3_4 
REMARK    2  A    between atoms: C3_4  and  C4_5 
REMARK    3  A    between atoms: C4_5  and  N2_6 
REMARK    4  A    between atoms: N2_6  and  C5_7 
REMARK       I    between atoms: N3_11  and  C9_12 
REMARK    5  A    between atoms: C9_12  and  C10_14 
REMARK    6  A    between atoms: C11_15  and  N4_16 
REMARK    7  A    between atoms: N4_16  and  C12_17 
ROOT
HETATM    1  C5  UNL     1      22.984   0.628  52.948  1.00  0.00     0.029 C 
HETATM    2  C6  UNL     1      23.430  -0.147  53.928  1.00  0.00     0.030 C 
HETATM    3  C7  UNL     1      24.816  -0.554  54.179  1.00  0.00     0.020 C 
HETATM    4  C8  UNL     1      25.923  -0.062  53.641  1.00  0.00     0.099 C 
HETATM    5  N3  UNL     1      26.065   0.982  52.688  1.00  0.00    -0.300 N 
HETATM    6  C9  UNL     1      27.276   1.712  52.547  1.00  0.00     0.260 C 
HETATM    7  O1  UNL     1      27.399   2.638  51.697  1.00  0.00    -0.267 OA
HETATM    8  C14 UNL     1      25.035   1.418  51.778  1.00  0.00     0.102 C 
HETATM    9  C15 UNL     1      23.722   1.275  51.873  1.00  0.00     0.047 C 
ENDROOT
BRANCH   6  10
HETATM   10  C10 UNL     1      28.414   1.396  53.398  1.00  0.00     0.041 A 
HETATM   11  C11 UNL     1      29.434   0.550  53.776  1.00  0.00     0.055 A 
HETATM   12  C13 UNL     1      29.337   1.781  54.526  1.00  0.00     0.106 A 
BRANCH  11  13
HETATM   13  N4  UNL     1      30.036  -0.725  53.469  1.00  0.00    -0.209 NA
BRANCH  13  14
HETATM   14  C12 UNL     1      29.292  -1.719  53.264  1.00  0.00     0.337 C 
HETATM   15  O2  UNL     1      28.559  -2.703  53.298  1.00  0.00    -0.260 OA
ENDBRANCH  13  14
ENDBRANCH  11  13
ENDBRANCH   6  10
BRANCH   1  16
HETATM   16  N2  UNL     1      21.578   0.732  53.127  1.00  0.00    -0.388 N 
HETATM   17  H11 UNL     1      21.383   1.475  53.861  1.00  0.00     0.159 HD
BRANCH  16  18
HETATM   18  C4  UNL     1      20.525  -0.034  52.441  1.00  0.00     0.150 C 
BRANCH  18  19
HETATM   19  C3  UNL     1      19.640  -0.607  53.499  1.00  0.00     0.290 C 
BRANCH  19  20
HETATM   20  N1  UNL     1      18.269  -0.814  53.124  1.00  0.00     0.081 N 
HETATM   21  C1  UNL     1      18.017  -0.488  51.734  1.00  0.00     0.309 C 
HETATM   22  C2  UNL     1      17.767  -2.121  53.429  1.00  0.00     0.309 C 
ENDBRANCH  19  20
ENDBRANCH  18  19
ENDBRANCH  16  18
ENDBRANCH   1  16
TORSDOF 7
ENDMDL
MODEL 2
REMARK VINA RESULT:      -6.6      1.538      2.081
REMARK  7 active torsions:
REMARK  status: ('A' for Active; 'I' for Inactive)
REMARK    1  A    between atoms: N1_2  and  C3_4 
REMARK    2  A    between atoms: C3_4  and  C4_5 
REMARK    3  A    between atoms: C4_5  and  N2_6 
REMARK    4  A    between atoms: N2_6  and  C5_7 
REMARK       I    between atoms: N3_11  and  C9_12 
REMARK    5  A    between atoms: C9_12  and  C10_14 
REMARK    6  A    between atoms: C11_15  and  N4_16 
REMARK    7  A    between atoms: N4_16  and  C12_17 
ROOT
HETATM    1  C5  UNL     1      22.986   0.530  52.914  1.00  0.00     0.029 C 
HETATM    2  C6  UNL     1      23.442  -0.252  53.885  1.00  0.00     0.030 C 
HETATM    3  C7  UNL     1      24.833  -0.641  54.133  1.00  0.00     0.020 C 
HETATM    4  C8  UNL     1      25.934  -0.124  53.605  1.00  0.00     0.099 C 
HETATM    5  N3  UNL     1      26.062   0.935  52.666  1.00  0.00    -0.300 N 
HETATM    6  C9  UNL     1      27.261   1.685  52.538  1.00  0.00     0.260 C 
HETATM    7  O1  UNL     1      27.371   2.626  51.701  1.00  0.00    -0.267 OA
HETATM    8  C14 UNL     1      25.026   1.367  51.759  1.00  0.00     0.102 C 
HETATM    9  C15 UNL     1      23.716   1.203  51.850  1.00  0.00     0.047 C 
ENDROOT
BRANCH   6  10
HETATM   10  C10 UNL     1      28.402   1.376  53.387  1.00  0.00     0.041 A 
HETATM   11  C11 UNL     1      29.413   0.526  53.778  1.00  0.00     0.055 A 
HETATM   12  C13 UNL     1      29.340   1.777  54.497  1.00  0.00     0.106 A 
BRANCH  11  13
HETATM   13  N4  UNL     1      29.995  -0.764  53.499  1.00  0.00    -0.209 NA
BRANCH  13  14
HETATM   14  C12 UNL     1      29.236  -1.751  53.315  1.00  0.00     0.337 C 
HETATM   15  O2  UNL     1      28.663  -2.834  53.247  1.00  0.00    -0.260 OA
ENDBRANCH  13  14
ENDBRANCH  11  13
ENDBRANCH   6  10
BRANCH   1  16
HETATM   16  N2  UNL     1      21.578   0.609  53.091  1.00  0.00    -0.388 N 
HETATM   17  H11 UNL     1      21.239  -0.296  53.532  1.00  0.00     0.159 HD
BRANCH  16  18
HETATM   18  C4  UNL     1      20.689   1.730  52.742  1.00  0.00     0.150 C 
BRANCH  18  19
HETATM   19  C3  UNL     1      19.892   1.302  51.553  1.00  0.00     0.290 C 
BRANCH  19  20
HETATM   20  N1  UNL     1      20.188   1.983  50.324  1.00  0.00     0.081 N 
HETATM   21  C1  UNL     1      20.879   3.240  50.536  1.00  0.00     0.309 C 
HETATM   22  C2  UNL     1      20.889   1.184  49.362  1.00  0.00     0.309 C 
ENDBRANCH  19  20
ENDBRANCH  18  19
ENDBRANCH  16  18
ENDBRANCH   1  16
TORSDOF 7
ENDMDL
MODEL 3
REMARK VINA RESULT:      -6.5      1.965      3.545
REMARK  7 active torsions:
REMARK  status: ('A' for Active; 'I' for Inactive)
REMARK    1  A    between atoms: N1_2  and  C3_4 
REMARK    2  A    between atoms: C3_4  and  C4_5 
REMARK    3  A    between atoms: C4_5  and  N2_6 
REMARK    4  A    between atoms: N2_6  and  C5_7 
REMARK       I    between atoms: N3_11  and  C9_12 
REMARK    5  A    between atoms: C9_12  and  C10_14 
REMARK    6  A    between atoms: C11_15  and  N4_16 
REMARK    7  A    between atoms: N4_16  and  C12_17 
ROOT
HETATM    1  C5  UNL     1      20.648  -0.692  53.723  1.00  0.00     0.029 C 
HETATM    2  C6  UNL     1      20.863  -0.033  52.591  1.00  0.00     0.030 C 
HETATM    3  C7  UNL     1      22.092   0.651  52.180  1.00  0.00     0.020 C 
HETATM    4  C8  UNL     1      23.298   0.563  52.724  1.00  0.00     0.099 C 
HETATM    5  N3  UNL     1      23.720  -0.209  53.839  1.00  0.00    -0.300 N 
HETATM    6  C9  UNL     1      25.081  -0.572  54.030  1.00  0.00     0.260 C 
HETATM    7  O1  UNL     1      25.453  -1.258  55.024  1.00  0.00    -0.267 OA
HETATM    8  C14 UNL     1      22.853  -0.704  54.880  1.00  0.00     0.102 C 
HETATM    9  C15 UNL     1      21.546  -0.915  54.847  1.00  0.00     0.047 C 
ENDROOT
BRANCH   6  10
HETATM   10  C10 UNL     1      26.084  -0.153  53.063  1.00  0.00     0.041 A 
HETATM   11  C11 UNL     1      26.953   0.795  52.567  1.00  0.00     0.055 A 
HETATM   12  C13 UNL     1      26.932  -0.462  51.856  1.00  0.00     0.106 A 
BRANCH  11  13
HETATM   13  N4  UNL     1      27.425   2.141  52.786  1.00  0.00    -0.209 NA
BRANCH  13  14
HETATM   14  C12 UNL     1      28.346   2.338  53.620  1.00  0.00     0.337 C 
HETATM   15  O2  UNL     1      29.135   2.366  54.560  1.00  0.00    -0.260 OA
ENDBRANCH  13  14
ENDBRANCH  11  13
ENDBRANCH   6  10
BRANCH   1  16
HETATM   16  N2  UNL     1      19.314  -1.175  53.659  1.00  0.00    -0.388 N 
HETATM   17  H11 UNL     1      19.161  -1.859  54.458  1.00  0.00     0.159 HD
BRANCH  16  18
HETATM   18  C4  UNL     1      18.275  -0.825  52.676  1.00  0.00     0.150 C 
BRANCH  18  19
HETATM   19  C3  UNL     1      17.074  -1.654  52.992  1.00  0.00     0.290 C 
BRANCH  19  20
HETATM   20  N1  UNL     1      15.812  -1.112  52.573  1.00  0.00     0.081 N 
HETATM   21  C1  UNL     1      15.910   0.276  52.165  1.00  0.00     0.309 C 
HETATM   22  C2  UNL     1      15.146  -1.883  51.565  1.00  0.00     0.309 C 
ENDBRANCH  19  20
ENDBRANCH  18  19
ENDBRANCH  16  18
ENDBRANCH   1  16
TORSDOF 7
ENDMDL
MODEL 4
REMARK VINA RESULT:      -6.3      3.461      8.615
REMARK  7 active torsions:
REMARK  status: ('A' for Active; 'I' for Inactive)
REMARK    1  A    between atoms: N1_2  and  C3_4 
REMARK    2  A    between atoms: C3_4  and  C4_5 
REMARK    3  A    between atoms: C4_5  and  N2_6 
REMARK    4  A    between atoms: N2_6  and  C5_7 
REMARK       I    between atoms: N3_11  and  C9_12 
REMARK    5  A    between atoms: C9_12  and  C10_14 
REMARK    6  A    between atoms: C11_15  and  N4_16 
REMARK    7  A    between atoms: N4_16  and  C12_17 
ROOT
HETATM    1  C5  UNL     1      23.717  -0.183  53.519  1.00  0.00     0.029 C 
HETATM    2  C6  UNL     1      23.125  -0.820  54.521  1.00  0.00     0.030 C 
HETATM    3  C7  UNL     1      21.695  -0.836  54.844  1.00  0.00     0.020 C 
HETATM    4  C8  UNL     1      20.682  -0.424  54.092  1.00  0.00     0.099 C 
HETATM    5  N3  UNL     1      20.709   0.134  52.786  1.00  0.00    -0.300 N 
HETATM    6  C9  UNL     1      19.576   0.099  51.930  1.00  0.00     0.260 C 
HETATM    7  O1  UNL     1      19.603   0.599  50.770  1.00  0.00    -0.267 OA
HETATM    8  C14 UNL     1      21.850   0.783  52.186  1.00  0.00     0.102 C 
HETATM    9  C15 UNL     1      23.133   0.659  52.486  1.00  0.00     0.047 C 
ENDROOT
BRANCH   6  10
HETATM   10  C10 UNL     1      18.343  -0.526  52.387  1.00  0.00     0.041 A 
HETATM   11  C11 UNL     1      17.684  -1.531  53.060  1.00  0.00     0.055 A 
HETATM   12  C13 UNL     1      16.838  -0.530  52.455  1.00  0.00     0.106 A 
BRANCH  11  13
HETATM   13  N4  UNL     1      17.908  -2.735  53.824  1.00  0.00    -0.209 NA
BRANCH  13  14
HETATM   14  C12 UNL     1      17.194  -3.745  53.597  1.00  0.00     0.337 C 
HETATM   15  O2  UNL     1      16.479  -4.743  53.610  1.00  0.00    -0.260 OA
ENDBRANCH  13  14
ENDBRANCH  11  13
ENDBRANCH   6  10
BRANCH   1  16
HETATM   16  N2  UNL     1      25.104  -0.473  53.624  1.00  0.00    -0.388 N 
HETATM   17  H11 UNL     1      25.222  -1.515  53.799  1.00  0.00     0.159 HD
BRANCH  16  18
HETATM   18  C4  UNL     1      26.231   0.469  53.517  1.00  0.00     0.150 C 
BRANCH  18  19
HETATM   19  C3  UNL     1      27.113   0.233  54.699  1.00  0.00     0.290 C 
BRANCH  19  20
HETATM   20  N1  UNL     1      28.485   0.629  54.545  1.00  0.00     0.081 N 
HETATM   21  C1  UNL     1      29.319  -0.442  54.034  1.00  0.00     0.309 C 
HETATM   22  C2  UNL     1      28.670   1.819  53.769  1.00  0.00     0.309 C 
ENDBRANCH  19  20
ENDBRANCH  18  19
ENDBRANCH  16  18
ENDBRANCH   1  16
TORSDOF 7
ENDMDL
MODEL 5
REMARK VINA RESULT:      -6.2      1.546      2.195
REMARK  7 active torsions:
REMARK  status: ('A' for Active; 'I' for Inactive)
REMARK    1  A    between atoms: N1_2  and  C3_4 
REMARK    2  A    between atoms: C3_4  and  C4_5 
REMARK    3  A    between atoms: C4_5  and  N2_6 
REMARK    4  A    between atoms: N2_6  and  C5_7 
REMARK       I    between atoms: N3_11  and  C9_12 
REMARK    5  A    between atoms: C9_12  and  C10_14 
REMARK    6  A    between atoms: C11_15  and  N4_16 
REMARK    7  A    between atoms: N4_16  and  C12_17 
ROOT
HETATM    1  C5  UNL     1      21.709   0.326  52.340  1.00  0.00     0.029 C 
HETATM    2  C6  UNL     1      22.141   1.502  51.903  1.00  0.00     0.030 C 
HETATM    3  C7  UNL     1      23.373   2.197  52.288  1.00  0.00     0.020 C 
HETATM    4  C8  UNL     1      24.411   1.712  52.955  1.00  0.00     0.099 C 
HETATM    5  N3  UNL     1      24.609   0.402  53.470  1.00  0.00    -0.300 N 
HETATM    6  C9  UNL     1      25.905  -0.112  53.740  1.00  0.00     0.260 C 
HETATM    7  O1  UNL     1      26.077  -1.276  54.200  1.00  0.00    -0.267 OA
HETATM    8  C14 UNL     1      23.556  -0.537  53.770  1.00  0.00     0.102 C 
HETATM    9  C15 UNL     1      22.319  -0.583  53.299  1.00  0.00     0.047 C 
ENDROOT
BRANCH   6  10
HETATM   10  C10 UNL     1      27.078   0.712  53.485  1.00  0.00     0.041 A 
HETATM   11  C11 UNL     1      28.445   0.866  53.413  1.00  0.00     0.055 A 
HETATM   12  C13 UNL     1      27.669   2.044  53.103  1.00  0.00     0.106 A 
BRANCH  11  13
HETATM   13  N4  UNL     1      29.688   0.153  53.583  1.00  0.00    -0.209 NA
BRANCH  13  14
HETATM   14  C12 UNL     1      29.681  -1.105  53.550  1.00  0.00     0.337 C 
HETATM   15  O2  UNL     1      29.600  -2.314  53.740  1.00  0.00    -0.260 OA
ENDBRANCH  13  14
ENDBRANCH  11  13
ENDBRANCH   6  10
BRANCH   1  16
HETATM   16  N2  UNL     1      20.476   0.080  51.679  1.00  0.00    -0.388 N 
HETATM   17  H11 UNL     1      20.680  -0.253  50.690  1.00  0.00     0.159 HD
BRANCH  16  18
HETATM   18  C4  UNL     1      19.117   0.241  52.221  1.00  0.00     0.150 C 
BRANCH  18  19
HETATM   19  C3  UNL     1      18.953  -0.774  53.303  1.00  0.00     0.290 C 
BRANCH  19  20
HETATM   20  N1  UNL     1      17.654  -1.379  53.403  1.00  0.00     0.081 N 
HETATM   21  C1  UNL     1      16.798  -1.046  52.281  1.00  0.00     0.309 C 
HETATM   22  C2  UNL     1      17.679  -2.797  53.609  1.00  0.00     0.309 C 
ENDBRANCH  19  20
ENDBRANCH  18  19
ENDBRANCH  16  18
ENDBRANCH   1  16
TORSDOF 7
ENDMDL
MODEL 6
REMARK VINA RESULT:      -6.2      3.445      8.945
REMARK  7 active torsions:
REMARK  status: ('A' for Active; 'I' for Inactive)
REMARK    1  A    between atoms: N1_2  and  C3_4 
REMARK    2  A    between atoms: C3_4  and  C4_5 
REMARK    3  A    between atoms: C4_5  and  N2_6 
REMARK    4  A    between atoms: N2_6  and  C5_7 
REMARK       I    between atoms: N3_11  and  C9_12 
REMARK    5  A    between atoms: C9_12  and  C10_14 
REMARK    6  A    between atoms: C11_15  and  N4_16 
REMARK    7  A    between atoms: N4_16  and  C12_17 
ROOT
HETATM    1  C5  UNL     1      23.761   0.199  53.090  1.00  0.00     0.029 C 
HETATM    2  C6  UNL     1      23.403  -0.565  54.114  1.00  0.00     0.030 C 
HETATM    3  C7  UNL     1      22.049  -0.783  54.631  1.00  0.00     0.020 C 
HETATM    4  C8  UNL     1      20.894  -0.462  54.061  1.00  0.00     0.099 C 
HETATM    5  N3  UNL     1      20.661   0.169  52.811  1.00  0.00    -0.300 N 
HETATM    6  C9  UNL     1      19.426   0.039  52.121  1.00  0.00     0.260 C 
HETATM    7  O1  UNL     1      19.221   0.604  51.009  1.00  0.00    -0.267 OA
HETATM    8  C14 UNL     1      21.615   0.993  52.108  1.00  0.00     0.102 C 
HETATM    9  C15 UNL     1      22.934   1.018  52.215  1.00  0.00     0.047 C 
ENDROOT
BRANCH   6  10
HETATM   10  C10 UNL     1      18.357  -0.766  52.696  1.00  0.00     0.041 A 
HETATM   11  C11 UNL     1      17.033  -0.940  53.031  1.00  0.00     0.055 A 
HETATM   12  C13 UNL     1      17.909  -2.037  53.369  1.00  0.00     0.106 A 
BRANCH  11  13
HETATM   13  N4  UNL     1      15.744  -0.293  52.980  1.00  0.00    -0.209 NA
BRANCH  13  14
HETATM   14  C12 UNL     1      15.606   0.740  52.275  1.00  0.00     0.337 C 
HETATM   15  O2  UNL     1      15.682   1.807  51.674  1.00  0.00    -0.260 OA
ENDBRANCH  13  14
ENDBRANCH  11  13
ENDBRANCH   6  10
BRANCH   1  16
HETATM   16  N2  UNL     1      25.172   0.084  52.978  1.00  0.00    -0.388 N 
HETATM   17  H11 UNL     1      25.507   0.736  52.208  1.00  0.00     0.159 HD
BRANCH  16  18
HETATM   18  C4  UNL     1      26.071  -0.776  53.766  1.00  0.00     0.150 C 
BRANCH  18  19
HETATM   19  C3  UNL     1      27.315  -0.963  52.961  1.00  0.00     0.290 C 
BRANCH  19  20
HETATM   20  N1  UNL     1      28.505  -0.366  53.500  1.00  0.00     0.081 N 
HETATM   21  C1  UNL     1      28.321   0.115  54.856  1.00  0.00     0.309 C 
HETATM   22  C2  UNL     1      29.669  -1.198  53.419  1.00  0.00     0.309 C 
ENDBRANCH  19  20
ENDBRANCH  18  19
ENDBRANCH  16  18
ENDBRANCH   1  16
TORSDOF 7
ENDMDL
MODEL 7
REMARK VINA RESULT:      -6.2      3.572      5.432
REMARK  7 active torsions:
REMARK  status: ('A' for Active; 'I' for Inactive)
REMARK    1  A    between atoms: N1_2  and  C3_4 
REMARK    2  A    between atoms: C3_4  and  C4_5 
REMARK    3  A    between atoms: C4_5  and  N2_6 
REMARK    4  A    between atoms: N2_6  and  C5_7 
REMARK       I    between atoms: N3_11  and  C9_12 
REMARK    5  A    between atoms: C9_12  and  C10_14 
REMARK    6  A    between atoms: C11_15  and  N4_16 
REMARK    7  A    between atoms: N4_16  and  C12_17 
ROOT
HETATM    1  C5  UNL     1      23.835   3.322  50.627  1.00  0.00     0.029 C 
HETATM    2  C6  UNL     1      25.073   3.359  50.152  1.00  0.00     0.030 C 
HETATM    3  C7  UNL     1      26.275   2.775  50.754  1.00  0.00     0.020 C 
HETATM    4  C8  UNL     1      26.350   1.906  51.753  1.00  0.00     0.099 C 
HETATM    5  N3  UNL     1      25.297   1.311  52.499  1.00  0.00    -0.300 N 
HETATM    6  C9  UNL     1      25.470   0.087  53.200  1.00  0.00     0.260 C 
HETATM    7  O1  UNL     1      24.532  -0.437  53.864  1.00  0.00    -0.267 OA
HETATM    8  C14 UNL     1      23.968   1.855  52.634  1.00  0.00     0.102 C 
HETATM    9  C15 UNL     1      23.332   2.710  51.848  1.00  0.00     0.047 C 
ENDROOT
BRANCH   6  10
HETATM   10  C10 UNL     1      26.756  -0.594  53.159  1.00  0.00     0.041 A 
HETATM   11  C11 UNL     1      28.088  -0.666  53.503  1.00  0.00     0.055 A 
HETATM   12  C13 UNL     1      27.595  -1.756  52.695  1.00  0.00     0.106 A 
BRANCH  11  13
HETATM   13  N4  UNL     1      29.123   0.031  54.229  1.00  0.00    -0.209 NA
BRANCH  13  14
HETATM   14  C12 UNL     1      29.073   1.285  54.312  1.00  0.00     0.337 C 
HETATM   15  O2  UNL     1      28.822   2.486  54.276  1.00  0.00    -0.260 OA
ENDBRANCH  13  14
ENDBRANCH  11  13
ENDBRANCH   6  10
BRANCH   1  16
HETATM   16  N2  UNL     1      23.025   4.022  49.693  1.00  0.00    -0.388 N 
HETATM   17  H11 UNL     1      22.010   3.754  49.854  1.00  0.00     0.159 HD
BRANCH  16  18
HETATM   18  C4  UNL     1      23.464   4.970  48.654  1.00  0.00     0.150 C 
BRANCH  18  19
HETATM   19  C3  UNL     1      22.855   6.293  48.984  1.00  0.00     0.290 C 
BRANCH  19  20
HETATM   20  N1  UNL     1      22.771   6.613  50.381  1.00  0.00     0.081 N 
HETATM   21  C1  UNL     1      23.946   7.314  50.863  1.00  0.00     0.309 C 
HETATM   22  C2  UNL     1      21.581   7.319  50.753  1.00  0.00     0.309 C 
ENDBRANCH  19  20
ENDBRANCH  18  19
ENDBRANCH  16  18
ENDBRANCH   1  16
TORSDOF 7
ENDMDL
MODEL 8
REMARK VINA RESULT:      -6.1      3.509      4.596
REMARK  7 active torsions:
REMARK  status: ('A' for Active; 'I' for Inactive)
REMARK    1  A    between atoms: N1_2  and  C3_4 
REMARK    2  A    between atoms: C3_4  and  C4_5 
REMARK    3  A    between atoms: C4_5  and  N2_6 
REMARK    4  A    between atoms: N2_6  and  C5_7 
REMARK       I    between atoms: N3_11  and  C9_12 
REMARK    5  A    between atoms: C9_12  and  C10_14 
REMARK    6  A    between atoms: C11_15  and  N4_16 
REMARK    7  A    between atoms: N4_16  and  C12_17 
ROOT
HETATM    1  C5  UNL     1      24.106   3.549  50.686  1.00  0.00     0.029 C 
HETATM    2  C6  UNL     1      25.308   3.384  50.149  1.00  0.00     0.030 C 
HETATM    3  C7  UNL     1      26.416   2.584  50.677  1.00  0.00     0.020 C 
HETATM    4  C8  UNL     1      26.385   1.687  51.653  1.00  0.00     0.099 C 
HETATM    5  N3  UNL     1      25.281   1.262  52.440  1.00  0.00    -0.300 N 
HETATM    6  C9  UNL     1      25.271   0.007  53.106  1.00  0.00     0.260 C 
HETATM    7  O1  UNL     1      24.288  -0.367  53.806  1.00  0.00    -0.267 OA
HETATM    8  C14 UNL     1      24.074   2.023  52.654  1.00  0.00     0.102 C 
HETATM    9  C15 UNL     1      23.561   2.997  51.919  1.00  0.00     0.047 C 
ENDROOT
BRANCH   6  10
HETATM   10  C10 UNL     1      26.416  -0.885  52.986  1.00  0.00     0.041 A 
HETATM   11  C11 UNL     1      27.706  -1.235  53.319  1.00  0.00     0.055 A 
HETATM   12  C13 UNL     1      27.043  -2.117  52.387  1.00  0.00     0.106 A 
BRANCH  11  13
HETATM   13  N4  UNL     1      28.831  -0.824  54.124  1.00  0.00    -0.209 NA
BRANCH  13  14
HETATM   14  C12 UNL     1      28.856   0.344  54.590  1.00  0.00     0.337 C 
HETATM   15  O2  UNL     1      29.111   1.471  55.004  1.00  0.00    -0.260 OA
ENDBRANCH  13  14
ENDBRANCH  11  13
ENDBRANCH   6  10
BRANCH   1  16
HETATM   16  N2  UNL     1      23.388   4.405  49.809  1.00  0.00    -0.388 N 
HETATM   17  H11 UNL     1      24.055   4.769  49.066  1.00  0.00     0.159 HD
BRANCH  16  18
HETATM   18  C4  UNL     1      21.961   4.764  49.870  1.00  0.00     0.150 C 
BRANCH  18  19
HETATM   19  C3  UNL     1      21.192   3.594  49.350  1.00  0.00     0.290 C 
BRANCH  19  20
HETATM   20  N1  UNL     1      21.703   2.992  48.150  1.00  0.00     0.081 N 
HETATM   21  C1  UNL     1      21.789   1.547  48.245  1.00  0.00     0.309 C 
HETATM   22  C2  UNL     1      21.005   3.373  46.958  1.00  0.00     0.309 C 
ENDBRANCH  19  20
ENDBRANCH  18  19
ENDBRANCH  16  18
ENDBRANCH   1  16
TORSDOF 7
ENDMDL
MODEL 9
REMARK VINA RESULT:      -6.1      2.488      3.171
REMARK  7 active torsions:
REMARK  status: ('A' for Active; 'I' for Inactive)
REMARK    1  A    between atoms: N1_2  and  C3_4 
REMARK    2  A    between atoms: C3_4  and  C4_5 
REMARK    3  A    between atoms: C4_5  and  N2_6 
REMARK    4  A    between atoms: N2_6  and  C5_7 
REMARK       I    between atoms: N3_11  and  C9_12 
REMARK    5  A    between atoms: C9_12  and  C10_14 
REMARK    6  A    between atoms: C11_15  and  N4_16 
REMARK    7  A    between atoms: N4_16  and  C12_17 
ROOT
HETATM    1  C5  UNL     1      24.194   3.162  51.525  1.00  0.00     0.029 C 
HETATM    2  C6  UNL     1      25.152   2.996  50.623  1.00  0.00     0.030 C 
HETATM    3  C7  UNL     1      26.549   2.627  50.867  1.00  0.00     0.020 C 
HETATM    4  C8  UNL     1      27.089   2.162  51.986  1.00  0.00     0.099 C 
HETATM    5  N3  UNL     1      26.466   1.896  53.234  1.00  0.00    -0.300 N 
HETATM    6  C9  UNL     1      27.025   0.991  54.176  1.00  0.00     0.260 C 
HETATM    7  O1  UNL     1      26.469   0.758  55.286  1.00  0.00    -0.267 OA
HETATM    8  C14 UNL     1      25.231   2.489  53.687  1.00  0.00     0.102 C 
HETATM    9  C15 UNL     1      24.256   3.031  52.974  1.00  0.00     0.047 C 
ENDROOT
BRANCH   6  10
HETATM   10  C10 UNL     1      28.271   0.304  53.868  1.00  0.00     0.041 A 
HETATM   11  C11 UNL     1      28.963  -0.844  53.550  1.00  0.00     0.055 A 
HETATM   12  C13 UNL     1      29.763   0.352  53.666  1.00  0.00     0.106 A 
BRANCH  11  13
HETATM   13  N4  UNL     1      28.787  -2.255  53.304  1.00  0.00    -0.209 NA
BRANCH  13  14
HETATM   14  C12 UNL     1      27.769  -2.645  52.677  1.00  0.00     0.337 C 
HETATM   15  O2  UNL     1      26.782  -2.812  51.966  1.00  0.00    -0.260 OA
ENDBRANCH  13  14
ENDBRANCH  11  13
ENDBRANCH   6  10
BRANCH   1  16
HETATM   16  N2  UNL     1      23.020   3.512  50.805  1.00  0.00    -0.388 N 
HETATM   17  H11 UNL     1      23.059   4.549  50.575  1.00  0.00     0.159 HD
BRANCH  16  18
HETATM   18  C4  UNL     1      21.907   2.631  50.416  1.00  0.00     0.150 C 
BRANCH  18  19
HETATM   19  C3  UNL     1      20.646   3.292  50.868  1.00  0.00     0.290 C 
BRANCH  19  20
HETATM   20  N1  UNL     1      19.611   2.412  51.333  1.00  0.00     0.081 N 
HETATM   21  C1  UNL     1      18.998   1.657  50.257  1.00  0.00     0.309 C 
HETATM   22  C2  UNL     1      20.015   1.535  52.392  1.00  0.00     0.309 C 
ENDBRANCH  19  20
ENDBRANCH  18  19
ENDBRANCH  16  18
ENDBRANCH   1  16
TORSDOF 7
ENDMDL
