MODEL 1
REMARK VINA RESULT:      -8.0      0.000      0.000
REMARK  3 active torsions:
REMARK  status: ('A' for Active; 'I' for Inactive)
REMARK    1  A    between atoms: C18_21  and  C19_22 
REMARK    2  A    between atoms: C19_22  and  C20_23 
REMARK    3  A    between atoms: C20_23  and  O3_25 
ROOT
HETATM    1  C1  UNL     1      24.203   0.100  53.302  1.00  0.00     0.049 C 
HETATM    2  C2  UNL     1      23.355   1.244  52.769  1.00  0.00    -0.052 C 
HETATM    3  C3  UNL     1      24.217   2.210  53.022  1.00  0.00    -0.068 C 
HETATM    4  C4  UNL     1      24.105   3.731  52.803  1.00  0.00     0.055 C 
HETATM    5  C5  UNL     1      23.515   4.943  52.442  1.00  0.00     0.267 A 
HETATM    6  N1  UNL     1      22.092   5.121  51.905  1.00  0.00    -0.343 N 
HETATM    7  C6  UNL     1      22.675   6.367  51.420  1.00  0.00     0.229 A 
HETATM    8  O1  UNL     1      23.829   6.282  51.823  1.00  0.00    -0.320 OA
HETATM    9  C7  UNL     1      21.355   3.903  52.276  1.00  0.00     0.078 C 
HETATM   10  C8  UNL     1      21.863   3.249  51.245  1.00  0.00     0.108 A 
HETATM   11  C9  UNL     1      21.854   1.946  50.619  1.00  0.00    -0.052 A 
HETATM   12  C10 UNL     1      22.392   3.115  50.337  1.00  0.00     0.158 A 
HETATM   13  S1  UNL     1      23.310   2.862  48.807  1.00  0.00    -0.257 SA
HETATM   14  C11 UNL     1      25.080   2.944  49.336  1.00  0.00     0.104 C 
HETATM   15  C12 UNL     1      26.255   2.949  49.957  1.00  0.00    -0.015 C 
HETATM   16  C13 UNL     1      25.900   2.657  51.367  1.00  0.00     0.021 C 
HETATM   17  C14 UNL     1      26.613   2.532  52.512  1.00  0.00     0.003 C 
HETATM   18  C15 UNL     1      25.572   2.212  53.581  1.00  0.00     0.040 C 
HETATM   19  C16 UNL     1      21.432   0.673  51.116  1.00  0.00    -0.051 C 
HETATM   20  C17 UNL     1      20.431   0.576  50.095  1.00  0.00     0.049 C 
HETATM   21  C18 UNL     1      22.262   0.520  52.131  1.00  0.00    -0.036 C 
ENDROOT
BRANCH  21  22
HETATM   22  C19 UNL     1      21.756  -0.696  52.831  1.00  0.00     0.149 C 
BRANCH  22  23
HETATM   23  C20 UNL     1      20.442  -0.535  53.512  1.00  0.00     0.143 C 
HETATM   24  O2  UNL     1      19.178  -0.585  53.531  1.00  0.00    -0.650 OA
BRANCH  23  25
HETATM   25  O3  UNL     1      20.703  -0.105  54.806  1.00  0.00    -0.776 OA
HETATM   26  H21 UNL     1      20.986  -0.639  55.581  1.00  0.00     0.167 HD
ENDBRANCH  23  25
ENDBRANCH  22  23
ENDBRANCH  21  22
TORSDOF 3
ENDMDL
MODEL 2
REMARK VINA RESULT:      -7.4      2.436      3.624
REMARK  3 active torsions:
REMARK  status: ('A' for Active; 'I' for Inactive)
REMARK    1  A    between atoms: C18_21  and  C19_22 
REMARK    2  A    between atoms: C19_22  and  C20_23 
REMARK    3  A    between atoms: C20_23  and  O3_25 
ROOT
HETATM    1  C1  UNL     1      25.492   2.635  51.765  1.00  0.00     0.049 C 
HETATM    2  C2  UNL     1      23.994   2.539  52.005  1.00  0.00    -0.052 C 
HETATM    3  C3  UNL     1      23.651   3.587  51.280  1.00  0.00    -0.068 C 
HETATM    4  C4  UNL     1      22.267   4.213  51.022  1.00  0.00     0.055 C 
HETATM    5  C5  UNL     1      20.886   4.381  51.130  1.00  0.00     0.267 A 
HETATM    6  N1  UNL     1      19.945   3.533  51.991  1.00  0.00    -0.343 N 
HETATM    7  C6  UNL     1      18.968   4.077  51.056  1.00  0.00     0.229 A 
HETATM    8  O1  UNL     1      19.668   4.774  50.331  1.00  0.00    -0.320 OA
HETATM    9  C7  UNL     1      20.792   2.859  52.987  1.00  0.00     0.078 C 
HETATM   10  C8  UNL     1      21.132   1.930  52.111  1.00  0.00     0.108 A 
HETATM   11  C9  UNL     1      21.954   0.747  51.979  1.00  0.00    -0.052 A 
HETATM   12  C10 UNL     1      21.101   1.384  51.203  1.00  0.00     0.158 A 
HETATM   13  S1  UNL     1      21.081   0.461  49.655  1.00  0.00    -0.257 SA
HETATM   14  C11 UNL     1      21.946   1.579  48.463  1.00  0.00     0.104 C 
HETATM   15  C12 UNL     1      22.667   2.495  47.825  1.00  0.00    -0.015 C 
HETATM   16  C13 UNL     1      23.319   3.247  48.925  1.00  0.00     0.021 C 
HETATM   17  C14 UNL     1      24.164   4.304  48.973  1.00  0.00     0.003 C 
HETATM   18  C15 UNL     1      24.423   4.525  50.461  1.00  0.00     0.040 C 
HETATM   19  C16 UNL     1      23.025   0.259  52.791  1.00  0.00    -0.051 C 
HETATM   20  C17 UNL     1      22.292  -0.938  53.083  1.00  0.00     0.049 C 
HETATM   21  C18 UNL     1      23.891   1.248  52.675  1.00  0.00    -0.036 C 
ENDROOT
BRANCH  21  22
HETATM   22  C19 UNL     1      24.960   0.909  53.658  1.00  0.00     0.149 C 
BRANCH  22  23
HETATM   23  C20 UNL     1      25.627  -0.403  53.443  1.00  0.00     0.143 C 
HETATM   24  O2  UNL     1      26.185  -1.268  52.708  1.00  0.00    -0.650 OA
BRANCH  23  25
HETATM   25  O3  UNL     1      25.682  -1.039  54.676  1.00  0.00    -0.776 OA
HETATM   26  H21 UNL     1      25.040  -1.671  55.066  1.00  0.00     0.167 HD
ENDBRANCH  23  25
ENDBRANCH  22  23
ENDBRANCH  21  22
TORSDOF 3
ENDMDL
MODEL 3
REMARK VINA RESULT:      -7.2      2.711      4.734
REMARK  3 active torsions:
REMARK  status: ('A' for Active; 'I' for Inactive)
REMARK    1  A    between atoms: C18_21  and  C19_22 
REMARK    2  A    between atoms: C19_22  and  C20_23 
REMARK    3  A    between atoms: C20_23  and  O3_25 
ROOT
HETATM    1  C1  UNL     1      22.132  -0.511  52.680  1.00  0.00     0.049 C 
HETATM    2  C2  UNL     1      22.890   0.586  51.950  1.00  0.00    -0.052 C 
HETATM    3  C3  UNL     1      21.991   0.797  51.007  1.00  0.00    -0.068 C 
HETATM    4  C4  UNL     1      22.010   1.764  49.807  1.00  0.00     0.055 C 
HETATM    5  C5  UNL     1      22.515   2.730  48.936  1.00  0.00     0.267 A 
HETATM    6  N1  UNL     1      23.898   3.383  49.027  1.00  0.00    -0.343 N 
HETATM    7  C6  UNL     1      23.225   4.389  48.214  1.00  0.00     0.229 A 
HETATM    8  O1  UNL     1      22.099   3.918  48.106  1.00  0.00    -0.320 OA
HETATM    9  C7  UNL     1      24.717   2.500  49.872  1.00  0.00     0.078 C 
HETATM   10  C8  UNL     1      24.193   3.018  50.969  1.00  0.00     0.108 A 
HETATM   11  C9  UNL     1      24.240   2.897  52.409  1.00  0.00    -0.052 A 
HETATM   12  C10 UNL     1      23.626   3.693  51.558  1.00  0.00     0.158 A 
HETATM   13  S1  UNL     1      22.646   4.814  52.572  1.00  0.00    -0.257 SA
HETATM   14  C11 UNL     1      20.903   4.276  52.268  1.00  0.00     0.104 C 
HETATM   15  C12 UNL     1      19.763   3.661  51.972  1.00  0.00    -0.015 C 
HETATM   16  C13 UNL     1      20.205   2.326  51.499  1.00  0.00     0.021 C 
HETATM   17  C14 UNL     1      19.559   1.229  51.037  1.00  0.00     0.003 C 
HETATM   18  C15 UNL     1      20.669   0.222  50.747  1.00  0.00     0.040 C 
HETATM   19  C16 UNL     1      24.754   1.855  53.243  1.00  0.00    -0.051 C 
HETATM   20  C17 UNL     1      25.705   2.755  53.826  1.00  0.00     0.049 C 
HETATM   21  C18 UNL     1      23.986   0.846  52.875  1.00  0.00    -0.036 C 
ENDROOT
BRANCH  21  22
HETATM   22  C19 UNL     1      24.591  -0.335  53.555  1.00  0.00     0.149 C 
BRANCH  22  23
HETATM   23  C20 UNL     1      25.934  -0.737  53.052  1.00  0.00     0.143 C 
HETATM   24  O2  UNL     1      26.754  -0.976  52.120  1.00  0.00    -0.650 OA
BRANCH  23  25
HETATM   25  O3  UNL     1      26.725  -0.992  54.164  1.00  0.00    -0.776 OA
HETATM   26  H21 UNL     1      27.367  -0.394  54.606  1.00  0.00     0.167 HD
ENDBRANCH  23  25
ENDBRANCH  22  23
ENDBRANCH  21  22
TORSDOF 3
ENDMDL
MODEL 4
REMARK VINA RESULT:      -7.2      2.749      5.157
REMARK  3 active torsions:
REMARK  status: ('A' for Active; 'I' for Inactive)
REMARK    1  A    between atoms: C18_21  and  C19_22 
REMARK    2  A    between atoms: C19_22  and  C20_23 
REMARK    3  A    between atoms: C20_23  and  O3_25 
ROOT
HETATM    1  C1  UNL     1      23.959   0.689  52.598  1.00  0.00     0.049 C 
HETATM    2  C2  UNL     1      23.665   1.376  51.274  1.00  0.00    -0.052 C 
HETATM    3  C3  UNL     1      22.410   0.980  51.167  1.00  0.00    -0.068 C 
HETATM    4  C4  UNL     1      21.376   1.230  50.053  1.00  0.00     0.055 C 
HETATM    5  C5  UNL     1      20.875   1.702  48.839  1.00  0.00     0.267 A 
HETATM    6  N1  UNL     1      21.665   2.489  47.790  1.00  0.00    -0.343 N 
HETATM    7  C6  UNL     1      20.315   2.872  47.391  1.00  0.00     0.229 A 
HETATM    8  O1  UNL     1      19.628   2.266  48.205  1.00  0.00    -0.320 OA
HETATM    9  C7  UNL     1      23.088   2.247  48.076  1.00  0.00     0.078 C 
HETATM   10  C8  UNL     1      23.080   3.163  49.030  1.00  0.00     0.108 A 
HETATM   11  C9  UNL     1      23.940   3.769  50.021  1.00  0.00    -0.052 A 
HETATM   12  C10 UNL     1      22.701   3.959  49.617  1.00  0.00     0.158 A 
HETATM   13  S1  UNL     1      22.063   5.295  50.644  1.00  0.00    -0.257 SA
HETATM   14  C11 UNL     1      20.847   4.456  51.756  1.00  0.00     0.104 C 
HETATM   15  C12 UNL     1      20.107   3.633  52.491  1.00  0.00    -0.015 C 
HETATM   16  C13 UNL     1      20.731   2.307  52.257  1.00  0.00     0.021 C 
HETATM   17  C14 UNL     1      20.465   1.051  52.689  1.00  0.00     0.003 C 
HETATM   18  C15 UNL     1      21.541   0.185  52.039  1.00  0.00     0.040 C 
HETATM   19  C16 UNL     1      25.200   3.345  50.550  1.00  0.00    -0.051 C 
HETATM   20  C17 UNL     1      25.836   4.529  50.055  1.00  0.00     0.049 C 
HETATM   21  C18 UNL     1      24.858   2.195  51.102  1.00  0.00    -0.036 C 
ENDROOT
BRANCH  21  22
HETATM   22  C19 UNL     1      26.159   1.587  51.504  1.00  0.00     0.149 C 
BRANCH  22  23
HETATM   23  C20 UNL     1      26.777   2.163  52.730  1.00  0.00     0.143 C 
HETATM   24  O2  UNL     1      26.784   2.406  53.970  1.00  0.00    -0.650 OA
BRANCH  23  25
HETATM   25  O3  UNL     1      27.976   2.748  52.345  1.00  0.00    -0.776 OA
HETATM   26  H21 UNL     1      28.622   3.237  52.901  1.00  0.00     0.167 HD
ENDBRANCH  23  25
ENDBRANCH  22  23
ENDBRANCH  21  22
TORSDOF 3
ENDMDL
MODEL 5
REMARK VINA RESULT:      -7.2      3.427      5.565
REMARK  3 active torsions:
REMARK  status: ('A' for Active; 'I' for Inactive)
REMARK    1  A    between atoms: C18_21  and  C19_22 
REMARK    2  A    between atoms: C19_22  and  C20_23 
REMARK    3  A    between atoms: C20_23  and  O3_25 
ROOT
HETATM    1  C1  UNL     1      26.918   5.504  48.596  1.00  0.00     0.049 C 
HETATM    2  C2  UNL     1      25.504   5.586  49.150  1.00  0.00    -0.052 C 
HETATM    3  C3  UNL     1      25.347   6.887  48.988  1.00  0.00    -0.068 C 
HETATM    4  C4  UNL     1      24.159   7.801  49.344  1.00  0.00     0.055 C 
HETATM    5  C5  UNL     1      22.908   8.152  49.851  1.00  0.00     0.267 A 
HETATM    6  N1  UNL     1      21.918   7.202  50.532  1.00  0.00    -0.343 N 
HETATM    7  C6  UNL     1      20.990   8.261  50.151  1.00  0.00     0.229 A 
HETATM    8  O1  UNL     1      21.732   9.061  49.594  1.00  0.00    -0.320 OA
HETATM    9  C7  UNL     1      22.697   6.026  50.951  1.00  0.00     0.078 C 
HETATM   10  C8  UNL     1      22.636   5.517  49.732  1.00  0.00     0.108 A 
HETATM   11  C9  UNL     1      23.080   4.378  48.960  1.00  0.00    -0.052 A 
HETATM   12  C10 UNL     1      22.320   5.428  48.724  1.00  0.00     0.158 A 
HETATM   13  S1  UNL     1      21.816   5.277  47.001  1.00  0.00    -0.257 SA
HETATM   14  C11 UNL     1      22.754   6.621  46.146  1.00  0.00     0.104 C 
HETATM   15  C12 UNL     1      23.587   7.575  45.744  1.00  0.00    -0.015 C 
HETATM   16  C13 UNL     1      24.578   7.653  46.846  1.00  0.00     0.021 C 
HETATM   17  C14 UNL     1      25.672   8.417  47.076  1.00  0.00     0.003 C 
HETATM   18  C15 UNL     1      26.207   7.928  48.420  1.00  0.00     0.040 C 
HETATM   19  C16 UNL     1      24.093   3.405  49.229  1.00  0.00    -0.051 C 
HETATM   20  C17 UNL     1      23.121   2.352  49.218  1.00  0.00     0.049 C 
HETATM   21  C18 UNL     1      25.164   4.175  49.283  1.00  0.00    -0.036 C 
ENDROOT
BRANCH  21  22
HETATM   22  C19 UNL     1      26.241   3.262  49.761  1.00  0.00     0.149 C 
BRANCH  22  23
HETATM   23  C20 UNL     1      26.151   2.869  51.195  1.00  0.00     0.143 C 
HETATM   24  O2  UNL     1      25.501   2.508  52.217  1.00  0.00    -0.650 OA
BRANCH  23  25
HETATM   25  O3  UNL     1      27.439   2.914  51.710  1.00  0.00    -0.776 OA
HETATM   26  H21 UNL     1      28.163   2.259  51.601  1.00  0.00     0.167 HD
ENDBRANCH  23  25
ENDBRANCH  22  23
ENDBRANCH  21  22
TORSDOF 3
ENDMDL
MODEL 6
REMARK VINA RESULT:      -7.1      6.690      9.009
REMARK  3 active torsions:
REMARK  status: ('A' for Active; 'I' for Inactive)
REMARK    1  A    between atoms: C18_21  and  C19_22 
REMARK    2  A    between atoms: C19_22  and  C20_23 
REMARK    3  A    between atoms: C20_23  and  O3_25 
ROOT
HETATM    1  C1  UNL     1      28.680   5.206  48.283  1.00  0.00     0.049 C 
HETATM    2  C2  UNL     1      28.454   6.706  48.385  1.00  0.00    -0.052 C 
HETATM    3  C3  UNL     1      29.725   7.051  48.468  1.00  0.00    -0.068 C 
HETATM    4  C4  UNL     1      30.374   8.438  48.635  1.00  0.00     0.055 C 
HETATM    5  C5  UNL     1      30.437   9.823  48.801  1.00  0.00     0.267 A 
HETATM    6  N1  UNL     1      29.236  10.765  48.926  1.00  0.00    -0.343 N 
HETATM    7  C6  UNL     1      30.245  11.736  48.520  1.00  0.00     0.229 A 
HETATM    8  O1  UNL     1      31.242  11.034  48.402  1.00  0.00    -0.320 OA
HETATM    9  C7  UNL     1      28.088   9.923  49.297  1.00  0.00     0.078 C 
HETATM   10  C8  UNL     1      27.911   9.562  48.037  1.00  0.00     0.108 A 
HETATM   11  C9  UNL     1      27.071   8.725  47.209  1.00  0.00    -0.052 A 
HETATM   12  C10 UNL     1      28.053   9.575  46.987  1.00  0.00     0.158 A 
HETATM   13  S1  UNL     1      28.301   9.564  45.202  1.00  0.00    -0.257 SA
HETATM   14  C11 UNL     1      29.919   8.696  44.986  1.00  0.00     0.104 C 
HETATM   15  C12 UNL     1      31.033   7.977  45.073  1.00  0.00    -0.015 C 
HETATM   16  C13 UNL     1      30.932   7.348  46.413  1.00  0.00     0.021 C 
HETATM   17  C14 UNL     1      31.729   6.516  47.125  1.00  0.00     0.003 C 
HETATM   18  C15 UNL     1      30.970   6.279  48.429  1.00  0.00     0.040 C 
HETATM   19  C16 UNL     1      26.183   7.659  47.556  1.00  0.00    -0.051 C 
HETATM   20  C17 UNL     1      25.066   8.382  47.022  1.00  0.00     0.049 C 
HETATM   21  C18 UNL     1      27.028   6.803  48.099  1.00  0.00    -0.036 C 
ENDROOT
BRANCH  21  22
HETATM   22  C19 UNL     1      26.150   5.743  48.672  1.00  0.00     0.149 C 
BRANCH  22  23
HETATM   23  C20 UNL     1      25.536   6.071  49.988  1.00  0.00     0.143 C 
HETATM   24  O2  UNL     1      24.963   6.864  50.789  1.00  0.00    -0.650 OA
BRANCH  23  25
HETATM   25  O3  UNL     1      25.619   4.928  50.772  1.00  0.00    -0.776 OA
HETATM   26  H21 UNL     1      25.004   4.624  51.475  1.00  0.00     0.167 HD
ENDBRANCH  23  25
ENDBRANCH  22  23
ENDBRANCH  21  22
TORSDOF 3
ENDMDL
MODEL 7
REMARK VINA RESULT:      -6.8     10.386     13.412
REMARK  3 active torsions:
REMARK  status: ('A' for Active; 'I' for Inactive)
REMARK    1  A    between atoms: C18_21  and  C19_22 
REMARK    2  A    between atoms: C19_22  and  C20_23 
REMARK    3  A    between atoms: C20_23  and  O3_25 
ROOT
HETATM    1  C1  UNL     1      34.780   4.158  44.499  1.00  0.00     0.049 C 
HETATM    2  C2  UNL     1      33.868   5.253  45.027  1.00  0.00    -0.052 C 
HETATM    3  C3  UNL     1      33.473   4.619  46.115  1.00  0.00    -0.068 C 
HETATM    4  C4  UNL     1      32.483   5.044  47.215  1.00  0.00     0.055 C 
HETATM    5  C5  UNL     1      31.554   5.851  47.874  1.00  0.00     0.267 A 
HETATM    6  N1  UNL     1      31.039   7.208  47.384  1.00  0.00    -0.343 N 
HETATM    7  C6  UNL     1      30.714   7.340  48.800  1.00  0.00     0.229 A 
HETATM    8  O1  UNL     1      31.108   6.272  49.252  1.00  0.00    -0.320 OA
HETATM    9  C7  UNL     1      31.332   7.265  45.943  1.00  0.00     0.078 C 
HETATM   10  C8  UNL     1      32.584   7.616  46.184  1.00  0.00     0.108 A 
HETATM   11  C9  UNL     1      33.821   7.926  45.504  1.00  0.00    -0.052 A 
HETATM   12  C10 UNL     1      33.419   7.927  46.758  1.00  0.00     0.158 A 
HETATM   13  S1  UNL     1      34.857   8.429  47.721  1.00  0.00    -0.257 SA
HETATM   14  C11 UNL     1      35.361   6.884  48.601  1.00  0.00     0.104 C 
HETATM   15  C12 UNL     1      35.585   5.651  49.043  1.00  0.00    -0.015 C 
HETATM   16  C13 UNL     1      34.859   4.799  48.069  1.00  0.00     0.021 C 
HETATM   17  C14 UNL     1      34.669   3.464  47.942  1.00  0.00     0.003 C 
HETATM   18  C15 UNL     1      33.818   3.313  46.684  1.00  0.00     0.040 C 
HETATM   19  C16 UNL     1      34.235   7.675  44.158  1.00  0.00    -0.051 C 
HETATM   20  C17 UNL     1      34.374   9.080  43.911  1.00  0.00     0.049 C 
HETATM   21  C18 UNL     1      34.192   6.356  44.130  1.00  0.00    -0.036 C 
ENDROOT
BRANCH  21  22
HETATM   22  C19 UNL     1      34.416   6.017  42.696  1.00  0.00     0.149 C 
BRANCH  22  23
HETATM   23  C20 UNL     1      33.213   6.115  41.825  1.00  0.00     0.143 C 
HETATM   24  O2  UNL     1      32.352   6.776  41.176  1.00  0.00    -0.650 OA
BRANCH  23  25
HETATM   25  O3  UNL     1      32.786   4.818  41.573  1.00  0.00    -0.776 OA
HETATM   26  H21 UNL     1      31.901   4.514  41.275  1.00  0.00     0.167 HD
ENDBRANCH  23  25
ENDBRANCH  22  23
ENDBRANCH  21  22
TORSDOF 3
ENDMDL
MODEL 8
REMARK VINA RESULT:      -6.7      8.601     11.021
REMARK  3 active torsions:
REMARK  status: ('A' for Active; 'I' for Inactive)
REMARK    1  A    between atoms: C18_21  and  C19_22 
REMARK    2  A    between atoms: C19_22  and  C20_23 
REMARK    3  A    between atoms: C20_23  and  O3_25 
ROOT
HETATM    1  C1  UNL     1      29.418   5.365  48.218  1.00  0.00     0.049 C 
HETATM    2  C2  UNL     1      30.068   6.673  47.796  1.00  0.00    -0.052 C 
HETATM    3  C3  UNL     1      31.300   6.358  48.150  1.00  0.00    -0.068 C 
HETATM    4  C4  UNL     1      32.599   7.183  48.083  1.00  0.00     0.055 C 
HETATM    5  C5  UNL     1      33.415   8.289  47.841  1.00  0.00     0.267 A 
HETATM    6  N1  UNL     1      32.947   9.649  47.314  1.00  0.00    -0.343 N 
HETATM    7  C6  UNL     1      34.359   9.742  46.960  1.00  0.00     0.229 A 
HETATM    8  O1  UNL     1      34.794   8.668  47.360  1.00  0.00    -0.320 OA
HETATM    9  C7  UNL     1      31.497   9.709  47.556  1.00  0.00     0.078 C 
HETATM   10  C8  UNL     1      31.259   8.995  46.469  1.00  0.00     0.108 A 
HETATM   11  C9  UNL     1      30.170   8.414  45.715  1.00  0.00    -0.052 A 
HETATM   12  C10 UNL     1      31.475   8.503  45.555  1.00  0.00     0.158 A 
HETATM   13  S1  UNL     1      31.827   7.637  44.015  1.00  0.00    -0.257 SA
HETATM   14  C11 UNL     1      32.688   6.095  44.562  1.00  0.00     0.104 C 
HETATM   15  C12 UNL     1      33.192   5.037  45.189  1.00  0.00    -0.015 C 
HETATM   16  C13 UNL     1      32.638   5.154  46.561  1.00  0.00     0.021 C 
HETATM   17  C14 UNL     1      32.762   4.421  47.693  1.00  0.00     0.003 C 
HETATM   18  C15 UNL     1      31.891   5.144  48.717  1.00  0.00     0.040 C 
HETATM   19  C16 UNL     1      28.809   8.166  46.080  1.00  0.00    -0.051 C 
HETATM   20  C17 UNL     1      28.345   9.043  45.047  1.00  0.00     0.049 C 
HETATM   21  C18 UNL     1      28.975   7.320  47.081  1.00  0.00    -0.036 C 
ENDROOT
BRANCH  21  22
HETATM   22  C19 UNL     1      27.607   7.165  47.652  1.00  0.00     0.149 C 
BRANCH  22  23
HETATM   23  C20 UNL     1      27.199   8.221  48.618  1.00  0.00     0.143 C 
HETATM   24  O2  UNL     1      26.864   9.406  48.905  1.00  0.00    -0.650 OA
BRANCH  23  25
HETATM   25  O3  UNL     1      27.151   7.629  49.873  1.00  0.00    -0.776 OA
HETATM   26  H21 UNL     1      26.396   7.172  50.305  1.00  0.00     0.167 HD
ENDBRANCH  23  25
ENDBRANCH  22  23
ENDBRANCH  21  22
TORSDOF 3
ENDMDL
MODEL 9
REMARK VINA RESULT:      -6.6      1.722      2.266
REMARK  3 active torsions:
REMARK  status: ('A' for Active; 'I' for Inactive)
REMARK    1  A    between atoms: C18_21  and  C19_22 
REMARK    2  A    between atoms: C19_22  and  C20_23 
REMARK    3  A    between atoms: C20_23  and  O3_25 
ROOT
HETATM    1  C1  UNL     1      24.135   0.914  52.110  1.00  0.00     0.049 C 
HETATM    2  C2  UNL     1      22.856   1.718  51.936  1.00  0.00    -0.052 C 
HETATM    3  C3  UNL     1      23.421   2.811  51.460  1.00  0.00    -0.068 C 
HETATM    4  C4  UNL     1      22.799   4.158  51.047  1.00  0.00     0.055 C 
HETATM    5  C5  UNL     1      21.799   5.112  50.851  1.00  0.00     0.267 A 
HETATM    6  N1  UNL     1      20.316   4.937  51.190  1.00  0.00    -0.343 N 
HETATM    7  C6  UNL     1      20.202   6.025  50.225  1.00  0.00     0.229 A 
HETATM    8  O1  UNL     1      21.371   6.213  49.913  1.00  0.00    -0.320 OA
HETATM    9  C7  UNL     1      20.239   3.820  52.144  1.00  0.00     0.078 C 
HETATM   10  C8  UNL     1      20.311   2.940  51.161  1.00  0.00     0.108 A 
HETATM   11  C9  UNL     1      20.346   1.514  50.921  1.00  0.00    -0.052 A 
HETATM   12  C10 UNL     1      20.319   2.589  50.161  1.00  0.00     0.158 A 
HETATM   13  S1  UNL     1      20.363   1.977  48.466  1.00  0.00    -0.257 SA
HETATM   14  C11 UNL     1      22.054   2.436  47.874  1.00  0.00     0.104 C 
HETATM   15  C12 UNL     1      23.326   2.781  47.707  1.00  0.00    -0.015 C 
HETATM   16  C13 UNL     1      23.833   2.910  49.096  1.00  0.00     0.021 C 
HETATM   17  C14 UNL     1      25.029   3.243  49.635  1.00  0.00     0.003 C 
HETATM   18  C15 UNL     1      24.810   3.155  51.143  1.00  0.00     0.040 C 
HETATM   19  C16 UNL     1      20.606   0.424  51.810  1.00  0.00    -0.051 C 
HETATM   20  C17 UNL     1      19.298  -0.113  51.576  1.00  0.00     0.049 C 
HETATM   21  C18 UNL     1      21.841   0.702  52.185  1.00  0.00    -0.036 C 
ENDROOT
BRANCH  21  22
HETATM   22  C19 UNL     1      22.118  -0.280  53.272  1.00  0.00     0.149 C 
BRANCH  22  23
HETATM   23  C20 UNL     1      21.280  -0.129  54.493  1.00  0.00     0.143 C 
HETATM   24  O2  UNL     1      20.635   0.567  55.328  1.00  0.00    -0.650 OA
BRANCH  23  25
HETATM   25  O3  UNL     1      21.086  -1.402  55.013  1.00  0.00    -0.776 OA
HETATM   26  H21 UNL     1      21.386  -1.760  55.877  1.00  0.00     0.167 HD
ENDBRANCH  23  25
ENDBRANCH  22  23
ENDBRANCH  21  22
TORSDOF 3
ENDMDL
