MODEL 1
REMARK VINA RESULT:      -8.5      0.000      0.000
REMARK  3 active torsions:
REMARK  status: ('A' for Active; 'I' for Inactive)
REMARK       I    between atoms: C2_2  and  N1_4 
REMARK    1  A    between atoms: N1_4  and  C3_5 
REMARK    2  A    between atoms: N2_11  and  N3_12 
REMARK    3  A    between atoms: N3_12  and  C9_13 
ROOT
HETATM    1  C3  UNL     1      27.178   1.885  53.074  1.00  0.00     0.073 A 
HETATM    2  C4  UNL     1      28.433   2.392  53.473  1.00  0.00     0.028 A 
HETATM    3  C5  UNL     1      29.073   1.104  53.632  1.00  0.00     0.011 A 
HETATM    4  C6  UNL     1      28.999  -0.411  53.557  1.00  0.00     0.171 A 
HETATM    5  C7  UNL     1      27.924  -0.516  53.213  1.00  0.00     0.395 A 
HETATM    6  C8  UNL     1      26.956   0.424  52.956  1.00  0.00     0.299 A 
HETATM    7  N2  UNL     1      25.756  -0.292  52.675  1.00  0.00    -0.249 N 
HETATM    8  C15 UNL     1      26.674  -1.387  52.907  1.00  0.00     0.351 A 
HETATM    9  N4  UNL     1      27.555  -0.427  53.079  1.00  0.00     0.017 N 
ENDROOT
BRANCH   7  10
HETATM   10  N3  UNL     1      24.603   0.393  52.402  1.00  0.00    -0.298 N 
HETATM   11  H8  UNL     1      24.558   1.161  51.662  1.00  0.00     0.187 HD
BRANCH  10  12
HETATM   12  C9  UNL     1      23.437  -0.067  53.142  1.00  0.00     0.049 A 
HETATM   13  C10 UNL     1      23.630  -0.717  54.335  1.00  0.00     0.031 A 
HETATM   14  C11 UNL     1      22.491  -1.173  54.975  1.00  0.00     0.004 A 
HETATM   15  C12 UNL     1      21.201  -0.997  54.468  1.00  0.00     0.019 A 
HETATM   16  C13 UNL     1      21.126  -0.306  53.233  1.00  0.00     0.013 A 
HETATM   17 BR1  UNL     1      19.450   0.020  52.355  1.00  0.00    -0.051 Br
HETATM   18  C14 UNL     1      22.217   0.200  52.499  1.00  0.00     0.050 A 
ENDBRANCH  10  12
ENDBRANCH   7  10
BRANCH   1  19
HETATM   19  N1  UNL     1      26.039   2.632  52.736  1.00  0.00    -0.327 N 
HETATM   20  C2  UNL     1      26.021   3.099  51.333  1.00  0.00     0.218 C 
HETATM   21  C1  UNL     1      25.062   3.861  50.553  1.00  0.00     0.117 C 
HETATM   22  O1  UNL     1      27.176   2.558  51.119  1.00  0.00    -0.274 OA
HETATM   23  H4  UNL     1      25.186   2.944  53.264  1.00  0.00     0.168 HD
ENDBRANCH   1  19
TORSDOF 3
ENDMDL
MODEL 2
REMARK VINA RESULT:      -8.3      2.144      4.630
REMARK  3 active torsions:
REMARK  status: ('A' for Active; 'I' for Inactive)
REMARK       I    between atoms: C2_2  and  N1_4 
REMARK    1  A    between atoms: N1_4  and  C3_5 
REMARK    2  A    between atoms: N2_11  and  N3_12 
REMARK    3  A    between atoms: N3_12  and  C9_13 
ROOT
HETATM    1  C3  UNL     1      26.982  -0.457  52.966  1.00  0.00     0.073 A 
HETATM    2  C4  UNL     1      27.692  -1.675  52.951  1.00  0.00     0.028 A 
HETATM    3  C5  UNL     1      28.977  -1.107  53.298  1.00  0.00     0.011 A 
HETATM    4  C6  UNL     1      29.817   0.109  53.647  1.00  0.00     0.171 A 
HETATM    5  C7  UNL     1      29.008   0.901  53.596  1.00  0.00     0.395 A 
HETATM    6  C8  UNL     1      27.671   0.815  53.291  1.00  0.00     0.299 A 
HETATM    7  N2  UNL     1      27.173   2.151  53.260  1.00  0.00    -0.249 N 
HETATM    8  C15 UNL     1      28.559   2.388  53.602  1.00  0.00     0.351 A 
HETATM    9  N4  UNL     1      28.647   1.078  53.567  1.00  0.00     0.017 N 
ENDROOT
BRANCH   7  10
HETATM   10  N3  UNL     1      25.859   2.380  52.955  1.00  0.00    -0.298 N 
HETATM   11  H8  UNL     1      25.069   2.169  53.642  1.00  0.00     0.187 HD
BRANCH  10  12
HETATM   12  C9  UNL     1      25.640   3.006  51.659  1.00  0.00     0.049 A 
HETATM   13  C10 UNL     1      26.640   2.945  50.722  1.00  0.00     0.031 A 
HETATM   14  C11 UNL     1      26.398   3.594  49.525  1.00  0.00     0.004 A 
HETATM   15  C12 UNL     1      25.212   4.281  49.248  1.00  0.00     0.019 A 
HETATM   16  C13 UNL     1      24.250   4.270  50.288  1.00  0.00     0.013 A 
HETATM   17 BR1  UNL     1      22.565   5.173  50.119  1.00  0.00    -0.051 Br
HETATM   18  C14 UNL     1      24.393   3.642  51.541  1.00  0.00     0.050 A 
ENDBRANCH  10  12
ENDBRANCH   7  10
BRANCH   1  19
HETATM   19  N1  UNL     1      25.613  -0.279  52.712  1.00  0.00    -0.327 N 
HETATM   20  C2  UNL     1      24.739  -0.638  53.850  1.00  0.00     0.218 C 
HETATM   21  C1  UNL     1      23.302  -0.595  54.049  1.00  0.00     0.117 C 
HETATM   22  O1  UNL     1      25.767  -0.988  54.552  1.00  0.00    -0.274 OA
HETATM   23  H4  UNL     1      25.061   0.052  51.882  1.00  0.00     0.168 HD
ENDBRANCH   1  19
TORSDOF 3
ENDMDL
MODEL 3
REMARK VINA RESULT:      -7.7      2.791      6.029
REMARK  3 active torsions:
REMARK  status: ('A' for Active; 'I' for Inactive)
REMARK       I    between atoms: C2_2  and  N1_4 
REMARK    1  A    between atoms: N1_4  and  C3_5 
REMARK    2  A    between atoms: N2_11  and  N3_12 
REMARK    3  A    between atoms: N3_12  and  C9_13 
ROOT
HETATM    1  C3  UNL     1      25.495   0.639  52.779  1.00  0.00     0.073 A 
HETATM    2  C4  UNL     1      25.039  -0.269  53.756  1.00  0.00     0.028 A 
HETATM    3  C5  UNL     1      23.632  -0.132  53.446  1.00  0.00     0.011 A 
HETATM    4  C6  UNL     1      22.534   0.493  52.602  1.00  0.00     0.171 A 
HETATM    5  C7  UNL     1      23.178   1.137  51.927  1.00  0.00     0.395 A 
HETATM    6  C8  UNL     1      24.538   1.328  51.880  1.00  0.00     0.299 A 
HETATM    7  N2  UNL     1      24.773   2.345  50.910  1.00  0.00    -0.249 N 
HETATM    8  C15 UNL     1      23.331   2.239  50.843  1.00  0.00     0.351 A 
HETATM    9  N4  UNL     1      23.498   1.299  51.746  1.00  0.00     0.017 N 
ENDROOT
BRANCH   7  10
HETATM   10  N3  UNL     1      26.052   2.766  50.662  1.00  0.00    -0.298 N 
HETATM   11  H8  UNL     1      26.903   2.154  50.864  1.00  0.00     0.187 HD
BRANCH  10  12
HETATM   12  C9  UNL     1      26.145   4.074  50.031  1.00  0.00     0.049 A 
HETATM   13  C10 UNL     1      27.120   4.281  49.087  1.00  0.00     0.031 A 
HETATM   14  C11 UNL     1      27.193   5.555  48.552  1.00  0.00     0.004 A 
HETATM   15  C12 UNL     1      26.337   6.596  48.922  1.00  0.00     0.019 A 
HETATM   16  C13 UNL     1      25.367   6.262  49.900  1.00  0.00     0.013 A 
HETATM   17 BR1  UNL     1      24.111   7.553  50.563  1.00  0.00    -0.051 Br
HETATM   18  C14 UNL     1      25.205   5.001  50.509  1.00  0.00     0.050 A 
ENDBRANCH  10  12
ENDBRANCH   7  10
BRANCH   1  19
HETATM   19  N1  UNL     1      26.829   0.990  52.514  1.00  0.00    -0.327 N 
HETATM   20  C2  UNL     1      27.421   1.902  53.516  1.00  0.00     0.218 C 
HETATM   21  C1  UNL     1      28.738   2.494  53.663  1.00  0.00     0.117 C 
HETATM   22  O1  UNL     1      26.306   1.937  54.170  1.00  0.00    -0.274 OA
HETATM   23  H4  UNL     1      27.509   0.751  51.750  1.00  0.00     0.168 HD
ENDBRANCH   1  19
TORSDOF 3
ENDMDL
MODEL 4
REMARK VINA RESULT:      -7.7      3.304      5.672
REMARK  3 active torsions:
REMARK  status: ('A' for Active; 'I' for Inactive)
REMARK       I    between atoms: C2_2  and  N1_4 
REMARK    1  A    between atoms: N1_4  and  C3_5 
REMARK    2  A    between atoms: N2_11  and  N3_12 
REMARK    3  A    between atoms: N3_12  and  C9_13 
ROOT
HETATM    1  C3  UNL     1      24.612   3.536  49.803  1.00  0.00     0.073 A 
HETATM    2  C4  UNL     1      23.484   3.811  49.003  1.00  0.00     0.028 A 
HETATM    3  C5  UNL     1      22.521   3.786  50.083  1.00  0.00     0.011 A 
HETATM    4  C6  UNL     1      22.221   3.619  51.562  1.00  0.00     0.171 A 
HETATM    5  C7  UNL     1      23.274   3.430  51.934  1.00  0.00     0.395 A 
HETATM    6  C8  UNL     1      24.472   3.349  51.267  1.00  0.00     0.299 A 
HETATM    7  N2  UNL     1      25.451   2.966  52.231  1.00  0.00    -0.249 N 
HETATM    8  C15 UNL     1      24.266   3.028  53.060  1.00  0.00     0.351 A 
HETATM    9  N4  UNL     1      23.675   3.395  51.946  1.00  0.00     0.017 N 
ENDROOT
BRANCH   7  10
HETATM   10  N3  UNL     1      26.751   2.784  51.844  1.00  0.00    -0.298 N 
HETATM   11  H8  UNL     1      27.209   3.378  51.085  1.00  0.00     0.187 HD
BRANCH  10  12
HETATM   12  C9  UNL     1      27.472   1.775  52.608  1.00  0.00     0.049 A 
HETATM   13  C10 UNL     1      28.451   2.183  53.478  1.00  0.00     0.031 A 
HETATM   14  C11 UNL     1      29.134   1.182  54.145  1.00  0.00     0.004 A 
HETATM   15  C12 UNL     1      28.868  -0.179  53.971  1.00  0.00     0.019 A 
HETATM   16  C13 UNL     1      27.831  -0.479  53.052  1.00  0.00     0.013 A 
HETATM   17 BR1  UNL     1      27.325  -2.287  52.652  1.00  0.00    -0.051 Br
HETATM   18  C14 UNL     1      27.074   0.459  52.323  1.00  0.00     0.050 A 
ENDBRANCH  10  12
ENDBRANCH   7  10
BRANCH   1  19
HETATM   19  N1  UNL     1      25.942   3.425  49.370  1.00  0.00    -0.327 N 
HETATM   20  C2  UNL     1      26.580   4.720  49.048  1.00  0.00     0.218 C 
HETATM   21  C1  UNL     1      27.911   5.085  48.599  1.00  0.00     0.117 C 
HETATM   22  O1  UNL     1      25.486   5.349  49.328  1.00  0.00    -0.274 OA
HETATM   23  H4  UNL     1      26.596   2.616  49.215  1.00  0.00     0.168 HD
ENDBRANCH   1  19
TORSDOF 3
ENDMDL
MODEL 5
REMARK VINA RESULT:      -7.7      2.776      5.733
REMARK  3 active torsions:
REMARK  status: ('A' for Active; 'I' for Inactive)
REMARK       I    between atoms: C2_2  and  N1_4 
REMARK    1  A    between atoms: N1_4  and  C3_5 
REMARK    2  A    between atoms: N2_11  and  N3_12 
REMARK    3  A    between atoms: N3_12  and  C9_13 
ROOT
HETATM    1  C3  UNL     1      22.250   0.843  52.177  1.00  0.00     0.073 A 
HETATM    2  C4  UNL     1      20.843   0.919  52.224  1.00  0.00     0.028 A 
HETATM    3  C5  UNL     1      20.689   0.134  53.430  1.00  0.00     0.011 A 
HETATM    4  C6  UNL     1      21.318  -0.654  54.566  1.00  0.00     0.171 A 
HETATM    5  C7  UNL     1      22.408  -0.534  54.279  1.00  0.00     0.395 A 
HETATM    6  C8  UNL     1      23.004   0.106  53.220  1.00  0.00     0.299 A 
HETATM    7  N2  UNL     1      24.398  -0.178  53.303  1.00  0.00    -0.249 N 
HETATM    8  C15 UNL     1      23.909  -0.888  54.466  1.00  0.00     0.351 A 
HETATM    9  N4  UNL     1      22.743  -0.410  54.094  1.00  0.00     0.017 N 
ENDROOT
BRANCH   7  10
HETATM   10  N3  UNL     1      25.251   0.316  52.353  1.00  0.00    -0.298 N 
HETATM   11  H8  UNL     1      24.953   0.459  51.338  1.00  0.00     0.187 HD
BRANCH  10  12
HETATM   12  C9  UNL     1      26.560   0.701  52.859  1.00  0.00     0.049 A 
HETATM   13  C10 UNL     1      26.812   2.031  53.088  1.00  0.00     0.031 A 
HETATM   14  C11 UNL     1      28.086   2.346  53.526  1.00  0.00     0.004 A 
HETATM   15  C12 UNL     1      29.085   1.392  53.739  1.00  0.00     0.019 A 
HETATM   16  C13 UNL     1      28.706   0.052  53.477  1.00  0.00     0.013 A 
HETATM   17 BR1  UNL     1      29.936  -1.407  53.685  1.00  0.00    -0.051 Br
HETATM   18  C14 UNL     1      27.441  -0.379  53.030  1.00  0.00     0.050 A 
ENDBRANCH  10  12
ENDBRANCH   7  10
BRANCH   1  19
HETATM   19  N1  UNL     1      23.092   1.426  51.216  1.00  0.00    -0.327 N 
HETATM   20  C2  UNL     1      23.343   2.867  51.432  1.00  0.00     0.218 C 
HETATM   21  C1  UNL     1      24.145   3.850  50.727  1.00  0.00     0.117 C 
HETATM   22  O1  UNL     1      22.573   2.864  52.470  1.00  0.00    -0.274 OA
HETATM   23  H4  UNL     1      23.586   1.065  50.361  1.00  0.00     0.168 HD
ENDBRANCH   1  19
TORSDOF 3
ENDMDL
MODEL 6
REMARK VINA RESULT:      -7.5      2.363      5.512
REMARK  3 active torsions:
REMARK  status: ('A' for Active; 'I' for Inactive)
REMARK       I    between atoms: C2_2  and  N1_4 
REMARK    1  A    between atoms: N1_4  and  C3_5 
REMARK    2  A    between atoms: N2_11  and  N3_12 
REMARK    3  A    between atoms: N3_12  and  C9_13 
ROOT
HETATM    1  C3  UNL     1      25.000  -0.213  54.405  1.00  0.00     0.073 A 
HETATM    2  C4  UNL     1      24.554  -1.110  55.397  1.00  0.00     0.028 A 
HETATM    3  C5  UNL     1      23.211  -1.255  54.879  1.00  0.00     0.011 A 
HETATM    4  C6  UNL     1      22.170  -0.907  53.830  1.00  0.00     0.171 A 
HETATM    5  C7  UNL     1      22.794  -0.211  53.189  1.00  0.00     0.395 A 
HETATM    6  C8  UNL     1      24.093   0.218  53.314  1.00  0.00     0.299 A 
HETATM    7  N2  UNL     1      24.304   1.183  52.286  1.00  0.00    -0.249 N 
HETATM    8  C15 UNL     1      22.929   0.812  52.028  1.00  0.00     0.351 A 
HETATM    9  N4  UNL     1      23.107  -0.009  53.038  1.00  0.00     0.017 N 
ENDROOT
BRANCH   7  10
HETATM   10  N3  UNL     1      25.517   1.808  52.178  1.00  0.00    -0.298 N 
HETATM   11  H8  UNL     1      26.375   1.488  52.727  1.00  0.00     0.187 HD
BRANCH  10  12
HETATM   12  C9  UNL     1      25.557   2.884  51.199  1.00  0.00     0.049 A 
HETATM   13  C10 UNL     1      26.532   2.861  50.233  1.00  0.00     0.031 A 
HETATM   14  C11 UNL     1      26.551   3.930  49.356  1.00  0.00     0.004 A 
HETATM   15  C12 UNL     1      25.643   4.991  49.415  1.00  0.00     0.019 A 
HETATM   16  C13 UNL     1      24.677   4.903  50.449  1.00  0.00     0.013 A 
HETATM   17 BR1  UNL     1      23.354   6.267  50.717  1.00  0.00    -0.051 Br
HETATM   18  C14 UNL     1      24.567   3.863  51.393  1.00  0.00     0.050 A 
ENDBRANCH  10  12
ENDBRANCH   7  10
BRANCH   1  19
HETATM   19  N1  UNL     1      26.280   0.351  54.295  1.00  0.00    -0.327 N 
HETATM   20  C2  UNL     1      27.291  -0.558  53.713  1.00  0.00     0.218 C 
HETATM   21  C1  UNL     1      28.699  -0.403  53.397  1.00  0.00     0.117 C 
HETATM   22  O1  UNL     1      26.412  -1.501  53.616  1.00  0.00    -0.274 OA
HETATM   23  H4  UNL     1      26.690   1.287  54.543  1.00  0.00     0.168 HD
ENDBRANCH   1  19
TORSDOF 3
ENDMDL
MODEL 7
REMARK VINA RESULT:      -7.5      3.207      6.424
REMARK  3 active torsions:
REMARK  status: ('A' for Active; 'I' for Inactive)
REMARK       I    between atoms: C2_2  and  N1_4 
REMARK    1  A    between atoms: N1_4  and  C3_5 
REMARK    2  A    between atoms: N2_11  and  N3_12 
REMARK    3  A    between atoms: N3_12  and  C9_13 
ROOT
HETATM    1  C3  UNL     1      21.151   0.413  52.900  1.00  0.00     0.073 A 
HETATM    2  C4  UNL     1      19.836  -0.022  52.640  1.00  0.00     0.028 A 
HETATM    3  C5  UNL     1      19.837   0.321  51.234  1.00  0.00     0.011 A 
HETATM    4  C6  UNL     1      20.567   0.881  50.026  1.00  0.00     0.171 A 
HETATM    5  C7  UNL     1      21.559   1.124  50.519  1.00  0.00     0.395 A 
HETATM    6  C8  UNL     1      21.987   0.984  51.816  1.00  0.00     0.299 A 
HETATM    7  N2  UNL     1      23.284   1.571  51.884  1.00  0.00    -0.249 N 
HETATM    8  C15 UNL     1      22.970   1.773  50.485  1.00  0.00     0.351 A 
HETATM    9  N4  UNL     1      21.856   1.147  50.789  1.00  0.00     0.017 N 
ENDROOT
BRANCH   7  10
HETATM   10  N3  UNL     1      23.957   1.599  53.075  1.00  0.00    -0.298 N 
HETATM   11  H8  UNL     1      23.526   2.001  53.965  1.00  0.00     0.187 HD
BRANCH  10  12
HETATM   12  C9  UNL     1      25.267   0.965  53.043  1.00  0.00     0.049 A 
HETATM   13  C10 UNL     1      25.343  -0.374  52.754  1.00  0.00     0.031 A 
HETATM   14  C11 UNL     1      26.607  -0.936  52.781  1.00  0.00     0.004 A 
HETATM   15  C12 UNL     1      27.765  -0.211  53.076  1.00  0.00     0.019 A 
HETATM   16  C13 UNL     1      27.564   1.164  53.351  1.00  0.00     0.013 A 
HETATM   17 BR1  UNL     1      29.020   2.330  53.802  1.00  0.00    -0.051 Br
HETATM   18  C14 UNL     1      26.325   1.836  53.351  1.00  0.00     0.050 A 
ENDBRANCH  10  12
ENDBRANCH   7  10
BRANCH   1  19
HETATM   19  N1  UNL     1      21.827   0.359  54.129  1.00  0.00    -0.327 N 
HETATM   20  C2  UNL     1      22.369  -0.977  54.459  1.00  0.00     0.218 C 
HETATM   21  C1  UNL     1      23.138  -1.487  55.580  1.00  0.00     0.117 C 
HETATM   22  O1  UNL     1      21.880  -1.465  53.366  1.00  0.00    -0.274 OA
HETATM   23  H4  UNL     1      22.033   1.062  54.882  1.00  0.00     0.168 HD
ENDBRANCH   1  19
TORSDOF 3
ENDMDL
MODEL 8
REMARK VINA RESULT:      -7.3      1.642      2.515
REMARK  3 active torsions:
REMARK  status: ('A' for Active; 'I' for Inactive)
REMARK       I    between atoms: C2_2  and  N1_4 
REMARK    1  A    between atoms: N1_4  and  C3_5 
REMARK    2  A    between atoms: N2_11  and  N3_12 
REMARK    3  A    between atoms: N3_12  and  C9_13 
ROOT
HETATM    1  C3  UNL     1      26.539   2.081  52.799  1.00  0.00     0.073 A 
HETATM    2  C4  UNL     1      27.915   2.010  53.102  1.00  0.00     0.028 A 
HETATM    3  C5  UNL     1      27.863   0.713  53.741  1.00  0.00     0.011 A 
HETATM    4  C6  UNL     1      27.057  -0.497  54.180  1.00  0.00     0.171 A 
HETATM    5  C7  UNL     1      26.038  -0.172  53.806  1.00  0.00     0.395 A 
HETATM    6  C8  UNL     1      25.626   0.972  53.167  1.00  0.00     0.299 A 
HETATM    7  N2  UNL     1      24.208   0.887  53.051  1.00  0.00    -0.249 N 
HETATM    8  C15 UNL     1      24.499  -0.366  53.714  1.00  0.00     0.351 A 
HETATM    9  N4  UNL     1      25.747   0.035  53.621  1.00  0.00     0.017 N 
ENDROOT
BRANCH   7  10
HETATM   10  N3  UNL     1      23.511   1.910  52.468  1.00  0.00    -0.298 N 
HETATM   11  H8  UNL     1      23.762   2.935  52.628  1.00  0.00     0.187 HD
BRANCH  10  12
HETATM   12  C9  UNL     1      22.461   1.482  51.555  1.00  0.00     0.049 A 
HETATM   13  C10 UNL     1      22.652   1.649  50.206  1.00  0.00     0.031 A 
HETATM   14  C11 UNL     1      21.605   1.267  49.387  1.00  0.00     0.004 A 
HETATM   15  C12 UNL     1      20.407   0.732  49.869  1.00  0.00     0.019 A 
HETATM   16  C13 UNL     1      20.327   0.600  51.277  1.00  0.00     0.013 A 
HETATM   17 BR1  UNL     1      18.759  -0.090  52.142  1.00  0.00    -0.051 Br
HETATM   18  C14 UNL     1      21.329   0.956  52.201  1.00  0.00     0.050 A 
ENDBRANCH  10  12
ENDBRANCH   7  10
BRANCH   1  19
HETATM   19  N1  UNL     1      25.877   3.126  52.136  1.00  0.00    -0.327 N 
HETATM   20  C2  UNL     1      26.114   3.157  50.676  1.00  0.00     0.218 C 
HETATM   21  C1  UNL     1      25.632   4.017  49.611  1.00  0.00     0.117 C 
HETATM   22  O1  UNL     1      26.899   2.133  50.763  1.00  0.00    -0.274 OA
HETATM   23  H4  UNL     1      25.246   3.906  52.448  1.00  0.00     0.168 HD
ENDBRANCH   1  19
TORSDOF 3
ENDMDL
MODEL 9
REMARK VINA RESULT:      -7.3      2.289      3.406
REMARK  3 active torsions:
REMARK  status: ('A' for Active; 'I' for Inactive)
REMARK       I    between atoms: C2_2  and  N1_4 
REMARK    1  A    between atoms: N1_4  and  C3_5 
REMARK    2  A    between atoms: N2_11  and  N3_12 
REMARK    3  A    between atoms: N3_12  and  C9_13 
ROOT
HETATM    1  C3  UNL     1      24.714   1.550  52.025  1.00  0.00     0.073 A 
HETATM    2  C4  UNL     1      26.096   1.491  51.754  1.00  0.00     0.028 A 
HETATM    3  C5  UNL     1      26.341   0.263  52.478  1.00  0.00     0.011 A 
HETATM    4  C6  UNL     1      25.812  -0.889  53.315  1.00  0.00     0.171 A 
HETATM    5  C7  UNL     1      24.720  -0.589  53.354  1.00  0.00     0.395 A 
HETATM    6  C8  UNL     1      24.056   0.493  52.830  1.00  0.00     0.299 A 
HETATM    7  N2  UNL     1      22.713   0.415  53.302  1.00  0.00    -0.249 N 
HETATM    8  C15 UNL     1      23.279  -0.772  53.906  1.00  0.00     0.351 A 
HETATM    9  N4  UNL     1      24.373  -0.397  53.283  1.00  0.00     0.017 N 
ENDROOT
BRANCH   7  10
HETATM   10  N3  UNL     1      21.813   1.387  52.956  1.00  0.00    -0.298 N 
HETATM   11  H8  UNL     1      21.991   2.423  53.143  1.00  0.00     0.187 HD
BRANCH  10  12
HETATM   12  C9  UNL     1      20.641   0.897  52.245  1.00  0.00     0.049 A 
HETATM   13  C10 UNL     1      20.398   1.364  50.977  1.00  0.00     0.031 A 
HETATM   14  C11 UNL     1      19.247   0.901  50.364  1.00  0.00     0.004 A 
HETATM   15  C12 UNL     1      18.361   0.005  50.968  1.00  0.00     0.019 A 
HETATM   16  C13 UNL     1      18.719  -0.412  52.274  1.00  0.00     0.013 A 
HETATM   17 BR1  UNL     1      17.625  -1.622  53.286  1.00  0.00    -0.051 Br
HETATM   18  C14 UNL     1      19.863  -0.005  52.988  1.00  0.00     0.050 A 
ENDBRANCH  10  12
ENDBRANCH   7  10
BRANCH   1  19
HETATM   19  N1  UNL     1      23.813   2.535  51.589  1.00  0.00    -0.327 N 
HETATM   20  C2  UNL     1      23.748   3.722  52.469  1.00  0.00     0.218 C 
HETATM   21  C1  UNL     1      22.998   4.963  52.406  1.00  0.00     0.117 C 
HETATM   22  O1  UNL     1      24.608   3.193  53.276  1.00  0.00    -0.274 OA
HETATM   23  H4  UNL     1      23.160   2.617  50.770  1.00  0.00     0.168 HD
ENDBRANCH   1  19
TORSDOF 3
ENDMDL
