MODEL 1
REMARK VINA RESULT:      -9.1      0.000      0.000
REMARK  7 active torsions:
REMARK  status: ('A' for Active; 'I' for Inactive)
REMARK    1  A    between atoms: C3_3  and  C4_4 
REMARK    2  A    between atoms: C4_4  and  N1_7 
REMARK       I    between atoms: N1_7  and  C7_8 
REMARK       I    between atoms: C7_8  and  N2_10 
REMARK    3  A    between atoms: N2_10  and  C8_11 
REMARK    4  A    between atoms: C12_15  and  N3_16 
REMARK    5  A    between atoms: N3_16  and  C14_18 
REMARK    6  A    between atoms: C18_24  and  O2_25 
REMARK    7  A    between atoms: C20_27  and  O3_28 
ROOT
HETATM    1  C8  UNL     1      23.434   4.498  51.423  1.00  0.00     0.038 A 
HETATM    2  C9  UNL     1      22.366   5.369  51.601  1.00  0.00     0.029 A 
HETATM    3  C10 UNL     1      21.108   4.829  51.781  1.00  0.00     0.004 A 
HETATM    4  C11 UNL     1      20.987   3.455  51.773  1.00  0.00     0.030 A 
HETATM    5  C12 UNL     1      22.019   2.560  51.600  1.00  0.00     0.037 A 
HETATM    6  C24 UNL     1      23.268   3.117  51.421  1.00  0.00     0.059 A 
ENDROOT
BRANCH   5   7
HETATM    7  N3  UNL     1      21.828   1.152  51.600  1.00  0.00    -0.335 N 
HETATM    8  C13 UNL     1      21.241   0.531  50.417  1.00  0.00     0.158 C 
BRANCH   7   9
HETATM    9  C14 UNL     1      22.214   0.403  52.747  1.00  0.00     0.144 A 
HETATM   10  N4  UNL     1      21.155  -0.037  53.487  1.00  0.00    -0.223 NA
HETATM   11  C15 UNL     1      21.400  -0.768  54.608  1.00  0.00     0.236 A 
HETATM   12  N5  UNL     1      22.642  -1.077  55.022  1.00  0.00    -0.241 NA
HETATM   13  C16 UNL     1      23.701  -0.649  54.301  1.00  0.00     0.075 A 
HETATM   14  C17 UNL     1      25.025  -0.926  54.660  1.00  0.00     0.072 A 
HETATM   15  C23 UNL     1      23.496   0.096  53.156  1.00  0.00     0.042 A 
HETATM   16  C18 UNL     1      26.030  -0.433  53.844  1.00  0.00     0.103 A 
HETATM   17  C20 UNL     1      25.827   0.307  52.706  1.00  0.00     0.102 A 
HETATM   18  C22 UNL     1      24.503   0.573  52.363  1.00  0.00     0.057 A 
BRANCH  16  19
HETATM   19  O2  UNL     1      27.326  -0.729  54.235  1.00  0.00    -0.353 OA
HETATM   20  C19 UNL     1      28.125   0.216  54.944  1.00  0.00     0.210 C 
ENDBRANCH  16  19
BRANCH  17  21
HETATM   21  O3  UNL     1      26.926   0.733  51.987  1.00  0.00    -0.353 OA
HETATM   22  C21 UNL     1      26.895   2.030  51.422  1.00  0.00     0.210 C 
ENDBRANCH  17  21
ENDBRANCH   7   9
ENDBRANCH   5   7
BRANCH   1  23
HETATM   23  N2  UNL     1      24.695   5.131  51.244  1.00  0.00    -0.309 N 
HETATM   24  C7  UNL     1      25.166   5.353  49.915  1.00  0.00     0.325 C 
HETATM   25  N1  UNL     1      26.453   6.000  49.852  1.00  0.00    -0.309 N 
HETATM   26  O1  UNL     1      24.512   5.012  48.914  1.00  0.00    -0.247 OA
HETATM   27  H10 UNL     1      26.987   6.278  50.720  1.00  0.00     0.170 HD
HETATM   28  H11 UNL     1      25.175   5.382  52.136  1.00  0.00     0.170 HD
BRANCH  25  29
HETATM   29  C4  UNL     1      27.197   6.361  48.698  1.00  0.00     0.032 C 
HETATM   30  C5  UNL     1      26.828   7.461  48.065  1.00  0.00    -0.002 C 
HETATM   31  C6  UNL     1      27.381   8.107  46.852  1.00  0.00     0.038 C 
BRANCH  29  32
HETATM   32  C3  UNL     1      28.315   5.552  48.239  1.00  0.00     0.025 C 
HETATM   33  C2  UNL     1      29.554   5.948  48.304  1.00  0.00    -0.029 C 
HETATM   34  C1  UNL     1      30.721   5.162  47.851  1.00  0.00     0.036 C 
ENDBRANCH  29  32
ENDBRANCH  25  29
ENDBRANCH   1  23
TORSDOF 7
ENDMDL
MODEL 2
REMARK VINA RESULT:      -8.9      1.569      2.078
REMARK  7 active torsions:
REMARK  status: ('A' for Active; 'I' for Inactive)
REMARK    1  A    between atoms: C3_3  and  C4_4 
REMARK    2  A    between atoms: C4_4  and  N1_7 
REMARK       I    between atoms: N1_7  and  C7_8 
REMARK       I    between atoms: C7_8  and  N2_10 
REMARK    3  A    between atoms: N2_10  and  C8_11 
REMARK    4  A    between atoms: C12_15  and  N3_16 
REMARK    5  A    between atoms: N3_16  and  C14_18 
REMARK    6  A    between atoms: C18_24  and  O2_25 
REMARK    7  A    between atoms: C20_27  and  O3_28 
ROOT
HETATM    1  C8  UNL     1      22.600   3.565  48.902  1.00  0.00     0.038 A 
HETATM    2  C9  UNL     1      22.479   2.554  47.957  1.00  0.00     0.029 A 
HETATM    3  C10 UNL     1      21.921   1.355  48.354  1.00  0.00     0.004 A 
HETATM    4  C11 UNL     1      21.518   1.231  49.666  1.00  0.00     0.030 A 
HETATM    5  C12 UNL     1      21.622   2.208  50.632  1.00  0.00     0.037 A 
HETATM    6  C24 UNL     1      22.181   3.399  50.218  1.00  0.00     0.059 A 
ENDROOT
BRANCH   5   7
HETATM    7  N3  UNL     1      21.188   2.019  51.972  1.00  0.00    -0.335 N 
HETATM    8  C13 UNL     1      20.255   2.985  52.541  1.00  0.00     0.158 C 
BRANCH   7   9
HETATM    9  C14 UNL     1      21.675   0.901  52.705  1.00  0.00     0.144 A 
HETATM   10  N4  UNL     1      20.704  -0.004  53.021  1.00  0.00    -0.223 NA
HETATM   11  C15 UNL     1      21.052  -1.117  53.721  1.00  0.00     0.236 A 
HETATM   12  N5  UNL     1      22.313  -1.367  54.117  1.00  0.00    -0.241 NA
HETATM   13  C16 UNL     1      23.286  -0.481  53.812  1.00  0.00     0.075 A 
HETATM   14  C17 UNL     1      24.622  -0.664  54.186  1.00  0.00     0.072 A 
HETATM   15  C23 UNL     1      22.976   0.662  53.103  1.00  0.00     0.042 A 
HETATM   16  C18 UNL     1      25.533   0.313  53.818  1.00  0.00     0.103 A 
HETATM   17  C20 UNL     1      25.225   1.450  53.113  1.00  0.00     0.102 A 
HETATM   18  C22 UNL     1      23.891   1.615  52.749  1.00  0.00     0.057 A 
BRANCH  16  19
HETATM   19  O2  UNL     1      26.844   0.094  54.207  1.00  0.00    -0.353 OA
HETATM   20  C19 UNL     1      27.708  -0.768  53.467  1.00  0.00     0.210 C 
ENDBRANCH  16  19
BRANCH  17  21
HETATM   21  O3  UNL     1      26.237   2.340  52.815  1.00  0.00    -0.353 OA
HETATM   22  C21 UNL     1      26.820   2.286  51.526  1.00  0.00     0.210 C 
ENDBRANCH  17  21
ENDBRANCH   7   9
ENDBRANCH   5   7
BRANCH   1  23
HETATM   23  N2  UNL     1      23.184   4.768  48.416  1.00  0.00    -0.309 N 
HETATM   24  C7  UNL     1      24.423   5.202  48.978  1.00  0.00     0.325 C 
HETATM   25  N1  UNL     1      24.921   6.430  48.412  1.00  0.00    -0.309 N 
HETATM   26  O1  UNL     1      25.004   4.564  49.873  1.00  0.00    -0.247 OA
HETATM   27  H10 UNL     1      24.404   6.951  47.651  1.00  0.00     0.170 HD
HETATM   28  H11 UNL     1      22.629   5.237  47.667  1.00  0.00     0.170 HD
BRANCH  25  29
HETATM   29  C4  UNL     1      26.113   7.128  48.741  1.00  0.00     0.032 C 
HETATM   30  C5  UNL     1      26.014   8.099  49.632  1.00  0.00    -0.002 C 
HETATM   31  C6  UNL     1      27.045   9.006  50.188  1.00  0.00     0.038 C 
BRANCH  29  32
HETATM   32  C3  UNL     1      27.382   6.783  48.122  1.00  0.00     0.025 C 
HETATM   33  C2  UNL     1      28.130   5.800  48.533  1.00  0.00    -0.029 C 
HETATM   34  C1  UNL     1      29.426   5.412  47.935  1.00  0.00     0.036 C 
ENDBRANCH  29  32
ENDBRANCH  25  29
ENDBRANCH   1  23
TORSDOF 7
ENDMDL
MODEL 3
REMARK VINA RESULT:      -8.7      2.834      4.217
REMARK  7 active torsions:
REMARK  status: ('A' for Active; 'I' for Inactive)
REMARK    1  A    between atoms: C3_3  and  C4_4 
REMARK    2  A    between atoms: C4_4  and  N1_7 
REMARK       I    between atoms: N1_7  and  C7_8 
REMARK       I    between atoms: C7_8  and  N2_10 
REMARK    3  A    between atoms: N2_10  and  C8_11 
REMARK    4  A    between atoms: C12_15  and  N3_16 
REMARK    5  A    between atoms: N3_16  and  C14_18 
REMARK    6  A    between atoms: C18_24  and  O2_25 
REMARK    7  A    between atoms: C20_27  and  O3_28 
ROOT
HETATM    1  C8  UNL     1      24.976   7.014  50.701  1.00  0.00     0.038 A 
HETATM    2  C9  UNL     1      23.798   7.742  50.821  1.00  0.00     0.029 A 
HETATM    3  C10 UNL     1      22.602   7.082  50.627  1.00  0.00     0.004 A 
HETATM    4  C11 UNL     1      22.646   5.737  50.324  1.00  0.00     0.030 A 
HETATM    5  C12 UNL     1      23.790   4.982  50.196  1.00  0.00     0.037 A 
HETATM    6  C24 UNL     1      24.976   5.657  50.394  1.00  0.00     0.059 A 
ENDROOT
BRANCH   5   7
HETATM    7  N3  UNL     1      23.769   3.596  49.881  1.00  0.00    -0.335 N 
HETATM    8  C13 UNL     1      23.137   3.179  48.634  1.00  0.00     0.158 C 
BRANCH   7   9
HETATM    9  C14 UNL     1      24.361   2.672  50.787  1.00  0.00     0.144 A 
HETATM   10  N4  UNL     1      25.715   2.570  50.648  1.00  0.00    -0.223 NA
HETATM   11  C15 UNL     1      26.392   1.717  51.463  1.00  0.00     0.236 A 
HETATM   12  N5  UNL     1      25.787   0.968  52.402  1.00  0.00    -0.241 NA
HETATM   13  C16 UNL     1      24.447   1.057  52.552  1.00  0.00     0.075 A 
HETATM   14  C17 UNL     1      23.739   0.313  53.503  1.00  0.00     0.072 A 
HETATM   15  C23 UNL     1      23.721   1.910  51.745  1.00  0.00     0.042 A 
HETATM   16  C18 UNL     1      22.366   0.487  53.564  1.00  0.00     0.103 A 
HETATM   17  C20 UNL     1      21.644   1.336  52.762  1.00  0.00     0.102 A 
HETATM   18  C22 UNL     1      22.365   2.068  51.822  1.00  0.00     0.057 A 
BRANCH  16  19
HETATM   19  O2  UNL     1      21.703  -0.267  54.519  1.00  0.00    -0.353 OA
HETATM   20  C19 UNL     1      21.386  -1.640  54.296  1.00  0.00     0.210 C 
ENDBRANCH  16  19
BRANCH  17  21
HETATM   21  O3  UNL     1      20.276   1.408  52.935  1.00  0.00    -0.353 OA
HETATM   22  C21 UNL     1      19.445   0.810  51.959  1.00  0.00     0.210 C 
ENDBRANCH  17  21
ENDBRANCH   7   9
ENDBRANCH   5   7
BRANCH   1  23
HETATM   23  N2  UNL     1      26.165   7.764  50.915  1.00  0.00    -0.309 N 
HETATM   24  C7  UNL     1      26.886   8.243  49.780  1.00  0.00     0.325 C 
HETATM   25  N1  UNL     1      28.073   8.989  50.113  1.00  0.00    -0.309 N 
HETATM   26  O1  UNL     1      26.508   8.025  48.615  1.00  0.00    -0.247 OA
HETATM   27  H10 UNL     1      28.370   9.158  51.113  1.00  0.00     0.170 HD
HETATM   28  H11 UNL     1      26.408   7.899  51.921  1.00  0.00     0.170 HD
BRANCH  25  29
HETATM   29  C4  UNL     1      29.004   9.597  49.231  1.00  0.00     0.032 C 
HETATM   30  C5  UNL     1      28.783  10.856  48.899  1.00  0.00    -0.002 C 
HETATM   31  C6  UNL     1      29.547  11.769  48.016  1.00  0.00     0.038 C 
BRANCH  29  32
HETATM   32  C3  UNL     1      30.147   8.858  48.718  1.00  0.00     0.025 C 
HETATM   33  C2  UNL     1      31.270   8.745  49.367  1.00  0.00    -0.029 C 
HETATM   34  C1  UNL     1      32.457   8.006  48.887  1.00  0.00     0.036 C 
ENDBRANCH  29  32
ENDBRANCH  25  29
ENDBRANCH   1  23
TORSDOF 7
ENDMDL
MODEL 4
REMARK VINA RESULT:      -8.6      1.705      2.523
REMARK  7 active torsions:
REMARK  status: ('A' for Active; 'I' for Inactive)
REMARK    1  A    between atoms: C3_3  and  C4_4 
REMARK    2  A    between atoms: C4_4  and  N1_7 
REMARK       I    between atoms: N1_7  and  C7_8 
REMARK       I    between atoms: C7_8  and  N2_10 
REMARK    3  A    between atoms: N2_10  and  C8_11 
REMARK    4  A    between atoms: C12_15  and  N3_16 
REMARK    5  A    between atoms: N3_16  and  C14_18 
REMARK    6  A    between atoms: C18_24  and  O2_25 
REMARK    7  A    between atoms: C20_27  and  O3_28 
ROOT
HETATM    1  C8  UNL     1      24.683   6.549  50.476  1.00  0.00     0.038 A 
HETATM    2  C9  UNL     1      23.774   7.554  50.785  1.00  0.00     0.029 A 
HETATM    3  C10 UNL     1      22.432   7.231  50.816  1.00  0.00     0.004 A 
HETATM    4  C11 UNL     1      22.073   5.929  50.540  1.00  0.00     0.030 A 
HETATM    5  C12 UNL     1      22.942   4.907  50.229  1.00  0.00     0.037 A 
HETATM    6  C24 UNL     1      24.278   5.247  50.202  1.00  0.00     0.059 A 
ENDROOT
BRANCH   5   7
HETATM    7  N3  UNL     1      22.508   3.582  49.952  1.00  0.00    -0.335 N 
HETATM    8  C13 UNL     1      22.488   3.136  48.563  1.00  0.00     0.158 C 
BRANCH   7   9
HETATM    9  C14 UNL     1      22.112   2.744  51.031  1.00  0.00     0.144 A 
HETATM   10  N4  UNL     1      20.784   2.837  51.329  1.00  0.00    -0.223 NA
HETATM   11  C15 UNL     1      20.287   2.079  52.344  1.00  0.00     0.236 A 
HETATM   12  N5  UNL     1      21.048   1.240  53.069  1.00  0.00    -0.241 NA
HETATM   13  C16 UNL     1      22.366   1.137  52.788  1.00  0.00     0.075 A 
HETATM   14  C17 UNL     1      23.227   0.290  53.493  1.00  0.00     0.072 A 
HETATM   15  C23 UNL     1      22.910   1.889  51.766  1.00  0.00     0.042 A 
HETATM   16  C18 UNL     1      24.560   0.268  53.115  1.00  0.00     0.103 A 
HETATM   17  C20 UNL     1      25.102   1.014  52.099  1.00  0.00     0.102 A 
HETATM   18  C22 UNL     1      24.229   1.852  51.408  1.00  0.00     0.057 A 
BRANCH  16  19
HETATM   19  O2  UNL     1      25.379  -0.584  53.838  1.00  0.00    -0.353 OA
HETATM   20  C19 UNL     1      25.966  -0.183  55.076  1.00  0.00     0.210 C 
ENDBRANCH  16  19
BRANCH  17  21
HETATM   21  O3  UNL     1      26.451   0.891  51.832  1.00  0.00    -0.353 OA
HETATM   22  C21 UNL     1      27.320   1.911  52.286  1.00  0.00     0.210 C 
ENDBRANCH  17  21
ENDBRANCH   7   9
ENDBRANCH   5   7
BRANCH   1  23
HETATM   23  N2  UNL     1      26.044   6.961  50.463  1.00  0.00    -0.309 N 
HETATM   24  C7  UNL     1      26.693   7.137  49.204  1.00  0.00     0.325 C 
HETATM   25  N1  UNL     1      28.069   7.555  49.309  1.00  0.00    -0.309 N 
HETATM   26  O1  UNL     1      26.108   6.944  48.124  1.00  0.00    -0.247 OA
HETATM   27  H10 UNL     1      28.540   7.711  50.242  1.00  0.00     0.170 HD
HETATM   28  H11 UNL     1      26.455   7.099  51.412  1.00  0.00     0.170 HD
BRANCH  25  29
HETATM   29  C4  UNL     1      28.989   7.817  48.260  1.00  0.00     0.032 C 
HETATM   30  C5  UNL     1      29.188   9.083  47.938  1.00  0.00    -0.002 C 
HETATM   31  C6  UNL     1      30.065   9.690  46.910  1.00  0.00     0.038 C 
BRANCH  29  32
HETATM   32  C3  UNL     1      29.677   6.735  47.576  1.00  0.00     0.025 C 
HETATM   33  C2  UNL     1      30.480   5.907  48.181  1.00  0.00    -0.029 C 
HETATM   34  C1  UNL     1      31.200   4.793  47.527  1.00  0.00     0.036 C 
ENDBRANCH  29  32
ENDBRANCH  25  29
ENDBRANCH   1  23
TORSDOF 7
ENDMDL
MODEL 5
REMARK VINA RESULT:      -8.6      3.165      9.259
REMARK  7 active torsions:
REMARK  status: ('A' for Active; 'I' for Inactive)
REMARK    1  A    between atoms: C3_3  and  C4_4 
REMARK    2  A    between atoms: C4_4  and  N1_7 
REMARK       I    between atoms: N1_7  and  C7_8 
REMARK       I    between atoms: C7_8  and  N2_10 
REMARK    3  A    between atoms: N2_10  and  C8_11 
REMARK    4  A    between atoms: C12_15  and  N3_16 
REMARK    5  A    between atoms: N3_16  and  C14_18 
REMARK    6  A    between atoms: C18_24  and  O2_25 
REMARK    7  A    between atoms: C20_27  and  O3_28 
ROOT
HETATM    1  C8  UNL     1      25.715   6.302  49.265  1.00  0.00     0.038 A 
HETATM    2  C9  UNL     1      24.478   6.581  48.697  1.00  0.00     0.029 A 
HETATM    3  C10 UNL     1      24.446   7.356  47.555  1.00  0.00     0.004 A 
HETATM    4  C11 UNL     1      25.645   7.807  47.044  1.00  0.00     0.030 A 
HETATM    5  C12 UNL     1      26.889   7.552  47.577  1.00  0.00     0.037 A 
HETATM    6  C24 UNL     1      26.903   6.777  48.718  1.00  0.00     0.059 A 
ENDROOT
BRANCH   5   7
HETATM    7  N3  UNL     1      28.091   8.048  47.003  1.00  0.00    -0.335 N 
HETATM    8  C13 UNL     1      28.204   8.076  45.549  1.00  0.00     0.158 C 
BRANCH   7   9
HETATM    9  C14 UNL     1      29.134   8.496  47.861  1.00  0.00     0.144 A 
HETATM   10  N4  UNL     1      28.909   9.735  48.385  1.00  0.00    -0.223 NA
HETATM   11  C15 UNL     1      29.838  10.269  49.223  1.00  0.00     0.236 A 
HETATM   12  N5  UNL     1      30.972   9.627  49.560  1.00  0.00    -0.241 NA
HETATM   13  C16 UNL     1      31.210   8.399  49.050  1.00  0.00     0.075 A 
HETATM   14  C17 UNL     1      32.362   7.664  49.349  1.00  0.00     0.072 A 
HETATM   15  C23 UNL     1      30.292   7.822  48.195  1.00  0.00     0.042 A 
HETATM   16  C18 UNL     1      32.498   6.415  48.765  1.00  0.00     0.103 A 
HETATM   17  C20 UNL     1      31.587   5.840  47.916  1.00  0.00     0.102 A 
HETATM   18  C22 UNL     1      30.445   6.586  47.630  1.00  0.00     0.057 A 
BRANCH  16  19
HETATM   19  O2  UNL     1      33.653   5.720  49.087  1.00  0.00    -0.353 OA
HETATM   20  C19 UNL     1      34.920   6.089  48.546  1.00  0.00     0.210 C 
ENDBRANCH  16  19
BRANCH  17  21
HETATM   21  O3  UNL     1      31.853   4.584  47.407  1.00  0.00    -0.353 OA
HETATM   22  C21 UNL     1      32.467   4.493  46.136  1.00  0.00     0.210 C 
ENDBRANCH  17  21
ENDBRANCH   7   9
ENDBRANCH   5   7
BRANCH   1  23
HETATM   23  N2  UNL     1      25.665   5.499  50.438  1.00  0.00    -0.309 N 
HETATM   24  C7  UNL     1      25.547   4.084  50.294  1.00  0.00     0.325 C 
HETATM   25  N1  UNL     1      25.505   3.371  51.546  1.00  0.00    -0.309 N 
HETATM   26  O1  UNL     1      25.488   3.534  49.180  1.00  0.00    -0.247 OA
HETATM   27  H10 UNL     1      25.557   3.866  52.478  1.00  0.00     0.170 HD
HETATM   28  H11 UNL     1      25.720   6.042  51.327  1.00  0.00     0.170 HD
BRANCH  25  29
HETATM   29  C4  UNL     1      25.393   1.971  51.755  1.00  0.00     0.032 C 
HETATM   30  C5  UNL     1      26.518   1.278  51.793  1.00  0.00    -0.002 C 
HETATM   31  C6  UNL     1      26.750  -0.172  51.990  1.00  0.00     0.038 C 
BRANCH  29  32
HETATM   32  C3  UNL     1      24.096   1.336  51.919  1.00  0.00     0.025 C 
HETATM   33  C2  UNL     1      23.100   1.533  51.103  1.00  0.00    -0.029 C 
HETATM   34  C1  UNL     1      21.765   0.910  51.228  1.00  0.00     0.036 C 
ENDBRANCH  29  32
ENDBRANCH  25  29
ENDBRANCH   1  23
TORSDOF 7
ENDMDL
MODEL 6
REMARK VINA RESULT:      -8.2      3.067      9.443
REMARK  7 active torsions:
REMARK  status: ('A' for Active; 'I' for Inactive)
REMARK    1  A    between atoms: C3_3  and  C4_4 
REMARK    2  A    between atoms: C4_4  and  N1_7 
REMARK       I    between atoms: N1_7  and  C7_8 
REMARK       I    between atoms: C7_8  and  N2_10 
REMARK    3  A    between atoms: N2_10  and  C8_11 
REMARK    4  A    between atoms: C12_15  and  N3_16 
REMARK    5  A    between atoms: N3_16  and  C14_18 
REMARK    6  A    between atoms: C18_24  and  O2_25 
REMARK    7  A    between atoms: C20_27  and  O3_28 
ROOT
HETATM    1  C8  UNL     1      24.250   4.502  50.753  1.00  0.00     0.038 A 
HETATM    2  C9  UNL     1      23.712   5.530  51.518  1.00  0.00     0.029 A 
HETATM    3  C10 UNL     1      24.211   6.805  51.336  1.00  0.00     0.004 A 
HETATM    4  C11 UNL     1      25.213   6.982  50.406  1.00  0.00     0.030 A 
HETATM    5  C12 UNL     1      25.771   5.990  49.631  1.00  0.00     0.037 A 
HETATM    6  C24 UNL     1      25.262   4.723  49.825  1.00  0.00     0.059 A 
ENDROOT
BRANCH   5   7
HETATM    7  N3  UNL     1      26.805   6.237  48.688  1.00  0.00    -0.335 N 
HETATM    8  C13 UNL     1      27.830   5.215  48.499  1.00  0.00     0.158 C 
BRANCH   7   9
HETATM    9  C14 UNL     1      26.804   7.463  47.966  1.00  0.00     0.144 A 
HETATM   10  N4  UNL     1      25.719   7.612  47.153  1.00  0.00    -0.223 NA
HETATM   11  C15 UNL     1      25.608   8.748  46.413  1.00  0.00     0.236 A 
HETATM   12  N5  UNL     1      26.522   9.734  46.447  1.00  0.00    -0.241 NA
HETATM   13  C16 UNL     1      27.603   9.602  47.247  1.00  0.00     0.075 A 
HETATM   14  C17 UNL     1      28.600  10.580  47.341  1.00  0.00     0.072 A 
HETATM   15  C23 UNL     1      27.754   8.464  48.014  1.00  0.00     0.042 A 
HETATM   16  C18 UNL     1      29.663  10.334  48.195  1.00  0.00     0.103 A 
HETATM   17  C20 UNL     1      29.814   9.203  48.958  1.00  0.00     0.102 A 
HETATM   18  C22 UNL     1      28.812   8.241  48.852  1.00  0.00     0.057 A 
BRANCH  16  19
HETATM   19  O2  UNL     1      30.628  11.326  48.259  1.00  0.00    -0.353 OA
HETATM   20  C19 UNL     1      30.448  12.491  49.064  1.00  0.00     0.210 C 
ENDBRANCH  16  19
BRANCH  17  21
HETATM   21  O3  UNL     1      30.928   9.092  49.767  1.00  0.00    -0.353 OA
HETATM   22  C21 UNL     1      31.822   8.020  49.533  1.00  0.00     0.210 C 
ENDBRANCH  17  21
ENDBRANCH   7   9
ENDBRANCH   5   7
BRANCH   1  23
HETATM   23  N2  UNL     1      23.685   3.220  50.998  1.00  0.00    -0.309 N 
HETATM   24  C7  UNL     1      24.149   2.471  52.122  1.00  0.00     0.325 C 
HETATM   25  N1  UNL     1      23.508   1.189  52.274  1.00  0.00    -0.309 N 
HETATM   26  O1  UNL     1      25.027   2.903  52.889  1.00  0.00    -0.247 OA
HETATM   27  H10 UNL     1      22.765   0.847  51.606  1.00  0.00     0.170 HD
HETATM   28  H11 UNL     1      22.956   2.937  50.306  1.00  0.00     0.170 HD
BRANCH  25  29
HETATM   29  C4  UNL     1      23.735   0.208  53.276  1.00  0.00     0.032 C 
HETATM   30  C5  UNL     1      22.676  -0.249  53.919  1.00  0.00    -0.002 C 
HETATM   31  C6  UNL     1      22.565  -1.256  55.000  1.00  0.00     0.038 C 
BRANCH  29  32
HETATM   32  C3  UNL     1      25.077  -0.266  53.574  1.00  0.00     0.025 C 
HETATM   33  C2  UNL     1      25.902  -0.687  52.659  1.00  0.00    -0.029 C 
HETATM   34  C1  UNL     1      27.274  -1.177  52.914  1.00  0.00     0.036 C 
ENDBRANCH  29  32
ENDBRANCH  25  29
ENDBRANCH   1  23
TORSDOF 7
ENDMDL
MODEL 7
REMARK VINA RESULT:      -8.1      3.995      8.170
REMARK  7 active torsions:
REMARK  status: ('A' for Active; 'I' for Inactive)
REMARK    1  A    between atoms: C3_3  and  C4_4 
REMARK    2  A    between atoms: C4_4  and  N1_7 
REMARK       I    between atoms: N1_7  and  C7_8 
REMARK       I    between atoms: C7_8  and  N2_10 
REMARK    3  A    between atoms: N2_10  and  C8_11 
REMARK    4  A    between atoms: C12_15  and  N3_16 
REMARK    5  A    between atoms: N3_16  and  C14_18 
REMARK    6  A    between atoms: C18_24  and  O2_25 
REMARK    7  A    between atoms: C20_27  and  O3_28 
ROOT
HETATM    1  C8  UNL     1      19.561   2.000  51.023  1.00  0.00     0.038 A 
HETATM    2  C9  UNL     1      19.779   1.235  49.884  1.00  0.00     0.029 A 
HETATM    3  C10 UNL     1      21.036   1.259  49.314  1.00  0.00     0.004 A 
HETATM    4  C11 UNL     1      22.002   2.043  49.910  1.00  0.00     0.030 A 
HETATM    5  C12 UNL     1      21.825   2.814  51.037  1.00  0.00     0.037 A 
HETATM    6  C24 UNL     1      20.563   2.778  51.593  1.00  0.00     0.059 A 
ENDROOT
BRANCH   5   7
HETATM    7  N3  UNL     1      22.863   3.603  51.603  1.00  0.00    -0.335 N 
HETATM    8  C13 UNL     1      22.492   4.733  52.448  1.00  0.00     0.158 C 
BRANCH   7   9
HETATM    9  C14 UNL     1      24.217   3.263  51.328  1.00  0.00     0.144 A 
HETATM   10  N4  UNL     1      24.807   4.089  50.416  1.00  0.00    -0.223 NA
HETATM   11  C15 UNL     1      26.104   3.864  50.075  1.00  0.00     0.236 A 
HETATM   12  N5  UNL     1      26.834   2.861  50.597  1.00  0.00    -0.241 NA
HETATM   13  C16 UNL     1      26.264   2.035  51.501  1.00  0.00     0.075 A 
HETATM   14  C17 UNL     1      26.951   0.969  52.092  1.00  0.00     0.072 A 
HETATM   15  C23 UNL     1      24.949   2.228  51.875  1.00  0.00     0.042 A 
HETATM   16  C18 UNL     1      26.263   0.187  53.006  1.00  0.00     0.103 A 
HETATM   17  C20 UNL     1      24.957   0.379  53.379  1.00  0.00     0.102 A 
HETATM   18  C22 UNL     1      24.288   1.445  52.781  1.00  0.00     0.057 A 
BRANCH  16  19
HETATM   19  O2  UNL     1      26.979  -0.857  53.568  1.00  0.00    -0.353 OA
HETATM   20  C19 UNL     1      28.373  -0.740  53.850  1.00  0.00     0.210 C 
ENDBRANCH  16  19
BRANCH  17  21
HETATM   21  O3  UNL     1      24.397  -0.479  54.304  1.00  0.00    -0.353 OA
HETATM   22  C21 UNL     1      23.063  -0.904  54.104  1.00  0.00     0.210 C 
ENDBRANCH  17  21
ENDBRANCH   7   9
ENDBRANCH   5   7
BRANCH   1  23
HETATM   23  N2  UNL     1      18.242   1.922  51.550  1.00  0.00    -0.309 N 
HETATM   24  C7  UNL     1      17.322   2.971  51.249  1.00  0.00     0.325 C 
HETATM   25  N1  UNL     1      16.017   2.790  51.833  1.00  0.00    -0.309 N 
HETATM   26  O1  UNL     1      17.637   3.946  50.544  1.00  0.00    -0.247 OA
HETATM   27  H10 UNL     1      15.778   1.950  52.429  1.00  0.00     0.170 HD
HETATM   28  H11 UNL     1      18.065   1.072  52.129  1.00  0.00     0.170 HD
BRANCH  25  29
HETATM   29  C4  UNL     1      14.884   3.639  51.731  1.00  0.00     0.032 C 
HETATM   30  C5  UNL     1      14.465   3.937  50.514  1.00  0.00    -0.002 C 
HETATM   31  C6  UNL     1      13.334   4.781  50.063  1.00  0.00     0.038 C 
BRANCH  29  32
HETATM   32  C3  UNL     1      14.220   4.154  52.917  1.00  0.00     0.025 C 
HETATM   33  C2  UNL     1      13.092   3.680  53.363  1.00  0.00    -0.029 C 
HETATM   34  C1  UNL     1      12.380   4.170  54.563  1.00  0.00     0.036 C 
ENDBRANCH  29  32
ENDBRANCH  25  29
ENDBRANCH   1  23
TORSDOF 7
ENDMDL
MODEL 8
REMARK VINA RESULT:      -8.1      3.064      9.361
REMARK  7 active torsions:
REMARK  status: ('A' for Active; 'I' for Inactive)
REMARK    1  A    between atoms: C3_3  and  C4_4 
REMARK    2  A    between atoms: C4_4  and  N1_7 
REMARK       I    between atoms: N1_7  and  C7_8 
REMARK       I    between atoms: C7_8  and  N2_10 
REMARK    3  A    between atoms: N2_10  and  C8_11 
REMARK    4  A    between atoms: C12_15  and  N3_16 
REMARK    5  A    between atoms: N3_16  and  C14_18 
REMARK    6  A    between atoms: C18_24  and  O2_25 
REMARK    7  A    between atoms: C20_27  and  O3_28 
ROOT
HETATM    1  C8  UNL     1      25.775   4.095  49.388  1.00  0.00     0.038 A 
HETATM    2  C9  UNL     1      24.410   4.019  49.137  1.00  0.00     0.029 A 
HETATM    3  C10 UNL     1      23.754   5.170  48.750  1.00  0.00     0.004 A 
HETATM    4  C11 UNL     1      24.492   6.329  48.636  1.00  0.00     0.030 A 
HETATM    5  C12 UNL     1      25.843   6.445  48.876  1.00  0.00     0.037 A 
HETATM    6  C24 UNL     1      26.483   5.285  49.261  1.00  0.00     0.059 A 
ENDROOT
BRANCH   5   7
HETATM    7  N3  UNL     1      26.549   7.671  48.741  1.00  0.00    -0.335 N 
HETATM    8  C13 UNL     1      26.586   8.578  49.883  1.00  0.00     0.158 C 
BRANCH   7   9
HETATM    9  C14 UNL     1      27.189   7.968  47.505  1.00  0.00     0.144 A 
HETATM   10  N4  UNL     1      26.319   8.328  46.518  1.00  0.00    -0.223 NA
HETATM   11  C15 UNL     1      26.816   8.638  45.290  1.00  0.00     0.236 A 
HETATM   12  N5  UNL     1      28.131   8.605  45.005  1.00  0.00    -0.241 NA
HETATM   13  C16 UNL     1      29.005   8.250  45.971  1.00  0.00     0.075 A 
HETATM   14  C17 UNL     1      30.387   8.190  45.759  1.00  0.00     0.072 A 
HETATM   15  C23 UNL     1      28.542   7.928  47.231  1.00  0.00     0.042 A 
HETATM   16  C18 UNL     1      31.186   7.812  46.825  1.00  0.00     0.103 A 
HETATM   17  C20 UNL     1      30.727   7.492  48.078  1.00  0.00     0.102 A 
HETATM   18  C22 UNL     1      29.349   7.557  48.272  1.00  0.00     0.057 A 
BRANCH  16  19
HETATM   19  O2  UNL     1      32.548   7.765  46.573  1.00  0.00    -0.353 OA
HETATM   20  C19 UNL     1      33.148   6.648  45.920  1.00  0.00     0.210 C 
ENDBRANCH  16  19
BRANCH  17  21
HETATM   21  O3  UNL     1      31.641   7.132  49.048  1.00  0.00    -0.353 OA
HETATM   22  C21 UNL     1      31.711   5.771  49.431  1.00  0.00     0.210 C 
ENDBRANCH  17  21
ENDBRANCH   7   9
ENDBRANCH   5   7
BRANCH   1  23
HETATM   23  N2  UNL     1      26.377   2.868  49.781  1.00  0.00    -0.309 N 
HETATM   24  C7  UNL     1      26.220   2.431  51.131  1.00  0.00     0.325 C 
HETATM   25  N1  UNL     1      26.872   1.177  51.418  1.00  0.00    -0.309 N 
HETATM   26  O1  UNL     1      25.576   3.086  51.969  1.00  0.00    -0.247 OA
HETATM   27  H10 UNL     1      27.413   0.643  50.685  1.00  0.00     0.170 HD
HETATM   28  H11 UNL     1      26.898   2.386  49.016  1.00  0.00     0.170 HD
BRANCH  25  29
HETATM   29  C4  UNL     1      26.910   0.471  52.649  1.00  0.00     0.032 C 
HETATM   30  C5  UNL     1      27.990   0.621  53.394  1.00  0.00    -0.002 C 
HETATM   31  C6  UNL     1      28.343   0.037  54.709  1.00  0.00     0.038 C 
BRANCH  29  32
HETATM   32  C3  UNL     1      25.806  -0.380  53.063  1.00  0.00     0.025 C 
HETATM   33  C2  UNL     1      24.686   0.089  53.535  1.00  0.00    -0.029 C 
HETATM   34  C1  UNL     1      23.537  -0.736  53.968  1.00  0.00     0.036 C 
ENDBRANCH  29  32
ENDBRANCH  25  29
ENDBRANCH   1  23
TORSDOF 7
ENDMDL
MODEL 9
REMARK VINA RESULT:      -8.1      5.943     11.375
REMARK  7 active torsions:
REMARK  status: ('A' for Active; 'I' for Inactive)
REMARK    1  A    between atoms: C3_3  and  C4_4 
REMARK    2  A    between atoms: C4_4  and  N1_7 
REMARK       I    between atoms: N1_7  and  C7_8 
REMARK       I    between atoms: C7_8  and  N2_10 
REMARK    3  A    between atoms: N2_10  and  C8_11 
REMARK    4  A    between atoms: C12_15  and  N3_16 
REMARK    5  A    between atoms: N3_16  and  C14_18 
REMARK    6  A    between atoms: C18_24  and  O2_25 
REMARK    7  A    between atoms: C20_27  and  O3_28 
ROOT
HETATM    1  C8  UNL     1      30.343   9.388  49.101  1.00  0.00     0.038 A 
HETATM    2  C9  UNL     1      30.405  10.586  48.399  1.00  0.00     0.029 A 
HETATM    3  C10 UNL     1      31.485  10.797  47.566  1.00  0.00     0.004 A 
HETATM    4  C11 UNL     1      32.440   9.805  47.479  1.00  0.00     0.030 A 
HETATM    5  C12 UNL     1      32.414   8.607  48.157  1.00  0.00     0.037 A 
HETATM    6  C24 UNL     1      31.329   8.413  48.985  1.00  0.00     0.059 A 
ENDROOT
BRANCH   5   7
HETATM    7  N3  UNL     1      33.432   7.624  48.025  1.00  0.00    -0.335 N 
HETATM    8  C13 UNL     1      34.744   7.902  48.600  1.00  0.00     0.158 C 
BRANCH   7   9
HETATM    9  C14 UNL     1      33.137   6.411  47.342  1.00  0.00     0.144 A 
HETATM   10  N4  UNL     1      32.685   5.422  48.165  1.00  0.00    -0.223 NA
HETATM   11  C15 UNL     1      32.369   4.214  47.624  1.00  0.00     0.236 A 
HETATM   12  N5  UNL     1      32.481   3.951  46.309  1.00  0.00    -0.241 NA
HETATM   13  C16 UNL     1      32.927   4.920  45.480  1.00  0.00     0.075 A 
HETATM   14  C17 UNL     1      33.073   4.730  44.102  1.00  0.00     0.072 A 
HETATM   15  C23 UNL     1      33.259   6.160  45.989  1.00  0.00     0.042 A 
HETATM   16  C18 UNL     1      33.540   5.797  43.351  1.00  0.00     0.103 A 
HETATM   17  C20 UNL     1      33.871   7.029  43.856  1.00  0.00     0.102 A 
HETATM   18  C22 UNL     1      33.719   7.201  45.230  1.00  0.00     0.057 A 
BRANCH  16  19
HETATM   19  O2  UNL     1      33.670   5.567  41.991  1.00  0.00    -0.353 OA
HETATM   20  C19 UNL     1      33.200   4.362  41.389  1.00  0.00     0.210 C 
ENDBRANCH  16  19
BRANCH  17  21
HETATM   21  O3  UNL     1      34.325   8.002  42.988  1.00  0.00    -0.353 OA
HETATM   22  C21 UNL     1      33.464   9.083  42.683  1.00  0.00     0.210 C 
ENDBRANCH  17  21
ENDBRANCH   7   9
ENDBRANCH   5   7
BRANCH   1  23
HETATM   23  N2  UNL     1      29.202   9.245  49.937  1.00  0.00    -0.309 N 
HETATM   24  C7  UNL     1      28.064   8.549  49.429  1.00  0.00     0.325 C 
HETATM   25  N1  UNL     1      26.967   8.466  50.360  1.00  0.00    -0.309 N 
HETATM   26  O1  UNL     1      28.040   8.066  48.283  1.00  0.00    -0.247 OA
HETATM   27  H10 UNL     1      27.016   8.887  51.328  1.00  0.00     0.170 HD
HETATM   28  H11 UNL     1      29.309   9.681  50.880  1.00  0.00     0.170 HD
BRANCH  25  29
HETATM   29  C4  UNL     1      25.702   7.848  50.173  1.00  0.00     0.032 C 
HETATM   30  C5  UNL     1      24.681   8.641  49.903  1.00  0.00    -0.002 C 
HETATM   31  C6  UNL     1      23.254   8.325  49.657  1.00  0.00     0.038 C 
BRANCH  29  32
HETATM   32  C3  UNL     1      25.547   6.406  50.275  1.00  0.00     0.025 C 
HETATM   33  C2  UNL     1      25.763   5.595  49.280  1.00  0.00    -0.029 C 
HETATM   34  C1  UNL     1      25.618   4.124  49.337  1.00  0.00     0.036 C 
ENDBRANCH  29  32
ENDBRANCH  25  29
ENDBRANCH   1  23
TORSDOF 7
ENDMDL
