MODEL 1
REMARK VINA RESULT:      -7.8      0.000      0.000
REMARK  8 active torsions:
REMARK  status: ('A' for Active; 'I' for Inactive)
REMARK    1  A    between atoms: O1_2  and  C2_3 
REMARK    2  A    between atoms: C4_5  and  C5_6 
REMARK    3  A    between atoms: C5_6  and  C6_7 
REMARK    4  A    between atoms: C5_6  and  N1_11 
REMARK    5  A    between atoms: C6_7  and  C7_8 
REMARK    6  A    between atoms: C7_8  and  O3_10 
REMARK    7  A    between atoms: N1_11  and  C8_12 
REMARK    8  A    between atoms: C16_21  and  O4_22 
ROOT
HETATM    1  C5  UNL     1      25.711   2.868  50.921  1.00  0.00     0.032 C 
ENDROOT
BRANCH   1   2
HETATM    2  C4  UNL     1      24.430   2.774  51.313  1.00  0.00     0.019 A 
HETATM    3  C3  UNL     1      23.873   1.504  51.506  1.00  0.00     0.055 A 
HETATM    4  C2  UNL     1      22.561   1.461  51.918  1.00  0.00     0.103 A 
HETATM    5  C16 UNL     1      21.790   2.582  52.145  1.00  0.00     0.111 A 
HETATM    6  C15 UNL     1      22.404   3.821  51.935  1.00  0.00     0.027 A 
HETATM    7  C14 UNL     1      23.682   3.930  51.534  1.00  0.00     0.074 A 
HETATM    8  C18 UNL     1      22.292   5.262  51.953  1.00  0.00     0.193 A 
HETATM    9  N2  UNL     1      23.650   5.193  51.523  1.00  0.00    -0.283 NA
BRANCH   4  10
HETATM   10  O1  UNL     1      21.941   0.239  52.127  1.00  0.00    -0.353 OA
HETATM   11  C1  UNL     1      22.382  -0.563  53.201  1.00  0.00     0.210 C 
ENDBRANCH   4  10
BRANCH   5  12
HETATM   12  O4  UNL     1      20.484   2.522  52.556  1.00  0.00    -0.352 OA
HETATM   13  C17 UNL     1      19.350   2.878  51.823  1.00  0.00     0.210 C 
ENDBRANCH   5  12
ENDBRANCH   1   2
BRANCH   1  14
HETATM   14  C6  UNL     1      26.252   3.065  49.551  1.00  0.00     0.167 C 
BRANCH  14  15
HETATM   15  C7  UNL     1      26.928   4.383  49.382  1.00  0.00     0.145 C 
HETATM   16  O2  UNL     1      27.922   4.551  48.604  1.00  0.00    -0.650 OA
BRANCH  15  17
HETATM   17  O3  UNL     1      26.469   5.497  50.095  1.00  0.00    -0.776 OA
HETATM   18  H7  UNL     1      25.980   6.205  49.543  1.00  0.00     0.167 HD
ENDBRANCH  15  17
ENDBRANCH  14  15
ENDBRANCH   1  14
BRANCH   1  19
HETATM   19  N1  UNL     1      26.731   2.782  51.906  1.00  0.00    -0.358 N 
HETATM   20  H8  UNL     1      26.913   3.797  52.062  1.00  0.00     0.166 HD
BRANCH  19  21
HETATM   21  C8  UNL     1      27.431   1.767  52.605  1.00  0.00     0.034 A 
HETATM   22  C9  UNL     1      28.413   2.154  53.491  1.00  0.00     0.029 A 
HETATM   23  C10 UNL     1      29.070   1.149  54.142  1.00  0.00     0.004 A 
HETATM   24  C11 UNL     1      28.745  -0.175  53.903  1.00  0.00     0.024 A 
HETATM   25  C12 UNL     1      27.777  -0.575  53.030  1.00  0.00     0.036 A 
HETATM   26 CL1  UNL     1      27.332  -2.223  52.694  1.00  0.00    -0.084 Cl
HETATM   27  C13 UNL     1      27.114   0.435  52.373  1.00  0.00     0.053 A 
ENDBRANCH  19  21
ENDBRANCH   1  19
TORSDOF 8
ENDMDL
MODEL 2
REMARK VINA RESULT:      -7.5      2.533      4.737
REMARK  8 active torsions:
REMARK  status: ('A' for Active; 'I' for Inactive)
REMARK    1  A    between atoms: O1_2  and  C2_3 
REMARK    2  A    between atoms: C4_5  and  C5_6 
REMARK    3  A    between atoms: C5_6  and  C6_7 
REMARK    4  A    between atoms: C5_6  and  N1_11 
REMARK    5  A    between atoms: C6_7  and  C7_8 
REMARK    6  A    between atoms: C7_8  and  O3_10 
REMARK    7  A    between atoms: N1_11  and  C8_12 
REMARK    8  A    between atoms: C16_21  and  O4_22 
ROOT
HETATM    1  C5  UNL     1      23.208   0.226  53.234  1.00  0.00     0.032 C 
ENDROOT
BRANCH   1   2
HETATM    2  C4  UNL     1      22.745   1.341  52.645  1.00  0.00     0.019 A 
HETATM    3  C3  UNL     1      21.415   1.719  52.861  1.00  0.00     0.055 A 
HETATM    4  C2  UNL     1      20.992   2.874  52.244  1.00  0.00     0.103 A 
HETATM    5  C16 UNL     1      21.799   3.656  51.443  1.00  0.00     0.111 A 
HETATM    6  C15 UNL     1      23.117   3.224  51.266  1.00  0.00     0.027 A 
HETATM    7  C14 UNL     1      23.591   2.107  51.841  1.00  0.00     0.074 A 
HETATM    8  C18 UNL     1      24.410   3.455  50.661  1.00  0.00     0.193 A 
HETATM    9  N2  UNL     1      24.743   2.246  51.341  1.00  0.00    -0.283 NA
BRANCH   4  10
HETATM   10  O1  UNL     1      19.687   3.310  52.410  1.00  0.00    -0.353 OA
HETATM   11  C1  UNL     1      18.668   2.678  51.665  1.00  0.00     0.210 C 
ENDBRANCH   4  10
BRANCH   5  12
HETATM   12  O4  UNL     1      21.363   4.804  50.835  1.00  0.00    -0.352 OA
HETATM   13  C17 UNL     1      21.790   6.110  51.089  1.00  0.00     0.210 C 
ENDBRANCH   5  12
ENDBRANCH   1   2
BRANCH   1  14
HETATM   14  C6  UNL     1      22.595  -1.126  53.277  1.00  0.00     0.167 C 
BRANCH  14  15
HETATM   15  C7  UNL     1      22.078  -1.483  54.629  1.00  0.00     0.145 C 
HETATM   16  O2  UNL     1      22.839  -1.632  55.639  1.00  0.00    -0.650 OA
BRANCH  15  17
HETATM   17  O3  UNL     1      20.703  -1.667  54.821  1.00  0.00    -0.776 OA
HETATM   18  H7  UNL     1      20.168  -1.907  53.984  1.00  0.00     0.167 HD
ENDBRANCH  15  17
ENDBRANCH  14  15
ENDBRANCH   1  14
BRANCH   1  19
HETATM   19  N1  UNL     1      24.450   0.287  53.919  1.00  0.00    -0.358 N 
HETATM   20  H8  UNL     1      24.137   0.711  54.818  1.00  0.00     0.166 HD
BRANCH  19  21
HETATM   21  C8  UNL     1      25.803  -0.057  53.671  1.00  0.00     0.034 A 
HETATM   22  C9  UNL     1      26.055  -1.218  52.972  1.00  0.00     0.029 A 
HETATM   23  C10 UNL     1      27.370  -1.520  52.756  1.00  0.00     0.004 A 
HETATM   24  C11 UNL     1      28.370  -0.686  53.225  1.00  0.00     0.024 A 
HETATM   25  C12 UNL     1      28.138   0.465  53.918  1.00  0.00     0.036 A 
HETATM   26 CL1  UNL     1      29.358   1.545  54.530  1.00  0.00    -0.084 Cl
HETATM   27  C13 UNL     1      26.815   0.771  54.137  1.00  0.00     0.053 A 
ENDBRANCH  19  21
ENDBRANCH   1  19
TORSDOF 8
ENDMDL
MODEL 3
REMARK VINA RESULT:      -7.4      2.342      4.847
REMARK  8 active torsions:
REMARK  status: ('A' for Active; 'I' for Inactive)
REMARK    1  A    between atoms: O1_2  and  C2_3 
REMARK    2  A    between atoms: C4_5  and  C5_6 
REMARK    3  A    between atoms: C5_6  and  C6_7 
REMARK    4  A    between atoms: C5_6  and  N1_11 
REMARK    5  A    between atoms: C6_7  and  C7_8 
REMARK    6  A    between atoms: C7_8  and  O3_10 
REMARK    7  A    between atoms: N1_11  and  C8_12 
REMARK    8  A    between atoms: C16_21  and  O4_22 
ROOT
HETATM    1  C5  UNL     1      23.405   0.084  53.127  1.00  0.00     0.032 C 
ENDROOT
BRANCH   1   2
HETATM    2  C4  UNL     1      23.081   1.138  52.359  1.00  0.00     0.019 A 
HETATM    3  C3  UNL     1      24.036   1.650  51.474  1.00  0.00     0.055 A 
HETATM    4  C2  UNL     1      23.652   2.723  50.703  1.00  0.00     0.103 A 
HETATM    5  C16 UNL     1      22.400   3.301  50.761  1.00  0.00     0.111 A 
HETATM    6  C15 UNL     1      21.492   2.744  51.665  1.00  0.00     0.027 A 
HETATM    7  C14 UNL     1      21.805   1.696  52.446  1.00  0.00     0.074 A 
HETATM    8  C18 UNL     1      20.165   2.769  52.242  1.00  0.00     0.193 A 
HETATM    9  N2  UNL     1      20.667   1.665  52.993  1.00  0.00    -0.283 NA
BRANCH   4  10
HETATM   10  O1  UNL     1      24.545   3.285  49.804  1.00  0.00    -0.353 OA
HETATM   11  C1  UNL     1      25.852   3.575  50.250  1.00  0.00     0.210 C 
ENDBRANCH   4  10
BRANCH   5  12
HETATM   12  O4  UNL     1      22.033   4.369  49.985  1.00  0.00    -0.352 OA
HETATM   13  C17 UNL     1      21.947   5.708  50.376  1.00  0.00     0.210 C 
ENDBRANCH   5  12
ENDBRANCH   1   2
BRANCH   1  14
HETATM   14  C6  UNL     1      22.671  -1.194  53.310  1.00  0.00     0.167 C 
BRANCH  14  15
HETATM   15  C7  UNL     1      22.104  -1.343  54.681  1.00  0.00     0.145 C 
HETATM   16  O2  UNL     1      22.784  -1.785  55.662  1.00  0.00    -0.650 OA
BRANCH  15  17
HETATM   17  O3  UNL     1      20.772  -0.988  54.924  1.00  0.00    -0.776 OA
HETATM   18  H7  UNL     1      20.630  -0.245  55.612  1.00  0.00     0.167 HD
ENDBRANCH  15  17
ENDBRANCH  14  15
ENDBRANCH   1  14
BRANCH   1  19
HETATM   19  N1  UNL     1      24.605   0.140  53.883  1.00  0.00    -0.358 N 
HETATM   20  H8  UNL     1      24.222   0.445  54.803  1.00  0.00     0.166 HD
BRANCH  19  21
HETATM   21  C8  UNL     1      25.988  -0.097  53.677  1.00  0.00     0.034 A 
HETATM   22  C9  UNL     1      26.355  -1.265  53.043  1.00  0.00     0.029 A 
HETATM   23  C10 UNL     1      27.694  -1.461  52.865  1.00  0.00     0.004 A 
HETATM   24  C11 UNL     1      28.609  -0.521  53.309  1.00  0.00     0.024 A 
HETATM   25  C12 UNL     1      28.264   0.638  53.938  1.00  0.00     0.036 A 
HETATM   26 CL1  UNL     1      29.372   1.849  54.514  1.00  0.00    -0.084 Cl
HETATM   27  C13 UNL     1      26.915   0.839  54.118  1.00  0.00     0.053 A 
ENDBRANCH  19  21
ENDBRANCH   1  19
TORSDOF 8
ENDMDL
MODEL 4
REMARK VINA RESULT:      -7.3      2.892      5.571
REMARK  8 active torsions:
REMARK  status: ('A' for Active; 'I' for Inactive)
REMARK    1  A    between atoms: O1_2  and  C2_3 
REMARK    2  A    between atoms: C4_5  and  C5_6 
REMARK    3  A    between atoms: C5_6  and  C6_7 
REMARK    4  A    between atoms: C5_6  and  N1_11 
REMARK    5  A    between atoms: C6_7  and  C7_8 
REMARK    6  A    between atoms: C7_8  and  O3_10 
REMARK    7  A    between atoms: N1_11  and  C8_12 
REMARK    8  A    between atoms: C16_21  and  O4_22 
ROOT
HETATM    1  C5  UNL     1      25.149   1.468  53.103  1.00  0.00     0.032 C 
ENDROOT
BRANCH   1   2
HETATM    2  C4  UNL     1      24.890   2.518  52.306  1.00  0.00     0.019 A 
HETATM    3  C3  UNL     1      23.774   3.317  52.580  1.00  0.00     0.055 A 
HETATM    4  C2  UNL     1      23.558   4.386  51.741  1.00  0.00     0.103 A 
HETATM    5  C16 UNL     1      24.370   4.697  50.670  1.00  0.00     0.111 A 
HETATM    6  C15 UNL     1      25.468   3.860  50.448  1.00  0.00     0.027 A 
HETATM    7  C14 UNL     1      25.734   2.801  51.232  1.00  0.00     0.074 A 
HETATM    8  C18 UNL     1      26.633   3.554  49.648  1.00  0.00     0.193 A 
HETATM    9  N2  UNL     1      26.762   2.476  50.573  1.00  0.00    -0.283 NA
BRANCH   4  10
HETATM   10  O1  UNL     1      22.471   5.221  51.949  1.00  0.00    -0.353 OA
HETATM   11  C1  UNL     1      21.205   4.802  51.488  1.00  0.00     0.210 C 
ENDBRANCH   4  10
BRANCH   5  12
HETATM   12  O4  UNL     1      24.141   5.766  49.843  1.00  0.00    -0.352 OA
HETATM   13  C17 UNL     1      23.605   5.738  48.554  1.00  0.00     0.210 C 
ENDBRANCH   5  12
ENDBRANCH   1   2
BRANCH   1  14
HETATM   14  C6  UNL     1      26.189   1.333  54.155  1.00  0.00     0.167 C 
BRANCH  14  15
HETATM   15  C7  UNL     1      26.469  -0.087  54.511  1.00  0.00     0.145 C 
HETATM   16  O2  UNL     1      27.198  -0.845  53.792  1.00  0.00    -0.650 OA
BRANCH  15  17
HETATM   17  O3  UNL     1      25.921  -0.633  55.678  1.00  0.00    -0.776 OA
HETATM   18  H7  UNL     1      25.243  -0.044  56.165  1.00  0.00     0.167 HD
ENDBRANCH  15  17
ENDBRANCH  14  15
ENDBRANCH   1  14
BRANCH   1  19
HETATM   19  N1  UNL     1      24.348   0.303  52.972  1.00  0.00    -0.358 N 
HETATM   20  H8  UNL     1      25.049  -0.350  52.560  1.00  0.00     0.166 HD
BRANCH  19  21
HETATM   21  C8  UNL     1      23.012  -0.089  53.244  1.00  0.00     0.034 A 
HETATM   22  C9  UNL     1      22.765  -0.762  54.422  1.00  0.00     0.029 A 
HETATM   23  C10 UNL     1      21.469  -1.127  54.648  1.00  0.00     0.004 A 
HETATM   24  C11 UNL     1      20.480  -0.823  53.726  1.00  0.00     0.024 A 
HETATM   25  C12 UNL     1      20.708  -0.159  52.558  1.00  0.00     0.036 A 
HETATM   26 CL1  UNL     1      19.504   0.244  51.369  1.00  0.00    -0.084 Cl
HETATM   27  C13 UNL     1      22.013   0.210  52.328  1.00  0.00     0.053 A 
ENDBRANCH  19  21
ENDBRANCH   1  19
TORSDOF 8
ENDMDL
MODEL 5
REMARK VINA RESULT:      -7.3      3.136      7.392
REMARK  8 active torsions:
REMARK  status: ('A' for Active; 'I' for Inactive)
REMARK    1  A    between atoms: O1_2  and  C2_3 
REMARK    2  A    between atoms: C4_5  and  C5_6 
REMARK    3  A    between atoms: C5_6  and  C6_7 
REMARK    4  A    between atoms: C5_6  and  N1_11 
REMARK    5  A    between atoms: C6_7  and  C7_8 
REMARK    6  A    between atoms: C7_8  and  O3_10 
REMARK    7  A    between atoms: N1_11  and  C8_12 
REMARK    8  A    between atoms: C16_21  and  O4_22 
ROOT
HETATM    1  C5  UNL     1      23.248   0.073  53.019  1.00  0.00     0.032 C 
ENDROOT
BRANCH   1   2
HETATM    2  C4  UNL     1      24.488   0.583  52.922  1.00  0.00     0.019 A 
HETATM    3  C3  UNL     1      24.769   1.489  51.894  1.00  0.00     0.055 A 
HETATM    4  C2  UNL     1      26.049   1.991  51.844  1.00  0.00     0.103 A 
HETATM    5  C16 UNL     1      27.042   1.649  52.738  1.00  0.00     0.111 A 
HETATM    6  C15 UNL     1      26.699   0.739  53.742  1.00  0.00     0.027 A 
HETATM    7  C14 UNL     1      25.467   0.214  53.846  1.00  0.00     0.074 A 
HETATM    8  C18 UNL     1      27.113  -0.018  54.903  1.00  0.00     0.193 A 
HETATM    9  N2  UNL     1      25.763  -0.478  54.861  1.00  0.00    -0.283 NA
BRANCH   4  10
HETATM   10  O1  UNL     1      26.401   2.892  50.851  1.00  0.00    -0.353 OA
HETATM   11  C1  UNL     1      25.434   3.823  50.416  1.00  0.00     0.210 C 
ENDBRANCH   4  10
BRANCH   5  12
HETATM   12  O4  UNL     1      28.313   2.158  52.675  1.00  0.00    -0.352 OA
HETATM   13  C17 UNL     1      29.135   2.516  53.746  1.00  0.00     0.210 C 
ENDBRANCH   5  12
ENDBRANCH   1   2
BRANCH   1  14
HETATM   14  C6  UNL     1      22.834  -1.293  53.430  1.00  0.00     0.167 C 
BRANCH  14  15
HETATM   15  C7  UNL     1      22.283  -1.337  54.815  1.00  0.00     0.145 C 
HETATM   16  O2  UNL     1      21.101  -0.958  55.097  1.00  0.00    -0.650 OA
BRANCH  15  17
HETATM   17  O3  UNL     1      23.079  -1.811  55.865  1.00  0.00    -0.776 OA
HETATM   18  H7  UNL     1      23.033  -2.818  56.034  1.00  0.00     0.167 HD
ENDBRANCH  15  17
ENDBRANCH  14  15
ENDBRANCH   1  14
BRANCH   1  19
HETATM   19  N1  UNL     1      22.145   0.910  52.706  1.00  0.00    -0.358 N 
HETATM   20  H8  UNL     1      22.264   1.643  53.437  1.00  0.00     0.166 HD
BRANCH  19  21
HETATM   21  C8  UNL     1      21.091   0.945  51.757  1.00  0.00     0.034 A 
HETATM   22  C9  UNL     1      19.879   0.399  52.120  1.00  0.00     0.029 A 
HETATM   23  C10 UNL     1      18.889   0.446  51.180  1.00  0.00     0.004 A 
HETATM   24  C11 UNL     1      19.122   1.018  49.940  1.00  0.00     0.024 A 
HETATM   25  C12 UNL     1      20.315   1.562  49.565  1.00  0.00     0.036 A 
HETATM   26 CL1  UNL     1      20.659   2.290  48.023  1.00  0.00    -0.084 Cl
HETATM   27  C13 UNL     1      21.313   1.515  50.511  1.00  0.00     0.053 A 
ENDBRANCH  19  21
ENDBRANCH   1  19
TORSDOF 8
ENDMDL
MODEL 6
REMARK VINA RESULT:      -7.1      2.052      2.638
REMARK  8 active torsions:
REMARK  status: ('A' for Active; 'I' for Inactive)
REMARK    1  A    between atoms: O1_2  and  C2_3 
REMARK    2  A    between atoms: C4_5  and  C5_6 
REMARK    3  A    between atoms: C5_6  and  C6_7 
REMARK    4  A    between atoms: C5_6  and  N1_11 
REMARK    5  A    between atoms: C6_7  and  C7_8 
REMARK    6  A    between atoms: C7_8  and  O3_10 
REMARK    7  A    between atoms: N1_11  and  C8_12 
REMARK    8  A    between atoms: C16_21  and  O4_22 
ROOT
HETATM    1  C5  UNL     1      24.640   2.422  51.336  1.00  0.00     0.032 C 
ENDROOT
BRANCH   1   2
HETATM    2  C4  UNL     1      23.487   1.767  51.552  1.00  0.00     0.019 A 
HETATM    3  C3  UNL     1      23.198   1.311  52.843  1.00  0.00     0.055 A 
HETATM    4  C2  UNL     1      22.001   0.655  53.014  1.00  0.00     0.103 A 
HETATM    5  C16 UNL     1      21.095   0.433  51.998  1.00  0.00     0.111 A 
HETATM    6  C15 UNL     1      21.442   0.912  50.731  1.00  0.00     0.027 A 
HETATM    7  C14 UNL     1      22.595   1.561  50.499  1.00  0.00     0.074 A 
HETATM    8  C18 UNL     1      21.083   1.063  49.338  1.00  0.00     0.193 A 
HETATM    9  N2  UNL     1      22.346   1.723  49.270  1.00  0.00    -0.283 NA
BRANCH   4  10
HETATM   10  O1  UNL     1      21.648   0.173  54.265  1.00  0.00    -0.353 OA
HETATM   11  C1  UNL     1      22.298  -0.984  54.746  1.00  0.00     0.210 C 
ENDBRANCH   4  10
BRANCH   5  12
HETATM   12  O4  UNL     1      19.906  -0.222  52.185  1.00  0.00    -0.352 OA
HETATM   13  C17 UNL     1      18.660   0.119  51.653  1.00  0.00     0.210 C 
ENDBRANCH   5  12
ENDBRANCH   1   2
BRANCH   1  14
HETATM   14  C6  UNL     1      24.868   3.884  51.201  1.00  0.00     0.167 C 
BRANCH  14  15
HETATM   15  C7  UNL     1      25.768   4.225  50.063  1.00  0.00     0.145 C 
HETATM   16  O2  UNL     1      25.344   4.752  48.985  1.00  0.00    -0.650 OA
BRANCH  15  17
HETATM   17  O3  UNL     1      27.141   3.965  50.161  1.00  0.00    -0.776 OA
HETATM   18  H7  UNL     1      27.710   4.729  50.533  1.00  0.00     0.167 HD
ENDBRANCH  15  17
ENDBRANCH  14  15
ENDBRANCH   1  14
BRANCH   1  19
HETATM   19  N1  UNL     1      25.837   1.668  51.218  1.00  0.00    -0.358 N 
HETATM   20  H8  UNL     1      25.959   1.688  50.184  1.00  0.00     0.166 HD
BRANCH  19  21
HETATM   21  C8  UNL     1      26.748   1.005  52.080  1.00  0.00     0.034 A 
HETATM   22  C9  UNL     1      26.697  -0.372  52.136  1.00  0.00     0.029 A 
HETATM   23  C10 UNL     1      27.586  -0.975  52.979  1.00  0.00     0.004 A 
HETATM   24  C11 UNL     1      28.476  -0.218  53.723  1.00  0.00     0.024 A 
HETATM   25  C12 UNL     1      28.539   1.143  53.680  1.00  0.00     0.036 A 
HETATM   26 CL1  UNL     1      29.635   2.138  54.594  1.00  0.00    -0.084 Cl
HETATM   27  C13 UNL     1      27.645   1.753  52.831  1.00  0.00     0.053 A 
ENDBRANCH  19  21
ENDBRANCH   1  19
TORSDOF 8
ENDMDL
MODEL 7
REMARK VINA RESULT:      -7.1      2.978      3.825
REMARK  8 active torsions:
REMARK  status: ('A' for Active; 'I' for Inactive)
REMARK    1  A    between atoms: O1_2  and  C2_3 
REMARK    2  A    between atoms: C4_5  and  C5_6 
REMARK    3  A    between atoms: C5_6  and  C6_7 
REMARK    4  A    between atoms: C5_6  and  N1_11 
REMARK    5  A    between atoms: C6_7  and  C7_8 
REMARK    6  A    between atoms: C7_8  and  O3_10 
REMARK    7  A    between atoms: N1_11  and  C8_12 
REMARK    8  A    between atoms: C16_21  and  O4_22 
ROOT
HETATM    1  C5  UNL     1      24.250   0.323  52.905  1.00  0.00     0.032 C 
ENDROOT
BRANCH   1   2
HETATM    2  C4  UNL     1      23.144   1.071  52.759  1.00  0.00     0.019 A 
HETATM    3  C3  UNL     1      21.893   0.443  52.795  1.00  0.00     0.055 A 
HETATM    4  C2  UNL     1      20.790   1.253  52.652  1.00  0.00     0.103 A 
HETATM    5  C16 UNL     1      20.859   2.621  52.481  1.00  0.00     0.111 A 
HETATM    6  C15 UNL     1      22.137   3.187  52.453  1.00  0.00     0.027 A 
HETATM    7  C14 UNL     1      23.253   2.451  52.588  1.00  0.00     0.074 A 
HETATM    8  C18 UNL     1      22.945   4.380  52.332  1.00  0.00     0.193 A 
HETATM    9  N2  UNL     1      24.017   3.452  52.485  1.00  0.00    -0.283 NA
BRANCH   4  10
HETATM   10  O1  UNL     1      19.518   0.702  52.675  1.00  0.00    -0.353 OA
HETATM   11  C1  UNL     1      19.023   0.110  51.494  1.00  0.00     0.210 C 
ENDBRANCH   4  10
BRANCH   5  12
HETATM   12  O4  UNL     1      19.751   3.414  52.340  1.00  0.00    -0.352 OA
HETATM   13  C17 UNL     1      19.210   3.909  51.151  1.00  0.00     0.210 C 
ENDBRANCH   5  12
ENDBRANCH   1   2
BRANCH   1  14
HETATM   14  C6  UNL     1      24.383  -1.040  53.480  1.00  0.00     0.167 C 
BRANCH  14  15
HETATM   15  C7  UNL     1      24.348  -1.043  54.970  1.00  0.00     0.145 C 
HETATM   16  O2  UNL     1      23.280  -1.252  55.632  1.00  0.00    -0.650 OA
BRANCH  15  17
HETATM   17  O3  UNL     1      25.523  -0.810  55.694  1.00  0.00    -0.776 OA
HETATM   18  H7  UNL     1      25.565  -1.241  56.620  1.00  0.00     0.167 HD
ENDBRANCH  15  17
ENDBRANCH  14  15
ENDBRANCH   1  14
BRANCH   1  19
HETATM   19  N1  UNL     1      25.490   0.854  52.460  1.00  0.00    -0.358 N 
HETATM   20  H8  UNL     1      25.199   1.233  51.533  1.00  0.00     0.166 HD
BRANCH  19  21
HETATM   21  C8  UNL     1      26.820   0.957  52.940  1.00  0.00     0.034 A 
HETATM   22  C9  UNL     1      27.280   2.205  53.302  1.00  0.00     0.029 A 
HETATM   23  C10 UNL     1      28.567   2.267  53.756  1.00  0.00     0.004 A 
HETATM   24  C11 UNL     1      29.341   1.122  53.835  1.00  0.00     0.024 A 
HETATM   25  C12 UNL     1      28.902  -0.119  53.481  1.00  0.00     0.036 A 
HETATM   26 CL1  UNL     1      29.834  -1.587  53.562  1.00  0.00    -0.084 Cl
HETATM   27  C13 UNL     1      27.606  -0.185  53.024  1.00  0.00     0.053 A 
ENDBRANCH  19  21
ENDBRANCH   1  19
TORSDOF 8
ENDMDL
MODEL 8
REMARK VINA RESULT:      -7.1      2.548      4.049
REMARK  8 active torsions:
REMARK  status: ('A' for Active; 'I' for Inactive)
REMARK    1  A    between atoms: O1_2  and  C2_3 
REMARK    2  A    between atoms: C4_5  and  C5_6 
REMARK    3  A    between atoms: C5_6  and  C6_7 
REMARK    4  A    between atoms: C5_6  and  N1_11 
REMARK    5  A    between atoms: C6_7  and  C7_8 
REMARK    6  A    between atoms: C7_8  and  O3_10 
REMARK    7  A    between atoms: N1_11  and  C8_12 
REMARK    8  A    between atoms: C16_21  and  O4_22 
ROOT
HETATM    1  C5  UNL     1      23.383   1.371  52.233  1.00  0.00     0.032 C 
ENDROOT
BRANCH   1   2
HETATM    2  C4  UNL     1      22.177   0.857  52.524  1.00  0.00     0.019 A 
HETATM    3  C3  UNL     1      21.044   1.393  51.901  1.00  0.00     0.055 A 
HETATM    4  C2  UNL     1      19.833   0.826  52.224  1.00  0.00     0.103 A 
HETATM    5  C16 UNL     1      19.689  -0.221  53.111  1.00  0.00     0.111 A 
HETATM    6  C15 UNL     1      20.857  -0.711  53.701  1.00  0.00     0.027 A 
HETATM    7  C14 UNL     1      22.069  -0.201  53.427  1.00  0.00     0.074 A 
HETATM    8  C18 UNL     1      21.467  -1.660  54.607  1.00  0.00     0.193 A 
HETATM    9  N2  UNL     1      22.666  -0.998  54.206  1.00  0.00    -0.283 NA
BRANCH   4  10
HETATM   10  O1  UNL     1      18.668   1.306  51.648  1.00  0.00    -0.353 OA
HETATM   11  C1  UNL     1      18.465   2.702  51.607  1.00  0.00     0.210 C 
ENDBRANCH   4  10
BRANCH   5  12
HETATM   12  O4  UNL     1      18.474  -0.775  53.423  1.00  0.00    -0.352 OA
HETATM   13  C17 UNL     1      18.152  -2.134  53.469  1.00  0.00     0.210 C 
ENDBRANCH   5  12
ENDBRANCH   1   2
BRANCH   1  14
HETATM   14  C6  UNL     1      23.810   2.114  51.020  1.00  0.00     0.167 C 
BRANCH  14  15
HETATM   15  C7  UNL     1      24.275   3.498  51.325  1.00  0.00     0.145 C 
HETATM   16  O2  UNL     1      23.470   4.458  51.555  1.00  0.00    -0.650 OA
BRANCH  15  17
HETATM   17  O3  UNL     1      25.646   3.777  51.366  1.00  0.00    -0.776 OA
HETATM   18  H7  UNL     1      25.893   4.759  51.509  1.00  0.00     0.167 HD
ENDBRANCH  15  17
ENDBRANCH  14  15
ENDBRANCH   1  14
BRANCH   1  19
HETATM   19  N1  UNL     1      24.431   1.219  53.180  1.00  0.00    -0.358 N 
HETATM   20  H8  UNL     1      23.977   1.641  54.018  1.00  0.00     0.166 HD
BRANCH  19  21
HETATM   21  C8  UNL     1      25.749   0.695  53.211  1.00  0.00     0.034 A 
HETATM   22  C9  UNL     1      25.942  -0.593  52.761  1.00  0.00     0.029 A 
HETATM   23  C10 UNL     1      27.222  -1.065  52.811  1.00  0.00     0.004 A 
HETATM   24  C11 UNL     1      28.248  -0.269  53.293  1.00  0.00     0.024 A 
HETATM   25  C12 UNL     1      28.074   1.006  53.742  1.00  0.00     0.036 A 
HETATM   26 CL1  UNL     1      29.327   2.045  54.358  1.00  0.00    -0.084 Cl
HETATM   27  C13 UNL     1      26.785   1.484  53.693  1.00  0.00     0.053 A 
ENDBRANCH  19  21
ENDBRANCH   1  19
TORSDOF 8
ENDMDL
MODEL 9
REMARK VINA RESULT:      -7.0      3.309      4.746
REMARK  8 active torsions:
REMARK  status: ('A' for Active; 'I' for Inactive)
REMARK    1  A    between atoms: O1_2  and  C2_3 
REMARK    2  A    between atoms: C4_5  and  C5_6 
REMARK    3  A    between atoms: C5_6  and  C6_7 
REMARK    4  A    between atoms: C5_6  and  N1_11 
REMARK    5  A    between atoms: C6_7  and  C7_8 
REMARK    6  A    between atoms: C7_8  and  O3_10 
REMARK    7  A    between atoms: N1_11  and  C8_12 
REMARK    8  A    between atoms: C16_21  and  O4_22 
ROOT
HETATM    1  C5  UNL     1      24.230   2.233  51.837  1.00  0.00     0.032 C 
ENDROOT
BRANCH   1   2
HETATM    2  C4  UNL     1      23.039   1.612  51.786  1.00  0.00     0.019 A 
HETATM    3  C3  UNL     1      22.501   1.082  52.964  1.00  0.00     0.055 A 
HETATM    4  C2  UNL     1      21.275   0.465  52.862  1.00  0.00     0.103 A 
HETATM    5  C16 UNL     1      20.571   0.349  51.681  1.00  0.00     0.111 A 
HETATM    6  C15 UNL     1      21.163   0.897  50.539  1.00  0.00     0.027 A 
HETATM    7  C14 UNL     1      22.356   1.513  50.573  1.00  0.00     0.074 A 
HETATM    8  C18 UNL     1      21.077   1.154  49.118  1.00  0.00     0.193 A 
HETATM    9  N2  UNL     1      22.347   1.766  49.335  1.00  0.00    -0.283 NA
BRANCH   4  10
HETATM   10  O1  UNL     1      20.681  -0.084  53.987  1.00  0.00    -0.353 OA
HETATM   11  C1  UNL     1      21.185  -1.305  54.483  1.00  0.00     0.210 C 
ENDBRANCH   4  10
BRANCH   5  12
HETATM   12  O4  UNL     1      19.351  -0.269  51.595  1.00  0.00    -0.352 OA
HETATM   13  C17 UNL     1      18.099   0.343  51.486  1.00  0.00     0.210 C 
ENDBRANCH   5  12
ENDBRANCH   1   2
BRANCH   1  14
HETATM   14  C6  UNL     1      24.982   2.706  53.027  1.00  0.00     0.167 C 
BRANCH  14  15
HETATM   15  C7  UNL     1      26.321   2.065  53.156  1.00  0.00     0.145 C 
HETATM   16  O2  UNL     1      26.640   1.006  52.523  1.00  0.00    -0.650 OA
BRANCH  15  17
HETATM   17  O3  UNL     1      27.285   2.630  53.999  1.00  0.00    -0.776 OA
HETATM   18  H7  UNL     1      28.208   2.771  53.584  1.00  0.00     0.167 HD
ENDBRANCH  15  17
ENDBRANCH  14  15
ENDBRANCH   1  14
BRANCH   1  19
HETATM   19  N1  UNL     1      24.911   2.493  50.619  1.00  0.00    -0.358 N 
HETATM   20  H8  UNL     1      24.972   1.524  50.238  1.00  0.00     0.166 HD
BRANCH  19  21
HETATM   21  C8  UNL     1      25.437   3.615  49.929  1.00  0.00     0.034 A 
HETATM   22  C9  UNL     1      26.764   3.580  49.557  1.00  0.00     0.029 A 
HETATM   23  C10 UNL     1      27.236   4.680  48.899  1.00  0.00     0.004 A 
HETATM   24  C11 UNL     1      26.403   5.755  48.636  1.00  0.00     0.024 A 
HETATM   25  C12 UNL     1      25.090   5.806  48.998  1.00  0.00     0.036 A 
HETATM   26 CL1  UNL     1      24.004   7.131  48.693  1.00  0.00    -0.084 Cl
HETATM   27  C13 UNL     1      24.612   4.699  49.660  1.00  0.00     0.053 A 
ENDBRANCH  19  21
ENDBRANCH   1  19
TORSDOF 8
ENDMDL
