MODEL 1
REMARK VINA RESULT:      -7.4      0.000      0.000
REMARK  5 active torsions:
REMARK  status: ('A' for Active; 'I' for Inactive)
REMARK    1  A    between atoms: C3_3  and  C4_4 
REMARK    2  A    between atoms: C10_12  and  N3_13 
REMARK    3  A    between atoms: N3_13  and  C12_15 
REMARK    4  A    between atoms: C13_16  and  C14_17 
REMARK    5  A    between atoms: C16_20  and  O2_21 
ROOT
HETATM    1  C4  UNL     1      27.998   1.817  52.716  1.00  0.00     0.032 C 
HETATM    2  C5  UNL     1      26.749   2.105  52.459  1.00  0.00     0.062 C 
HETATM    3  N1  UNL     1      26.582   3.089  51.417  1.00  0.00    -0.367 N 
HETATM    4  C6  UNL     1      25.272   3.479  51.006  1.00  0.00     0.176 C 
HETATM    5  C7  UNL     1      25.352   4.527  49.897  1.00  0.00     0.055 C 
HETATM    6  N2  UNL     1      24.525   4.135  52.069  1.00  0.00    -0.379 N 
HETATM    7  C8  UNL     1      23.260   4.370  51.492  1.00  0.00     0.083 C 
HETATM    8  C9  UNL     1      22.674   3.279  51.890  1.00  0.00     0.019 C 
HETATM    9  C10 UNL     1      22.888   2.033  52.659  1.00  0.00     0.133 C 
HETATM   10  C15 UNL     1      24.307   1.808  52.845  1.00  0.00     0.041 C 
HETATM   11  C16 UNL     1      25.587   1.477  53.141  1.00  0.00     0.090 C 
HETATM   12  H7  UNL     1      27.390   3.537  50.942  1.00  0.00     0.161 HD
HETATM   13  H12 UNL     1      24.656   4.449  53.039  1.00  0.00     0.161 HD
ENDROOT
BRANCH   9  14
HETATM   14  N3  UNL     1      22.163   0.926  52.042  1.00  0.00    -0.383 N 
HETATM   15  C11 UNL     1      21.607   0.917  50.729  1.00  0.00     0.150 C 
BRANCH  14  16
HETATM   16  C12 UNL     1      21.954  -0.289  52.750  1.00  0.00     0.089 C 
HETATM   17  C13 UNL     1      21.481  -0.338  53.980  1.00  0.00     0.058 C 
BRANCH  17  18
HETATM   18  C14 UNL     1      21.316  -1.643  54.582  1.00  0.00     0.260 C 
HETATM   19  O1  UNL     1      22.293  -1.856  55.333  1.00  0.00    -0.302 OA
ENDBRANCH  17  18
ENDBRANCH  14  16
ENDBRANCH   9  14
BRANCH  11  20
HETATM   20  O2  UNL     1      26.106   0.552  54.077  1.00  0.00    -0.359 OA
HETATM   21  H23 UNL     1      25.597   0.344  54.906  1.00  0.00     0.217 HD
ENDBRANCH  11  20
BRANCH   1  22
HETATM   22  C3  UNL     1      28.568   0.877  53.693  1.00  0.00    -0.002 C 
HETATM   23  C2  UNL     1      29.369  -0.108  53.316  1.00  0.00    -0.031 C 
HETATM   24  C1  UNL     1      30.106  -1.205  53.960  1.00  0.00     0.036 C 
ENDBRANCH   1  22
TORSDOF 5
ENDMDL
MODEL 2
REMARK VINA RESULT:      -6.9      2.110      4.911
REMARK  5 active torsions:
REMARK  status: ('A' for Active; 'I' for Inactive)
REMARK    1  A    between atoms: C3_3  and  C4_4 
REMARK    2  A    between atoms: C10_12  and  N3_13 
REMARK    3  A    between atoms: N3_13  and  C12_15 
REMARK    4  A    between atoms: C13_16  and  C14_17 
REMARK    5  A    between atoms: C16_20  and  O2_21 
ROOT
HETATM    1  C4  UNL     1      26.104  -0.888  53.395  1.00  0.00     0.032 C 
HETATM    2  C5  UNL     1      25.137  -0.103  52.995  1.00  0.00     0.062 C 
HETATM    3  N1  UNL     1      23.895  -0.308  53.700  1.00  0.00    -0.367 N 
HETATM    4  C6  UNL     1      22.758   0.500  53.392  1.00  0.00     0.176 C 
HETATM    5  C7  UNL     1      21.570   0.098  54.262  1.00  0.00     0.055 C 
HETATM    6  N2  UNL     1      22.290   0.309  52.028  1.00  0.00    -0.379 N 
HETATM    7  C8  UNL     1      21.230   1.231  51.908  1.00  0.00     0.083 C 
HETATM    8  C9  UNL     1      21.912   2.228  51.425  1.00  0.00     0.019 C 
HETATM    9  C10 UNL     1      23.272   2.644  51.016  1.00  0.00     0.133 C 
HETATM   10  C15 UNL     1      24.251   1.719  51.549  1.00  0.00     0.041 C 
HETATM   11  C16 UNL     1      25.281   0.928  51.935  1.00  0.00     0.090 C 
HETATM   12  H7  UNL     1      23.787  -1.032  54.436  1.00  0.00     0.161 HD
HETATM   13  H12 UNL     1      22.497  -0.267  51.202  1.00  0.00     0.161 HD
ENDROOT
BRANCH   9  14
HETATM   14  N3  UNL     1      23.497   4.046  51.357  1.00  0.00    -0.383 N 
HETATM   15  C11 UNL     1      22.707   4.828  52.251  1.00  0.00     0.150 C 
BRANCH  14  16
HETATM   16  C12 UNL     1      24.584   4.766  50.792  1.00  0.00     0.089 C 
HETATM   17  C13 UNL     1      25.012   4.579  49.558  1.00  0.00     0.058 C 
BRANCH  17  18
HETATM   18  C14 UNL     1      26.130   5.381  49.109  1.00  0.00     0.260 C 
HETATM   19  O1  UNL     1      27.064   4.612  48.794  1.00  0.00    -0.302 OA
ENDBRANCH  17  18
ENDBRANCH  14  16
ENDBRANCH   9  14
BRANCH  11  20
HETATM   20  O2  UNL     1      26.620   0.875  51.482  1.00  0.00    -0.359 OA
HETATM   21  H23 UNL     1      27.224   1.652  51.622  1.00  0.00     0.217 HD
ENDBRANCH  11  20
BRANCH   1  22
HETATM   22  C3  UNL     1      27.497  -0.982  52.931  1.00  0.00    -0.002 C 
HETATM   23  C2  UNL     1      28.511  -0.694  53.732  1.00  0.00    -0.031 C 
HETATM   24  C1  UNL     1      29.978  -0.666  53.648  1.00  0.00     0.036 C 
ENDBRANCH   1  22
TORSDOF 5
ENDMDL
MODEL 3
REMARK VINA RESULT:      -6.9      2.397      4.619
REMARK  5 active torsions:
REMARK  status: ('A' for Active; 'I' for Inactive)
REMARK    1  A    between atoms: C3_3  and  C4_4 
REMARK    2  A    between atoms: C10_12  and  N3_13 
REMARK    3  A    between atoms: N3_13  and  C12_15 
REMARK    4  A    between atoms: C13_16  and  C14_17 
REMARK    5  A    between atoms: C16_20  and  O2_21 
ROOT
HETATM    1  C4  UNL     1      25.955   4.276  48.992  1.00  0.00     0.032 C 
HETATM    2  C5  UNL     1      25.201   3.638  49.849  1.00  0.00     0.062 C 
HETATM    3  N1  UNL     1      23.815   3.561  49.457  1.00  0.00    -0.367 N 
HETATM    4  C6  UNL     1      22.877   2.865  50.280  1.00  0.00     0.176 C 
HETATM    5  C7  UNL     1      21.483   2.922  49.661  1.00  0.00     0.055 C 
HETATM    6  N2  UNL     1      22.718   3.481  51.589  1.00  0.00    -0.379 N 
HETATM    7  C8  UNL     1      21.825   2.618  52.256  1.00  0.00     0.083 C 
HETATM    8  C9  UNL     1      22.707   1.857  52.834  1.00  0.00     0.019 C 
HETATM    9  C10 UNL     1      24.162   1.640  52.992  1.00  0.00     0.133 C 
HETATM   10  C15 UNL     1      24.882   2.367  51.966  1.00  0.00     0.041 C 
HETATM   11  C16 UNL     1      25.700   3.018  51.104  1.00  0.00     0.090 C 
HETATM   12  H7  UNL     1      23.459   3.999  48.586  1.00  0.00     0.161 HD
HETATM   13  H12 UNL     1      23.046   4.302  52.113  1.00  0.00     0.161 HD
ENDROOT
BRANCH   9  14
HETATM   14  N3  UNL     1      24.457   0.212  53.058  1.00  0.00    -0.383 N 
HETATM   15  C11 UNL     1      23.541  -0.817  53.429  1.00  0.00     0.150 C 
BRANCH  14  16
HETATM   16  C12 UNL     1      25.752  -0.278  52.736  1.00  0.00     0.089 C 
HETATM   17  C13 UNL     1      26.810  -0.084  53.499  1.00  0.00     0.058 C 
BRANCH  17  18
HETATM   18  C14 UNL     1      28.069  -0.639  53.051  1.00  0.00     0.260 C 
HETATM   19  O1  UNL     1      28.445  -1.488  53.888  1.00  0.00    -0.302 OA
ENDBRANCH  17  18
ENDBRANCH  14  16
ENDBRANCH   9  14
BRANCH  11  20
HETATM   20  O2  UNL     1      27.093   3.258  51.161  1.00  0.00    -0.359 OA
HETATM   21  H23 UNL     1      27.650   3.148  50.345  1.00  0.00     0.217 HD
ENDBRANCH  11  20
BRANCH   1  22
HETATM   22  C3  UNL     1      27.398   4.559  49.033  1.00  0.00    -0.002 C 
HETATM   23  C2  UNL     1      27.918   5.583  48.374  1.00  0.00    -0.031 C 
HETATM   24  C1  UNL     1      29.250   6.172  48.173  1.00  0.00     0.036 C 
ENDBRANCH   1  22
TORSDOF 5
ENDMDL
MODEL 4
REMARK VINA RESULT:      -6.8      2.168      4.945
REMARK  5 active torsions:
REMARK  status: ('A' for Active; 'I' for Inactive)
REMARK    1  A    between atoms: C3_3  and  C4_4 
REMARK    2  A    between atoms: C10_12  and  N3_13 
REMARK    3  A    between atoms: N3_13  and  C12_15 
REMARK    4  A    between atoms: C13_16  and  C14_17 
REMARK    5  A    between atoms: C16_20  and  O2_21 
ROOT
HETATM    1  C4  UNL     1      25.223   3.871  50.596  1.00  0.00     0.032 C 
HETATM    2  C5  UNL     1      25.526   2.843  51.346  1.00  0.00     0.062 C 
HETATM    3  N1  UNL     1      26.783   2.981  52.040  1.00  0.00    -0.367 N 
HETATM    4  C6  UNL     1      27.230   1.950  52.921  1.00  0.00     0.176 C 
HETATM    5  C7  UNL     1      28.578   2.322  53.534  1.00  0.00     0.055 C 
HETATM    6  N2  UNL     1      27.480   0.695  52.230  1.00  0.00    -0.379 N 
HETATM    7  C8  UNL     1      27.835  -0.192  53.267  1.00  0.00     0.083 C 
HETATM    8  C9  UNL     1      26.651  -0.676  53.504  1.00  0.00     0.019 C 
HETATM    9  C10 UNL     1      25.235  -0.599  53.082  1.00  0.00     0.133 C 
HETATM   10  C15 UNL     1      25.021   0.597  52.293  1.00  0.00     0.041 C 
HETATM   11  C16 UNL     1      24.666   1.641  51.507  1.00  0.00     0.090 C 
HETATM   12  H7  UNL     1      27.391   3.815  51.925  1.00  0.00     0.161 HD
HETATM   13  H12 UNL     1      27.474   0.311  51.276  1.00  0.00     0.161 HD
ENDROOT
BRANCH   9  14
HETATM   14  N3  UNL     1      24.353  -0.742  54.238  1.00  0.00    -0.383 N 
HETATM   15  C11 UNL     1      24.756  -1.087  55.562  1.00  0.00     0.150 C 
BRANCH  14  16
HETATM   16  C12 UNL     1      22.953  -0.531  54.114  1.00  0.00     0.089 C 
HETATM   17  C13 UNL     1      22.054  -1.451  54.405  1.00  0.00     0.058 C 
BRANCH  17  18
HETATM   18  C14 UNL     1      20.660  -1.103  54.234  1.00  0.00     0.260 C 
HETATM   19  O1  UNL     1      20.554   0.141  54.308  1.00  0.00    -0.302 OA
ENDBRANCH  17  18
ENDBRANCH  14  16
ENDBRANCH   9  14
BRANCH  11  20
HETATM   20  O2  UNL     1      23.512   1.847  50.715  1.00  0.00    -0.359 OA
HETATM   21  H23 UNL     1      23.571   1.781  49.724  1.00  0.00     0.217 HD
ENDBRANCH  11  20
BRANCH   1  22
HETATM   22  C3  UNL     1      24.044   4.105  49.747  1.00  0.00    -0.002 C 
HETATM   23  C2  UNL     1      24.049   5.033  48.803  1.00  0.00    -0.031 C 
HETATM   24  C1  UNL     1      23.114   5.548  47.793  1.00  0.00     0.036 C 
ENDBRANCH   1  22
TORSDOF 5
ENDMDL
MODEL 5
REMARK VINA RESULT:      -6.7      2.685      6.666
REMARK  5 active torsions:
REMARK  status: ('A' for Active; 'I' for Inactive)
REMARK    1  A    between atoms: C3_3  and  C4_4 
REMARK    2  A    between atoms: C10_12  and  N3_13 
REMARK    3  A    between atoms: N3_13  and  C12_15 
REMARK    4  A    between atoms: C13_16  and  C14_17 
REMARK    5  A    between atoms: C16_20  and  O2_21 
ROOT
HETATM    1  C4  UNL     1      22.250  -0.864  53.886  1.00  0.00     0.032 C 
HETATM    2  C5  UNL     1      23.262  -0.178  53.421  1.00  0.00     0.062 C 
HETATM    3  N1  UNL     1      24.501  -0.915  53.397  1.00  0.00    -0.367 N 
HETATM    4  C6  UNL     1      25.686  -0.305  52.884  1.00  0.00     0.176 C 
HETATM    5  C7  UNL     1      26.862  -1.276  52.964  1.00  0.00     0.055 C 
HETATM    6  N2  UNL     1      26.110   0.842  53.673  1.00  0.00    -0.379 N 
HETATM    7  C8  UNL     1      27.230   1.333  52.972  1.00  0.00     0.083 C 
HETATM    8  C9  UNL     1      26.611   2.202  52.228  1.00  0.00     0.019 C 
HETATM    9  C10 UNL     1      25.276   2.765  51.926  1.00  0.00     0.133 C 
HETATM   10  C15 UNL     1      24.245   1.898  52.460  1.00  0.00     0.041 C 
HETATM   11  C16 UNL     1      23.170   1.223  52.932  1.00  0.00     0.090 C 
HETATM   12  H7  UNL     1      24.573  -1.891  53.744  1.00  0.00     0.161 HD
HETATM   13  H12 UNL     1      25.843   1.346  54.529  1.00  0.00     0.161 HD
ENDROOT
BRANCH   9  14
HETATM   14  N3  UNL     1      25.160   3.056  50.500  1.00  0.00    -0.383 N 
HETATM   15  C11 UNL     1      23.965   2.983  49.725  1.00  0.00     0.150 C 
BRANCH  14  16
HETATM   16  C12 UNL     1      26.295   3.460  49.746  1.00  0.00     0.089 C 
HETATM   17  C13 UNL     1      26.466   4.688  49.297  1.00  0.00     0.058 C 
BRANCH  17  18
HETATM   18  C14 UNL     1      27.670   4.963  48.542  1.00  0.00     0.260 C 
HETATM   19  O1  UNL     1      27.972   6.164  48.708  1.00  0.00    -0.302 OA
ENDBRANCH  17  18
ENDBRANCH  14  16
ENDBRANCH   9  14
BRANCH  11  20
HETATM   20  O2  UNL     1      21.821   1.624  53.074  1.00  0.00    -0.359 OA
HETATM   21  H23 UNL     1      21.576   2.320  53.741  1.00  0.00     0.217 HD
ENDBRANCH  11  20
BRANCH   1  22
HETATM   22  C3  UNL     1      20.844  -0.469  54.064  1.00  0.00    -0.002 C 
HETATM   23  C2  UNL     1      19.862  -1.132  53.474  1.00  0.00    -0.031 C 
HETATM   24  C1  UNL     1      18.395  -1.054  53.407  1.00  0.00     0.036 C 
ENDBRANCH   1  22
TORSDOF 5
ENDMDL
MODEL 6
REMARK VINA RESULT:      -6.6      2.499      3.048
REMARK  5 active torsions:
REMARK  status: ('A' for Active; 'I' for Inactive)
REMARK    1  A    between atoms: C3_3  and  C4_4 
REMARK    2  A    between atoms: C10_12  and  N3_13 
REMARK    3  A    between atoms: N3_13  and  C12_15 
REMARK    4  A    between atoms: C13_16  and  C14_17 
REMARK    5  A    between atoms: C16_20  and  O2_21 
ROOT
HETATM    1  C4  UNL     1      26.201   0.414  52.436  1.00  0.00     0.032 C 
HETATM    2  C5  UNL     1      24.916   0.650  52.497  1.00  0.00     0.062 C 
HETATM    3  N1  UNL     1      24.410   1.398  51.373  1.00  0.00    -0.367 N 
HETATM    4  C6  UNL     1      23.017   1.704  51.286  1.00  0.00     0.176 C 
HETATM    5  C7  UNL     1      22.725   2.499  50.016  1.00  0.00     0.055 C 
HETATM    6  N2  UNL     1      22.568   2.569  52.366  1.00  0.00    -0.379 N 
HETATM    7  C8  UNL     1      21.181   2.687  52.142  1.00  0.00     0.083 C 
HETATM    8  C9  UNL     1      20.790   1.706  52.902  1.00  0.00     0.019 C 
HETATM    9  C10 UNL     1      21.279   0.645  53.809  1.00  0.00     0.133 C 
HETATM   10  C15 UNL     1      22.703   0.454  53.620  1.00  0.00     0.041 C 
HETATM   11  C16 UNL     1      24.030   0.184  53.596  1.00  0.00     0.090 C 
HETATM   12  H7  UNL     1      25.025   1.733  50.606  1.00  0.00     0.161 HD
HETATM   13  H12 UNL     1      22.950   3.077  53.174  1.00  0.00     0.161 HD
ENDROOT
BRANCH   9  14
HETATM   14  N3  UNL     1      20.470  -0.561  53.661  1.00  0.00    -0.383 N 
HETATM   15  C11 UNL     1      20.802  -1.859  54.151  1.00  0.00     0.150 C 
BRANCH  14  16
HETATM   16  C12 UNL     1      19.222  -0.520  52.981  1.00  0.00     0.089 C 
HETATM   17  C13 UNL     1      18.182  -1.251  53.332  1.00  0.00     0.058 C 
BRANCH  17  18
HETATM   18  C14 UNL     1      16.972  -1.110  52.552  1.00  0.00     0.260 C 
HETATM   19  O1  UNL     1      17.144  -0.193  51.721  1.00  0.00    -0.302 OA
ENDBRANCH  17  18
ENDBRANCH  14  16
ENDBRANCH   9  14
BRANCH  11  20
HETATM   20  O2  UNL     1      24.841  -0.532  54.508  1.00  0.00    -0.359 OA
HETATM   21  H23 UNL     1      24.670  -1.497  54.673  1.00  0.00     0.217 HD
ENDBRANCH  11  20
BRANCH   1  22
HETATM   22  C3  UNL     1      27.074  -0.308  53.376  1.00  0.00    -0.002 C 
HETATM   23  C2  UNL     1      28.367  -0.460  53.136  1.00  0.00    -0.031 C 
HETATM   24  C1  UNL     1      29.520  -1.087  53.799  1.00  0.00     0.036 C 
ENDBRANCH   1  22
TORSDOF 5
ENDMDL
MODEL 7
REMARK VINA RESULT:      -6.5      1.761      2.275
REMARK  5 active torsions:
REMARK  status: ('A' for Active; 'I' for Inactive)
REMARK    1  A    between atoms: C3_3  and  C4_4 
REMARK    2  A    between atoms: C10_12  and  N3_13 
REMARK    3  A    between atoms: N3_13  and  C12_15 
REMARK    4  A    between atoms: C13_16  and  C14_17 
REMARK    5  A    between atoms: C16_20  and  O2_21 
ROOT
HETATM    1  C4  UNL     1      28.013   1.662  52.808  1.00  0.00     0.032 C 
HETATM    2  C5  UNL     1      26.747   1.918  52.601  1.00  0.00     0.062 C 
HETATM    3  N1  UNL     1      26.514   2.899  51.569  1.00  0.00    -0.367 N 
HETATM    4  C6  UNL     1      25.179   3.257  51.211  1.00  0.00     0.176 C 
HETATM    5  C7  UNL     1      25.189   4.307  50.102  1.00  0.00     0.055 C 
HETATM    6  N2  UNL     1      24.459   3.891  52.304  1.00  0.00    -0.379 N 
HETATM    7  C8  UNL     1      23.167   4.094  51.777  1.00  0.00     0.083 C 
HETATM    8  C9  UNL     1      22.624   2.989  52.196  1.00  0.00     0.019 C 
HETATM    9  C10 UNL     1      22.900   1.748  52.953  1.00  0.00     0.133 C 
HETATM   10  C15 UNL     1      24.331   1.558  53.083  1.00  0.00     0.041 C 
HETATM   11  C16 UNL     1      25.630   1.260  53.327  1.00  0.00     0.090 C 
HETATM   12  H7  UNL     1      27.291   3.368  51.064  1.00  0.00     0.161 HD
HETATM   13  H12 UNL     1      24.619   4.208  53.269  1.00  0.00     0.161 HD
ENDROOT
BRANCH   9  14
HETATM   14  N3  UNL     1      22.180   0.623  52.363  1.00  0.00    -0.383 N 
HETATM   15  C11 UNL     1      22.222  -0.729  52.814  1.00  0.00     0.150 C 
BRANCH  14  16
HETATM   16  C12 UNL     1      21.337   0.813  51.234  1.00  0.00     0.089 C 
HETATM   17  C13 UNL     1      20.024   0.692  51.283  1.00  0.00     0.058 C 
BRANCH  17  18
HETATM   18  C14 UNL     1      19.286   0.913  50.058  1.00  0.00     0.260 C 
HETATM   19  O1  UNL     1      19.913   1.744  49.366  1.00  0.00    -0.302 OA
ENDBRANCH  17  18
ENDBRANCH  14  16
ENDBRANCH   9  14
BRANCH  11  20
HETATM   20  O2  UNL     1      26.208   0.346  54.239  1.00  0.00    -0.359 OA
HETATM   21  H23 UNL     1      26.980  -0.215  53.958  1.00  0.00     0.217 HD
ENDBRANCH  11  20
BRANCH   1  22
HETATM   22  C3  UNL     1      28.644   0.735  53.760  1.00  0.00    -0.002 C 
HETATM   23  C2  UNL     1      29.384  -0.281  53.344  1.00  0.00    -0.031 C 
HETATM   24  C1  UNL     1      30.149  -1.379  53.954  1.00  0.00     0.036 C 
ENDBRANCH   1  22
TORSDOF 5
ENDMDL
MODEL 8
REMARK VINA RESULT:      -6.5      3.142      3.910
REMARK  5 active torsions:
REMARK  status: ('A' for Active; 'I' for Inactive)
REMARK    1  A    between atoms: C3_3  and  C4_4 
REMARK    2  A    between atoms: C10_12  and  N3_13 
REMARK    3  A    between atoms: N3_13  and  C12_15 
REMARK    4  A    between atoms: C13_16  and  C14_17 
REMARK    5  A    between atoms: C16_20  and  O2_21 
ROOT
HETATM    1  C4  UNL     1      26.628   2.140  51.421  1.00  0.00     0.032 C 
HETATM    2  C5  UNL     1      25.870   3.173  51.157  1.00  0.00     0.062 C 
HETATM    3  N1  UNL     1      26.437   4.076  50.186  1.00  0.00    -0.367 N 
HETATM    4  C6  UNL     1      25.708   5.233  49.774  1.00  0.00     0.176 C 
HETATM    5  C7  UNL     1      26.509   6.029  48.747  1.00  0.00     0.055 C 
HETATM    6  N2  UNL     1      25.485   6.170  50.865  1.00  0.00    -0.379 N 
HETATM    7  C8  UNL     1      24.702   7.184  50.277  1.00  0.00     0.083 C 
HETATM    8  C9  UNL     1      23.530   6.708  50.581  1.00  0.00     0.019 C 
HETATM    9  C10 UNL     1      22.850   5.585  51.263  1.00  0.00     0.133 C 
HETATM   10  C15 UNL     1      23.783   4.495  51.464  1.00  0.00     0.041 C 
HETATM   11  C16 UNL     1      24.534   3.409  51.765  1.00  0.00     0.090 C 
HETATM   12  H7  UNL     1      27.373   3.921  49.764  1.00  0.00     0.161 HD
HETATM   13  H12 UNL     1      25.724   6.288  51.857  1.00  0.00     0.161 HD
ENDROOT
BRANCH   9  14
HETATM   14  N3  UNL     1      21.627   5.226  50.550  1.00  0.00    -0.383 N 
HETATM   15  C11 UNL     1      21.266   5.652  49.237  1.00  0.00     0.150 C 
BRANCH  14  16
HETATM   16  C12 UNL     1      20.658   4.377  51.151  1.00  0.00     0.089 C 
HETATM   17  C13 UNL     1      19.690   3.790  50.474  1.00  0.00     0.058 C 
BRANCH  17  18
HETATM   18  C14 UNL     1      18.772   2.951  51.212  1.00  0.00     0.260 C 
HETATM   19  O1  UNL     1      18.193   3.657  52.066  1.00  0.00    -0.302 OA
ENDBRANCH  17  18
ENDBRANCH  14  16
ENDBRANCH   9  14
BRANCH  11  20
HETATM   20  O2  UNL     1      24.281   2.328  52.642  1.00  0.00    -0.359 OA
HETATM   21  H23 UNL     1      24.588   1.412  52.405  1.00  0.00     0.217 HD
ENDBRANCH  11  20
BRANCH   1  22
HETATM   22  C3  UNL     1      26.402   1.015  52.341  1.00  0.00    -0.002 C 
HETATM   23  C2  UNL     1      26.725  -0.225  52.005  1.00  0.00    -0.031 C 
HETATM   24  C1  UNL     1      26.660  -1.560  52.617  1.00  0.00     0.036 C 
ENDBRANCH   1  22
TORSDOF 5
ENDMDL
MODEL 9
REMARK VINA RESULT:      -6.4      2.054      2.530
REMARK  5 active torsions:
REMARK  status: ('A' for Active; 'I' for Inactive)
REMARK    1  A    between atoms: C3_3  and  C4_4 
REMARK    2  A    between atoms: C10_12  and  N3_13 
REMARK    3  A    between atoms: N3_13  and  C12_15 
REMARK    4  A    between atoms: C13_16  and  C14_17 
REMARK    5  A    between atoms: C16_20  and  O2_21 
ROOT
HETATM    1  C4  UNL     1      26.652   2.022  51.567  1.00  0.00     0.032 C 
HETATM    2  C5  UNL     1      25.643   2.851  51.499  1.00  0.00     0.062 C 
HETATM    3  N1  UNL     1      25.756   3.818  50.434  1.00  0.00    -0.367 N 
HETATM    4  C6  UNL     1      24.712   4.768  50.218  1.00  0.00     0.176 C 
HETATM    5  C7  UNL     1      25.059   5.679  49.043  1.00  0.00     0.055 C 
HETATM    6  N2  UNL     1      24.541   5.675  51.342  1.00  0.00    -0.379 N 
HETATM    7  C8  UNL     1      23.438   6.468  50.965  1.00  0.00     0.083 C 
HETATM    8  C9  UNL     1      22.504   5.758  51.526  1.00  0.00     0.019 C 
HETATM    9  C10 UNL     1      22.266   4.540  52.332  1.00  0.00     0.133 C 
HETATM   10  C15 UNL     1      23.440   3.691  52.298  1.00  0.00     0.041 C 
HETATM   11  C16 UNL     1      24.464   2.810  52.403  1.00  0.00     0.090 C 
HETATM   12  H7  UNL     1      26.581   3.856  49.805  1.00  0.00     0.161 HD
HETATM   13  H12 UNL     1      24.968   5.882  52.254  1.00  0.00     0.161 HD
ENDROOT
BRANCH   9  14
HETATM   14  N3  UNL     1      21.024   3.893  51.918  1.00  0.00    -0.383 N 
HETATM   15  C11 UNL     1      20.140   4.352  50.898  1.00  0.00     0.150 C 
BRANCH  14  16
HETATM   16  C12 UNL     1      20.590   2.689  52.538  1.00  0.00     0.089 C 
HETATM   17  C13 UNL     1      20.486   1.542  51.897  1.00  0.00     0.058 C 
BRANCH  17  18
HETATM   18  C14 UNL     1      20.032   0.393  52.650  1.00  0.00     0.260 C 
HETATM   19  O1  UNL     1      20.412   0.524  53.834  1.00  0.00    -0.302 OA
ENDBRANCH  17  18
ENDBRANCH  14  16
ENDBRANCH   9  14
BRANCH  11  20
HETATM   20  O2  UNL     1      24.666   1.736  53.301  1.00  0.00    -0.359 OA
HETATM   21  H23 UNL     1      24.478   0.804  53.012  1.00  0.00     0.217 HD
ENDBRANCH  11  20
BRANCH   1  22
HETATM   22  C3  UNL     1      26.900   0.912  52.500  1.00  0.00    -0.002 C 
HETATM   23  C2  UNL     1      26.806  -0.350  52.109  1.00  0.00    -0.031 C 
HETATM   24  C1  UNL     1      26.970  -1.681  52.712  1.00  0.00     0.036 C 
ENDBRANCH   1  22
TORSDOF 5
ENDMDL
