MODEL 1
REMARK VINA RESULT:      -9.8      0.000      0.000
REMARK  2 active torsions:
REMARK  status: ('A' for Active; 'I' for Inactive)
REMARK    1  A    between atoms: N1_11  and  C10_12 
REMARK    2  A    between atoms: C10_12  and  N2_13 
ROOT
HETATM    1  C1  UNL     1      22.417  -0.547  54.547  1.00  0.00     0.012 C 
HETATM    2  C2  UNL     1      23.652  -0.164  53.826  1.00  0.00     0.002 C 
HETATM    3  C3  UNL     1      24.775  -1.109  53.977  1.00  0.00     0.033 C 
HETATM    4  C4  UNL     1      25.911  -0.861  53.028  1.00  0.00    -0.026 C 
HETATM    5  C5  UNL     1      27.125  -0.398  53.407  1.00  0.00    -0.003 C 
HETATM    6  C6  UNL     1      28.320   0.101  54.054  1.00  0.00     0.012 C 
HETATM    7  C7  UNL     1      28.826   1.288  53.651  1.00  0.00    -0.019 C 
HETATM    8  C8  UNL     1      27.978   2.153  53.108  1.00  0.00     0.065 C 
HETATM    9  S1  UNL     1      26.241   1.951  53.081  1.00  0.00    -0.055 SA
HETATM   10  C9  UNL     1      25.433   2.717  51.695  1.00  0.00     0.281 A 
HETATM   11  N1  UNL     1      25.294   3.357  50.528  1.00  0.00    -0.172 N 
HETATM   12  N4  UNL     1      24.186   2.995  51.125  1.00  0.00     0.035 N 
HETATM   13  C18 UNL     1      23.011   2.640  51.426  1.00  0.00     0.783 C 
HETATM   14  N5  UNL     1      23.025   1.774  52.600  1.00  0.00    -0.388 N 
HETATM   15  C19 UNL     1      23.488   0.390  52.475  1.00  0.00     0.120 C 
HETATM   16  H23 UNL     1      22.662   2.613  53.075  1.00  0.00     0.155 HD
ENDROOT
BRANCH  11  17
HETATM   17  C10 UNL     1      26.503   3.730  49.810  1.00  0.00     0.246 C 
BRANCH  17  18
HETATM   18  N2  UNL     1      26.023   4.990  49.059  1.00  0.00    -0.306 NA
HETATM   19  C11 UNL     1      27.447   5.465  48.587  1.00  0.00     0.071 A 
HETATM   20  C12 UNL     1      28.791   5.762  48.176  1.00  0.00     0.072 A 
HETATM   21  H13 UNL     1      26.952   4.945  49.013  1.00  0.00     0.140 HD
HETATM   22  C13 UNL     1      28.866   7.200  47.810  1.00  0.00    -0.018 A 
HETATM   23  C14 UNL     1      29.921   6.086  47.780  1.00  0.00     0.051 A 
HETATM   24  C15 UNL     1      30.815   5.002  47.790  1.00  0.00     0.063 A 
HETATM   25  N3  UNL     1      31.088   6.695  47.380  1.00  0.00    -0.386 N 
HETATM   26  C16 UNL     1      32.200   5.403  47.365  1.00  0.00    -0.007 A 
HETATM   27  C17 UNL     1      32.434   6.758  47.040  1.00  0.00     0.080 A 
HETATM   28  H21 UNL     1      31.214   7.871  47.219  1.00  0.00     0.160 HD
ENDBRANCH  17  18
ENDBRANCH  11  17
TORSDOF 2
ENDMDL
MODEL 2
REMARK VINA RESULT:      -9.7      3.224      7.764
REMARK  2 active torsions:
REMARK  status: ('A' for Active; 'I' for Inactive)
REMARK    1  A    between atoms: N1_11  and  C10_12 
REMARK    2  A    between atoms: C10_12  and  N2_13 
ROOT
HETATM    1  C1  UNL     1      22.097   9.219  48.728  1.00  0.00     0.012 C 
HETATM    2  C2  UNL     1      23.161   8.333  49.251  1.00  0.00     0.002 C 
HETATM    3  C3  UNL     1      24.535   8.830  49.047  1.00  0.00     0.033 C 
HETATM    4  C4  UNL     1      25.577   8.074  49.820  1.00  0.00    -0.026 C 
HETATM    5  C5  UNL     1      26.500   7.264  49.253  1.00  0.00    -0.003 C 
HETATM    6  C6  UNL     1      27.371   6.463  48.418  1.00  0.00     0.012 C 
HETATM    7  C7  UNL     1      27.439   5.133  48.646  1.00  0.00    -0.019 C 
HETATM    8  C8  UNL     1      26.382   4.561  49.210  1.00  0.00     0.065 C 
HETATM    9  S1  UNL     1      24.848   5.361  49.471  1.00  0.00    -0.055 SA
HETATM   10  C9  UNL     1      23.935   4.757  50.873  1.00  0.00     0.281 A 
HETATM   11  N1  UNL     1      23.669   4.062  51.985  1.00  0.00    -0.172 N 
HETATM   12  N4  UNL     1      22.725   4.868  51.567  1.00  0.00     0.035 N 
HETATM   13  C18 UNL     1      21.740   5.652  51.448  1.00  0.00     0.783 C 
HETATM   14  N5  UNL     1      21.972   6.601  50.365  1.00  0.00    -0.388 N 
HETATM   15  C19 UNL     1      22.919   7.703  50.556  1.00  0.00     0.120 C 
HETATM   16  H23 UNL     1      21.289   6.014  49.865  1.00  0.00     0.155 HD
ENDROOT
BRANCH  11  17
HETATM   17  C10 UNL     1      24.712   3.195  52.510  1.00  0.00     0.246 C 
BRANCH  17  18
HETATM   18  N2  UNL     1      23.896   1.939  52.876  1.00  0.00    -0.306 NA
HETATM   19  C11 UNL     1      25.123   0.959  52.987  1.00  0.00     0.071 A 
HETATM   20  C12 UNL     1      26.325   0.183  53.107  1.00  0.00     0.072 A 
HETATM   21  H13 UNL     1      24.796   1.708  52.815  1.00  0.00     0.140 HD
HETATM   22  C13 UNL     1      25.973  -1.256  52.984  1.00  0.00    -0.018 A 
HETATM   23  C14 UNL     1      27.315  -0.555  53.232  1.00  0.00     0.051 A 
HETATM   24  C15 UNL     1      28.493   0.177  53.453  1.00  0.00     0.063 A 
HETATM   25  N3  UNL     1      28.255  -1.559  53.266  1.00  0.00    -0.386 N 
HETATM   26  C16 UNL     1      29.704  -0.708  53.548  1.00  0.00    -0.007 A 
HETATM   27  C17 UNL     1      29.527  -2.101  53.394  1.00  0.00     0.080 A 
HETATM   28  H21 UNL     1      28.024  -2.706  53.027  1.00  0.00     0.160 HD
ENDBRANCH  17  18
ENDBRANCH  11  17
TORSDOF 2
ENDMDL
MODEL 3
REMARK VINA RESULT:      -9.3      3.352      7.333
REMARK  2 active torsions:
REMARK  status: ('A' for Active; 'I' for Inactive)
REMARK    1  A    between atoms: N1_11  and  C10_12 
REMARK    2  A    between atoms: C10_12  and  N2_13 
ROOT
HETATM    1  C1  UNL     1      21.555   6.428  46.500  1.00  0.00     0.012 C 
HETATM    2  C2  UNL     1      22.494   6.036  47.573  1.00  0.00     0.002 C 
HETATM    3  C3  UNL     1      23.742   6.822  47.621  1.00  0.00     0.033 C 
HETATM    4  C4  UNL     1      24.549   6.607  48.869  1.00  0.00    -0.026 C 
HETATM    5  C5  UNL     1      25.739   5.965  48.899  1.00  0.00    -0.003 C 
HETATM    6  C6  UNL     1      26.977   5.248  48.671  1.00  0.00     0.012 C 
HETATM    7  C7  UNL     1      27.186   4.093  49.341  1.00  0.00    -0.019 C 
HETATM    8  C8  UNL     1      26.112   3.418  49.732  1.00  0.00     0.065 C 
HETATM    9  S1  UNL     1      24.474   3.804  49.256  1.00  0.00    -0.055 SA
HETATM   10  C9  UNL     1      23.236   3.354  50.450  1.00  0.00     0.281 A 
HETATM   11  N1  UNL     1      22.712   2.923  51.604  1.00  0.00    -0.172 N 
HETATM   12  N4  UNL     1      21.858   3.302  50.686  1.00  0.00     0.035 N 
HETATM   13  C18 UNL     1      20.863   3.727  50.032  1.00  0.00     0.783 C 
HETATM   14  N5  UNL     1      21.302   4.391  48.809  1.00  0.00    -0.388 N 
HETATM   15  C19 UNL     1      21.911   5.721  48.885  1.00  0.00     0.120 C 
HETATM   16  H23 UNL     1      20.956   3.531  48.360  1.00  0.00     0.155 HD
ENDROOT
BRANCH  11  17
HETATM   17  C10 UNL     1      23.629   2.542  52.666  1.00  0.00     0.246 C 
BRANCH  17  18
HETATM   18  N2  UNL     1      23.254   1.059  52.863  1.00  0.00    -0.306 NA
HETATM   19  C11 UNL     1      24.727   0.520  52.983  1.00  0.00     0.071 A 
HETATM   20  C12 UNL     1      26.112   0.164  53.126  1.00  0.00     0.072 A 
HETATM   21  H13 UNL     1      24.181   1.138  52.850  1.00  0.00     0.140 HD
HETATM   22  C13 UNL     1      26.255  -1.291  52.856  1.00  0.00    -0.018 A 
HETATM   23  C14 UNL     1      27.281  -0.225  53.262  1.00  0.00     0.051 A 
HETATM   24  C15 UNL     1      28.145   0.820  53.632  1.00  0.00     0.063 A 
HETATM   25  N3  UNL     1      28.496  -0.871  53.282  1.00  0.00    -0.386 N 
HETATM   26  C16 UNL     1      29.573   0.366  53.743  1.00  0.00    -0.007 A 
HETATM   27  C17 UNL     1      29.869  -0.986  53.458  1.00  0.00     0.080 A 
HETATM   28  H21 UNL     1      28.664  -2.000  52.930  1.00  0.00     0.160 HD
ENDBRANCH  17  18
ENDBRANCH  11  17
TORSDOF 2
ENDMDL
MODEL 4
REMARK VINA RESULT:      -9.1      2.765      8.754
REMARK  2 active torsions:
REMARK  status: ('A' for Active; 'I' for Inactive)
REMARK    1  A    between atoms: N1_11  and  C10_12 
REMARK    2  A    between atoms: C10_12  and  N2_13 
ROOT
HETATM    1  C1  UNL     1      29.493  11.402  47.861  1.00  0.00     0.012 C 
HETATM    2  C2  UNL     1      29.703   9.997  48.275  1.00  0.00     0.002 C 
HETATM    3  C3  UNL     1      31.013   9.724  48.895  1.00  0.00     0.033 C 
HETATM    4  C4  UNL     1      31.105   8.380  49.559  1.00  0.00    -0.026 C 
HETATM    5  C5  UNL     1      31.861   7.358  49.096  1.00  0.00    -0.003 C 
HETATM    6  C6  UNL     1      32.734   6.431  48.406  1.00  0.00     0.012 C 
HETATM    7  C7  UNL     1      32.220   5.255  47.982  1.00  0.00    -0.019 C 
HETATM    8  C8  UNL     1      30.917   5.218  47.736  1.00  0.00     0.065 C 
HETATM    9  S1  UNL     1      29.875   6.623  47.711  1.00  0.00    -0.055 SA
HETATM   10  C9  UNL     1      28.187   6.294  48.166  1.00  0.00     0.281 A 
HETATM   11  N1  UNL     1      27.122   5.614  48.605  1.00  0.00    -0.172 N 
HETATM   12  N4  UNL     1      26.916   6.866  48.283  1.00  0.00     0.035 N 
HETATM   13  C18 UNL     1      26.500   8.055  48.171  1.00  0.00     0.783 C 
HETATM   14  N5  UNL     1      27.606   8.955  47.860  1.00  0.00    -0.388 N 
HETATM   15  C19 UNL     1      28.565   9.313  48.907  1.00  0.00     0.120 C 
HETATM   16  H23 UNL     1      27.189   8.948  46.918  1.00  0.00     0.155 HD
ENDROOT
BRANCH  11  17
HETATM   17  C10 UNL     1      27.322   4.235  49.022  1.00  0.00     0.246 C 
BRANCH  17  18
HETATM   18  N2  UNL     1      25.899   3.856  49.482  1.00  0.00    -0.306 NA
HETATM   19  C11 UNL     1      26.340   2.970  50.705  1.00  0.00     0.071 A 
HETATM   20  C12 UNL     1      26.870   2.231  51.817  1.00  0.00     0.072 A 
HETATM   21  H13 UNL     1      26.518   3.433  50.033  1.00  0.00     0.140 HD
HETATM   22  C13 UNL     1      25.834   1.272  52.284  1.00  0.00    -0.018 A 
HETATM   23  C14 UNL     1      27.246   1.576  52.801  1.00  0.00     0.051 A 
HETATM   24  C15 UNL     1      28.549   1.923  53.199  1.00  0.00     0.063 A 
HETATM   25  N3  UNL     1      27.459   0.691  53.833  1.00  0.00    -0.386 N 
HETATM   26  C16 UNL     1      29.031   1.092  54.355  1.00  0.00    -0.007 A 
HETATM   27  C17 UNL     1      28.170   0.097  54.868  1.00  0.00     0.080 A 
HETATM   28  H21 UNL     1      26.706  -0.184  54.135  1.00  0.00     0.160 HD
ENDBRANCH  17  18
ENDBRANCH  11  17
TORSDOF 2
ENDMDL
MODEL 5
REMARK VINA RESULT:      -9.0      1.987      2.593
REMARK  2 active torsions:
REMARK  status: ('A' for Active; 'I' for Inactive)
REMARK    1  A    between atoms: N1_11  and  C10_12 
REMARK    2  A    between atoms: C10_12  and  N2_13 
ROOT
HETATM    1  C1  UNL     1      19.674  -0.735  53.559  1.00  0.00     0.012 C 
HETATM    2  C2  UNL     1      20.975  -0.249  53.049  1.00  0.00     0.002 C 
HETATM    3  C3  UNL     1      22.143  -1.041  53.480  1.00  0.00     0.033 C 
HETATM    4  C4  UNL     1      23.407  -0.713  52.740  1.00  0.00    -0.026 C 
HETATM    5  C5  UNL     1      24.469  -0.085  53.297  1.00  0.00    -0.003 C 
HETATM    6  C6  UNL     1      25.457   0.591  54.111  1.00  0.00     0.012 C 
HETATM    7  C7  UNL     1      25.900   1.804  53.714  1.00  0.00    -0.019 C 
HETATM    8  C8  UNL     1      25.084   2.528  52.957  1.00  0.00     0.065 C 
HETATM    9  S1  UNL     1      23.417   2.116  52.627  1.00  0.00    -0.055 SA
HETATM   10  C9  UNL     1      22.813   2.697  51.058  1.00  0.00     0.281 A 
HETATM   11  N1  UNL     1      22.833   3.247  49.839  1.00  0.00    -0.172 N 
HETATM   12  N4  UNL     1      21.676   2.789  50.248  1.00  0.00     0.035 N 
HETATM   13  C18 UNL     1      20.510   2.312  50.355  1.00  0.00     0.783 C 
HETATM   14  N5  UNL     1      20.391   1.525  51.577  1.00  0.00    -0.388 N 
HETATM   15  C19 UNL     1      21.015   0.202  51.651  1.00  0.00     0.120 C 
HETATM   16  H23 UNL     1      19.855   2.340  51.908  1.00  0.00     0.155 HD
ENDROOT
BRANCH  11  17
HETATM   17  C10 UNL     1      24.110   3.720  49.328  1.00  0.00     0.246 C 
BRANCH  17  18
HETATM   18  N2  UNL     1      23.749   5.164  48.924  1.00  0.00    -0.306 NA
HETATM   19  C11 UNL     1      25.228   5.686  48.798  1.00  0.00     0.071 A 
HETATM   20  C12 UNL     1      26.619   6.023  48.669  1.00  0.00     0.072 A 
HETATM   21  H13 UNL     1      24.675   5.090  48.986  1.00  0.00     0.140 HD
HETATM   22  C13 UNL     1      26.756   7.501  48.752  1.00  0.00    -0.018 A 
HETATM   23  C14 UNL     1      27.795   6.393  48.534  1.00  0.00     0.051 A 
HETATM   24  C15 UNL     1      28.669   5.310  48.340  1.00  0.00     0.063 A 
HETATM   25  N3  UNL     1      29.011   7.034  48.482  1.00  0.00    -0.386 N 
HETATM   26  C16 UNL     1      30.103   5.749  48.233  1.00  0.00    -0.007 A 
HETATM   27  C17 UNL     1      30.391   7.127  48.351  1.00  0.00     0.080 A 
HETATM   28  H21 UNL     1      29.168   8.199  48.690  1.00  0.00     0.160 HD
ENDBRANCH  17  18
ENDBRANCH  11  17
TORSDOF 2
ENDMDL
MODEL 6
REMARK VINA RESULT:      -8.8      4.498      6.930
REMARK  2 active torsions:
REMARK  status: ('A' for Active; 'I' for Inactive)
REMARK    1  A    between atoms: N1_11  and  C10_12 
REMARK    2  A    between atoms: C10_12  and  N2_13 
ROOT
HETATM    1  C1  UNL     1      16.574   3.307  50.188  1.00  0.00     0.012 C 
HETATM    2  C2  UNL     1      17.755   2.528  50.619  1.00  0.00     0.002 C 
HETATM    3  C3  UNL     1      17.508   1.086  50.813  1.00  0.00     0.033 C 
HETATM    4  C4  UNL     1      18.759   0.270  50.973  1.00  0.00    -0.026 C 
HETATM    5  C5  UNL     1      19.135  -0.319  52.131  1.00  0.00    -0.003 C 
HETATM    6  C6  UNL     1      19.317  -0.842  53.469  1.00  0.00     0.012 C 
HETATM    7  C7  UNL     1      20.444  -0.518  54.141  1.00  0.00    -0.019 C 
HETATM    8  C8  UNL     1      21.042   0.619  53.806  1.00  0.00     0.065 C 
HETATM    9  S1  UNL     1      20.360   1.813  52.725  1.00  0.00    -0.055 SA
HETATM   10  C9  UNL     1      21.564   2.762  51.825  1.00  0.00     0.281 A 
HETATM   11  N1  UNL     1      22.760   3.145  51.362  1.00  0.00    -0.172 N 
HETATM   12  N4  UNL     1      21.728   3.827  50.933  1.00  0.00     0.035 N 
HETATM   13  C18 UNL     1      20.903   4.532  50.284  1.00  0.00     0.783 C 
HETATM   14  N5  UNL     1      19.536   4.102  50.560  1.00  0.00    -0.388 N 
HETATM   15  C19 UNL     1      19.037   2.854  49.978  1.00  0.00     0.120 C 
HETATM   16  H23 UNL     1      19.505   4.966  51.120  1.00  0.00     0.155 HD
ENDROOT
BRANCH  11  17
HETATM   17  C10 UNL     1      23.926   2.379  51.774  1.00  0.00     0.246 C 
BRANCH  17  18
HETATM   18  N2  UNL     1      24.991   3.491  51.866  1.00  0.00    -0.306 NA
HETATM   19  C11 UNL     1      26.165   2.568  52.365  1.00  0.00     0.071 A 
HETATM   20  C12 UNL     1      27.161   1.613  52.765  1.00  0.00     0.072 A 
HETATM   21  H13 UNL     1      25.367   2.687  52.150  1.00  0.00     0.140 HD
HETATM   22  C13 UNL     1      28.268   2.340  53.438  1.00  0.00    -0.018 A 
HETATM   23  C14 UNL     1      28.077   0.853  53.113  1.00  0.00     0.051 A 
HETATM   24  C15 UNL     1      27.811  -0.484  52.774  1.00  0.00     0.063 A 
HETATM   25  N3  UNL     1      29.172   0.215  53.649  1.00  0.00    -0.386 N 
HETATM   26  C16 UNL     1      28.892  -1.417  53.244  1.00  0.00    -0.007 A 
HETATM   27  C17 UNL     1      29.985  -0.869  53.952  1.00  0.00     0.080 A 
HETATM   28  H21 UNL     1      30.002   0.751  54.318  1.00  0.00     0.160 HD
ENDBRANCH  17  18
ENDBRANCH  11  17
TORSDOF 2
ENDMDL
MODEL 7
REMARK VINA RESULT:      -8.5      4.224      7.682
REMARK  2 active torsions:
REMARK  status: ('A' for Active; 'I' for Inactive)
REMARK    1  A    between atoms: N1_11  and  C10_12 
REMARK    2  A    between atoms: C10_12  and  N2_13 
ROOT
HETATM    1  C1  UNL     1      19.009   6.662  47.986  1.00  0.00     0.012 C 
HETATM    2  C2  UNL     1      20.127   6.394  48.918  1.00  0.00     0.002 C 
HETATM    3  C3  UNL     1      20.647   7.584  49.618  1.00  0.00     0.033 C 
HETATM    4  C4  UNL     1      21.576   7.265  50.754  1.00  0.00    -0.026 C 
HETATM    5  C5  UNL     1      22.904   7.518  50.738  1.00  0.00    -0.003 C 
HETATM    6  C6  UNL     1      24.282   7.883  50.479  1.00  0.00     0.012 C 
HETATM    7  C7  UNL     1      25.227   6.919  50.537  1.00  0.00    -0.019 C 
HETATM    8  C8  UNL     1      24.835   5.673  50.301  1.00  0.00     0.065 C 
HETATM    9  S1  UNL     1      23.248   5.231  49.714  1.00  0.00    -0.055 SA
HETATM   10  C9  UNL     1      22.696   3.621  50.231  1.00  0.00     0.281 A 
HETATM   11  N1  UNL     1      22.692   2.452  50.881  1.00  0.00    -0.172 N 
HETATM   12  N4  UNL     1      21.670   2.679  50.094  1.00  0.00     0.035 N 
HETATM   13  C18 UNL     1      20.544   2.720  49.520  1.00  0.00     0.783 C 
HETATM   14  N5  UNL     1      20.333   4.026  48.904  1.00  0.00    -0.388 N 
HETATM   15  C19 UNL     1      20.026   5.184  49.746  1.00  0.00     0.120 C 
HETATM   16  H23 UNL     1      20.517   3.510  48.031  1.00  0.00     0.155 HD
ENDROOT
BRANCH  11  17
HETATM   17  C10 UNL     1      23.782   2.184  51.805  1.00  0.00     0.246 C 
BRANCH  17  18
HETATM   18  N2  UNL     1      23.380   0.796  52.343  1.00  0.00    -0.306 NA
HETATM   19  C11 UNL     1      24.840   0.300  52.659  1.00  0.00     0.071 A 
HETATM   20  C12 UNL     1      26.212  -0.012  52.949  1.00  0.00     0.072 A 
HETATM   21  H13 UNL     1      24.308   0.867  52.354  1.00  0.00     0.140 HD
HETATM   22  C13 UNL     1      26.348  -1.489  53.052  1.00  0.00    -0.018 A 
HETATM   23  C14 UNL     1      27.369  -0.358  53.229  1.00  0.00     0.051 A 
HETATM   24  C15 UNL     1      28.229   0.745  53.370  1.00  0.00     0.063 A 
HETATM   25  N3  UNL     1      28.574  -0.982  53.463  1.00  0.00    -0.386 N 
HETATM   26  C16 UNL     1      29.646   0.329  53.654  1.00  0.00    -0.007 A 
HETATM   27  C17 UNL     1      29.936  -1.051  53.725  1.00  0.00     0.080 A 
HETATM   28  H21 UNL     1      28.742  -2.162  53.408  1.00  0.00     0.160 HD
ENDBRANCH  17  18
ENDBRANCH  11  17
TORSDOF 2
ENDMDL
MODEL 8
REMARK VINA RESULT:      -8.4      4.928      8.807
REMARK  2 active torsions:
REMARK  status: ('A' for Active; 'I' for Inactive)
REMARK    1  A    between atoms: N1_11  and  C10_12 
REMARK    2  A    between atoms: C10_12  and  N2_13 
ROOT
HETATM    1  C1  UNL     1      21.692   5.635  45.357  1.00  0.00     0.012 C 
HETATM    2  C2  UNL     1      21.968   4.849  46.580  1.00  0.00     0.002 C 
HETATM    3  C3  UNL     1      22.039   3.390  46.374  1.00  0.00     0.033 C 
HETATM    4  C4  UNL     1      22.592   2.636  47.549  1.00  0.00    -0.026 C 
HETATM    5  C5  UNL     1      21.856   1.816  48.335  1.00  0.00    -0.003 C 
HETATM    6  C6  UNL     1      20.869   1.008  49.019  1.00  0.00     0.012 C 
HETATM    7  C7  UNL     1      20.649   1.233  50.334  1.00  0.00    -0.019 C 
HETATM    8  C8  UNL     1      20.915   2.450  50.792  1.00  0.00     0.065 C 
HETATM    9  S1  UNL     1      21.315   3.820  49.781  1.00  0.00    -0.055 SA
HETATM   10  C9  UNL     1      22.369   5.024  50.558  1.00  0.00     0.281 A 
HETATM   11  N1  UNL     1      23.166   5.575  51.481  1.00  0.00    -0.172 N 
HETATM   12  N4  UNL     1      22.971   6.275  50.391  1.00  0.00     0.035 N 
HETATM   13  C18 UNL     1      23.048   7.061  49.404  1.00  0.00     0.783 C 
HETATM   14  N5  UNL     1      22.359   6.498  48.248  1.00  0.00    -0.388 N 
HETATM   15  C19 UNL     1      22.971   5.393  47.507  1.00  0.00     0.120 C 
HETATM   16  H23 UNL     1      21.646   7.204  48.480  1.00  0.00     0.155 HD
ENDROOT
BRANCH  11  17
HETATM   17  C10 UNL     1      23.449   4.805  52.682  1.00  0.00     0.246 C 
BRANCH  17  18
HETATM   18  N2  UNL     1      24.638   3.945  52.208  1.00  0.00    -0.306 NA
HETATM   19  C11 UNL     1      24.075   2.568  52.724  1.00  0.00     0.071 A 
HETATM   20  C12 UNL     1      23.430   1.374  53.193  1.00  0.00     0.072 A 
HETATM   21  H13 UNL     1      24.025   3.398  52.647  1.00  0.00     0.140 HD
HETATM   22  C13 UNL     1      24.461   0.319  53.371  1.00  0.00    -0.018 A 
HETATM   23  C14 UNL     1      22.940   0.299  53.570  1.00  0.00     0.051 A 
HETATM   24  C15 UNL     1      21.545   0.380  53.725  1.00  0.00     0.063 A 
HETATM   25  N3  UNL     1      22.647  -0.958  54.047  1.00  0.00    -0.386 N 
HETATM   26  C16 UNL     1      20.954  -0.904  54.235  1.00  0.00    -0.007 A 
HETATM   27  C17 UNL     1      21.827  -1.982  54.504  1.00  0.00     0.080 A 
HETATM   28  H21 UNL     1      23.467  -1.776  54.337  1.00  0.00     0.160 HD
ENDBRANCH  17  18
ENDBRANCH  11  17
TORSDOF 2
ENDMDL
MODEL 9
REMARK VINA RESULT:      -8.3      4.561      9.976
REMARK  2 active torsions:
REMARK  status: ('A' for Active; 'I' for Inactive)
REMARK    1  A    between atoms: N1_11  and  C10_12 
REMARK    2  A    between atoms: C10_12  and  N2_13 
ROOT
HETATM    1  C1  UNL     1      28.477   1.195  53.460  1.00  0.00     0.012 C 
HETATM    2  C2  UNL     1      27.139   1.422  52.869  1.00  0.00     0.002 C 
HETATM    3  C3  UNL     1      27.135   2.251  51.648  1.00  0.00     0.033 C 
HETATM    4  C4  UNL     1      25.828   2.239  50.909  1.00  0.00    -0.026 C 
HETATM    5  C5  UNL     1      24.995   3.302  50.829  1.00  0.00    -0.003 C 
HETATM    6  C6  UNL     1      24.284   4.562  50.893  1.00  0.00     0.012 C 
HETATM    7  C7  UNL     1      23.034   4.573  51.408  1.00  0.00    -0.019 C 
HETATM    8  C8  UNL     1      22.730   3.616  52.277  1.00  0.00     0.065 C 
HETATM    9  S1  UNL     1      23.886   2.493  52.955  1.00  0.00    -0.055 SA
HETATM   10  C9  UNL     1      23.204   0.909  53.390  1.00  0.00     0.281 A 
HETATM   11  N1  UNL     1      22.308  -0.079  53.491  1.00  0.00    -0.172 N 
HETATM   12  N4  UNL     1      23.496  -0.322  53.987  1.00  0.00     0.035 N 
HETATM   13  C18 UNL     1      24.573  -0.836  54.403  1.00  0.00     0.783 C 
HETATM   14  N5  UNL     1      25.690   0.079  54.192  1.00  0.00    -0.388 N 
HETATM   15  C19 UNL     1      26.221   0.274  52.841  1.00  0.00     0.120 C 
HETATM   16  H23 UNL     1      25.614   0.216  55.210  1.00  0.00     0.155 HD
ENDROOT
BRANCH  11  17
HETATM   17  C10 UNL     1      20.994   0.133  52.906  1.00  0.00     0.246 C 
BRANCH  17  18
HETATM   18  N2  UNL     1      20.112  -0.715  53.845  1.00  0.00    -0.306 NA
HETATM   19  C11 UNL     1      18.812  -0.663  52.960  1.00  0.00     0.071 A 
HETATM   20  C12 UNL     1      17.712  -0.583  52.039  1.00  0.00     0.072 A 
HETATM   21  H13 UNL     1      19.601  -0.441  53.116  1.00  0.00     0.140 HD
HETATM   22  C13 UNL     1      16.456  -0.877  52.777  1.00  0.00    -0.018 A 
HETATM   23  C14 UNL     1      16.717  -0.563  51.298  1.00  0.00     0.051 A 
HETATM   24  C15 UNL     1      17.056  -0.267  49.967  1.00  0.00     0.063 A 
HETATM   25  N3  UNL     1      15.477  -0.530  50.704  1.00  0.00    -0.386 N 
HETATM   26  C16 UNL     1      15.848  -0.185  49.077  1.00  0.00    -0.007 A 
HETATM   27  C17 UNL     1      14.576  -0.387  49.656  1.00  0.00     0.080 A 
HETATM   28  H21 UNL     1      14.444  -0.618  51.296  1.00  0.00     0.160 HD
ENDBRANCH  17  18
ENDBRANCH  11  17
TORSDOF 2
ENDMDL
