MODEL 1
REMARK VINA RESULT:      -8.9      0.000      0.000
REMARK  2 active torsions:
REMARK  status: ('A' for Active; 'I' for Inactive)
REMARK    1  A    between atoms: O1_2  and  C2_3 
REMARK    2  A    between atoms: C13_16  and  C14_17 
ROOT
HETATM    1  C2  UNL     1      21.519   2.805  51.992  1.00  0.00     0.055 C 
HETATM    2  C3  UNL     1      22.875   2.609  51.757  1.00  0.00     0.016 C 
HETATM    3  C4  UNL     1      23.240   1.475  52.487  1.00  0.00     0.044 C 
HETATM    4  C5  UNL     1      22.391   0.401  51.809  1.00  0.00    -0.020 C 
HETATM    5  C6  UNL     1      21.157   0.602  51.350  1.00  0.00    -0.013 C 
HETATM    6  C7  UNL     1      20.541   1.701  52.198  1.00  0.00     0.105 C 
HETATM    7  C8  UNL     1      20.543   1.053  53.563  1.00  0.00     0.106 C 
HETATM    8  N1  UNL     1      20.733   0.348  54.584  1.00  0.00    -0.258 NA
HETATM    9  C9  UNL     1      21.499  -0.742  54.986  1.00  0.00     0.226 C 
HETATM   10  N2  UNL     1      22.596  -1.472  55.114  1.00  0.00    -0.268 NA
HETATM   11  C10 UNL     1      23.841  -1.082  54.600  1.00  0.00     0.101 A 
HETATM   12  C11 UNL     1      23.968  -0.168  53.763  1.00  0.00     0.047 A 
HETATM   13  C12 UNL     1      24.452   0.837  52.836  1.00  0.00     0.001 A 
HETATM   14  C13 UNL     1      24.721  -0.169  53.738  1.00  0.00     0.025 A 
ENDROOT
BRANCH  14  15
HETATM   15  C14 UNL     1      26.183  -0.396  53.905  1.00  0.00    -0.010 C 
HETATM   16  C15 UNL     1      27.271   0.198  53.450  1.00  0.00    -0.083 C 
HETATM   17  C16 UNL     1      28.761  -0.036  53.623  1.00  0.00     0.034 C 
HETATM   18  C19 UNL     1      27.455   1.393  52.543  1.00  0.00     0.034 C 
HETATM   19  C17 UNL     1      29.159   1.316  54.237  1.00  0.00     0.005 C 
HETATM   20  C18 UNL     1      28.258   2.310  53.479  1.00  0.00     0.005 C 
ENDBRANCH  14  15
BRANCH   1  21
HETATM   21  O1  UNL     1      20.995   4.087  52.050  1.00  0.00    -0.359 OA
HETATM   22  C1  UNL     1      21.686   5.171  51.426  1.00  0.00     0.209 C 
ENDBRANCH   1  21
TORSDOF 2
ENDMDL
MODEL 2
REMARK VINA RESULT:      -8.3      3.658      4.794
REMARK  2 active torsions:
REMARK  status: ('A' for Active; 'I' for Inactive)
REMARK    1  A    between atoms: O1_2  and  C2_3 
REMARK    2  A    between atoms: C13_16  and  C14_17 
ROOT
HETATM    1  C2  UNL     1      26.147   5.894  49.014  1.00  0.00     0.055 C 
HETATM    2  C3  UNL     1      26.820   4.679  49.040  1.00  0.00     0.016 C 
HETATM    3  C4  UNL     1      26.188   3.899  50.013  1.00  0.00     0.044 C 
HETATM    4  C5  UNL     1      24.790   3.756  49.412  1.00  0.00    -0.020 C 
HETATM    5  C6  UNL     1      24.166   4.714  48.731  1.00  0.00    -0.013 C 
HETATM    6  C7  UNL     1      24.685   6.042  49.256  1.00  0.00     0.105 C 
HETATM    7  C8  UNL     1      24.237   5.982  50.698  1.00  0.00     0.106 C 
HETATM    8  N1  UNL     1      23.845   5.662  51.847  1.00  0.00    -0.258 NA
HETATM    9  C9  UNL     1      23.481   4.523  52.558  1.00  0.00     0.226 C 
HETATM   10  N2  UNL     1      23.591   3.277  52.991  1.00  0.00    -0.268 NA
HETATM   11  C10 UNL     1      24.644   2.427  52.623  1.00  0.00     0.101 A 
HETATM   12  C11 UNL     1      25.403   2.671  51.666  1.00  0.00     0.047 A 
HETATM   13  C12 UNL     1      26.450   2.673  50.662  1.00  0.00     0.001 A 
HETATM   14  C13 UNL     1      25.866   2.085  51.764  1.00  0.00     0.025 A 
ENDROOT
BRANCH  14  15
HETATM   15  C14 UNL     1      26.599   0.865  52.203  1.00  0.00    -0.010 C 
HETATM   16  C15 UNL     1      27.764   0.643  52.785  1.00  0.00    -0.083 C 
HETATM   17  C16 UNL     1      28.507  -0.603  53.231  1.00  0.00     0.034 C 
HETATM   18  C19 UNL     1      28.847   1.587  53.250  1.00  0.00     0.034 C 
HETATM   19  C17 UNL     1      28.638  -0.294  54.732  1.00  0.00     0.005 C 
HETATM   20  C18 UNL     1      28.885   1.227  54.744  1.00  0.00     0.005 C 
ENDBRANCH  14  15
BRANCH   1  21
HETATM   21  O1  UNL     1      26.832   7.070  48.754  1.00  0.00    -0.359 OA
HETATM   22  C1  UNL     1      26.799   8.142  49.699  1.00  0.00     0.209 C 
ENDBRANCH   1  21
TORSDOF 2
ENDMDL
MODEL 3
REMARK VINA RESULT:      -8.2      2.657      3.969
REMARK  2 active torsions:
REMARK  status: ('A' for Active; 'I' for Inactive)
REMARK    1  A    between atoms: O1_2  and  C2_3 
REMARK    2  A    between atoms: C13_16  and  C14_17 
ROOT
HETATM    1  C2  UNL     1      21.695   1.002  52.254  1.00  0.00     0.055 C 
HETATM    2  C3  UNL     1      22.738   0.876  53.164  1.00  0.00     0.016 C 
HETATM    3  C4  UNL     1      23.822   1.569  52.617  1.00  0.00     0.044 C 
HETATM    4  C5  UNL     1      23.274   2.995  52.582  1.00  0.00    -0.020 C 
HETATM    5  C6  UNL     1      22.007   3.302  52.315  1.00  0.00    -0.013 C 
HETATM    6  C7  UNL     1      21.464   2.209  51.412  1.00  0.00     0.105 C 
HETATM    7  C8  UNL     1      22.355   2.359  50.201  1.00  0.00     0.106 C 
HETATM    8  N1  UNL     1      23.260   2.619  49.371  1.00  0.00    -0.258 NA
HETATM    9  C9  UNL     1      24.492   3.263  49.320  1.00  0.00     0.226 C 
HETATM   10  N2  UNL     1      25.713   3.578  49.721  1.00  0.00    -0.268 NA
HETATM   11  C10 UNL     1      26.303   3.042  50.875  1.00  0.00     0.101 A 
HETATM   12  C11 UNL     1      25.649   2.446  51.752  1.00  0.00     0.047 A 
HETATM   13  C12 UNL     1      25.198   1.697  52.909  1.00  0.00     0.001 A 
HETATM   14  C13 UNL     1      26.233   2.245  52.183  1.00  0.00     0.025 A 
ENDROOT
BRANCH  14  15
HETATM   15  C14 UNL     1      27.558   1.989  52.814  1.00  0.00    -0.010 C 
HETATM   16  C15 UNL     1      28.066   1.006  53.535  1.00  0.00    -0.083 C 
HETATM   17  C16 UNL     1      29.418   0.750  54.176  1.00  0.00     0.034 C 
HETATM   18  C19 UNL     1      27.470  -0.295  54.016  1.00  0.00     0.034 C 
HETATM   19  C17 UNL     1      29.794  -0.557  53.458  1.00  0.00     0.005 C 
HETATM   20  C18 UNL     1      28.441  -1.288  53.356  1.00  0.00     0.005 C 
ENDBRANCH  14  15
BRANCH   1  21
HETATM   21  O1  UNL     1      20.788  -0.032  52.079  1.00  0.00    -0.359 OA
HETATM   22  C1  UNL     1      19.504   0.232  51.510  1.00  0.00     0.209 C 
ENDBRANCH   1  21
TORSDOF 2
ENDMDL
MODEL 4
REMARK VINA RESULT:      -8.1      2.970      5.878
REMARK  2 active torsions:
REMARK  status: ('A' for Active; 'I' for Inactive)
REMARK    1  A    between atoms: O1_2  and  C2_3 
REMARK    2  A    between atoms: C13_16  and  C14_17 
ROOT
HETATM    1  C2  UNL     1      27.169  -0.463  53.229  1.00  0.00     0.055 C 
HETATM    2  C3  UNL     1      27.336   0.558  52.301  1.00  0.00     0.016 C 
HETATM    3  C4  UNL     1      26.080   1.150  52.139  1.00  0.00     0.044 C 
HETATM    4  C5  UNL     1      25.830   1.700  53.542  1.00  0.00    -0.020 C 
HETATM    5  C6  UNL     1      26.205   1.088  54.663  1.00  0.00    -0.013 C 
HETATM    6  C7  UNL     1      26.218  -0.402  54.373  1.00  0.00     0.105 C 
HETATM    7  C8  UNL     1      24.764  -0.650  54.046  1.00  0.00     0.106 C 
HETATM    8  N1  UNL     1      23.550  -0.584  53.735  1.00  0.00    -0.258 NA
HETATM    9  C9  UNL     1      22.606   0.370  53.368  1.00  0.00     0.226 C 
HETATM   10  N2  UNL     1      22.130   1.413  52.707  1.00  0.00    -0.268 NA
HETATM   11  C10 UNL     1      22.876   2.125  51.756  1.00  0.00     0.101 A 
HETATM   12  C11 UNL     1      24.112   2.013  51.649  1.00  0.00     0.047 A 
HETATM   13  C12 UNL     1      25.506   2.089  51.254  1.00  0.00     0.001 A 
HETATM   14  C13 UNL     1      24.194   2.457  51.046  1.00  0.00     0.025 A 
ENDROOT
BRANCH  14  15
HETATM   15  C14 UNL     1      24.044   3.361  49.872  1.00  0.00    -0.010 C 
HETATM   16  C15 UNL     1      24.093   4.669  49.698  1.00  0.00    -0.083 C 
HETATM   17  C16 UNL     1      23.939   5.587  48.498  1.00  0.00     0.034 C 
HETATM   18  C19 UNL     1      24.332   5.801  50.669  1.00  0.00     0.034 C 
HETATM   19  C17 UNL     1      25.316   6.271  48.526  1.00  0.00     0.005 C 
HETATM   20  C18 UNL     1      25.584   6.429  50.035  1.00  0.00     0.005 C 
ENDBRANCH  14  15
BRANCH   1  21
HETATM   21  O1  UNL     1      27.909  -1.631  53.127  1.00  0.00    -0.359 OA
HETATM   22  C1  UNL     1      29.316  -1.611  53.377  1.00  0.00     0.209 C 
ENDBRANCH   1  21
TORSDOF 2
ENDMDL
MODEL 5
REMARK VINA RESULT:      -8.1      7.314      9.841
REMARK  2 active torsions:
REMARK  status: ('A' for Active; 'I' for Inactive)
REMARK    1  A    between atoms: O1_2  and  C2_3 
REMARK    2  A    between atoms: C13_16  and  C14_17 
ROOT
HETATM    1  C2  UNL     1      31.039   6.641  48.033  1.00  0.00     0.055 C 
HETATM    2  C3  UNL     1      30.119   5.616  47.854  1.00  0.00     0.016 C 
HETATM    3  C4  UNL     1      28.873   6.140  48.208  1.00  0.00     0.044 C 
HETATM    4  C5  UNL     1      28.705   7.237  47.158  1.00  0.00    -0.020 C 
HETATM    5  C6  UNL     1      29.702   7.986  46.692  1.00  0.00    -0.013 C 
HETATM    6  C7  UNL     1      30.740   8.080  47.797  1.00  0.00     0.105 C 
HETATM    7  C8  UNL     1      29.954   8.785  48.878  1.00  0.00     0.106 C 
HETATM    8  N1  UNL     1      29.083   9.285  49.631  1.00  0.00    -0.258 NA
HETATM    9  C9  UNL     1      27.698   9.384  49.721  1.00  0.00     0.226 C 
HETATM   10  N2  UNL     1      26.447   8.953  49.694  1.00  0.00    -0.268 NA
HETATM   11  C10 UNL     1      26.101   7.619  49.431  1.00  0.00     0.101 A 
HETATM   12  C11 UNL     1      26.902   6.799  48.944  1.00  0.00     0.047 A 
HETATM   13  C12 UNL     1      27.577   5.623  48.428  1.00  0.00     0.001 A 
HETATM   14  C13 UNL     1      26.451   6.197  48.979  1.00  0.00     0.025 A 
ENDROOT
BRANCH  14  15
HETATM   15  C14 UNL     1      25.357   5.207  49.179  1.00  0.00    -0.010 C 
HETATM   16  C15 UNL     1      25.310   3.941  49.554  1.00  0.00    -0.083 C 
HETATM   17  C16 UNL     1      24.192   2.935  49.757  1.00  0.00     0.034 C 
HETATM   18  C19 UNL     1      26.400   2.971  49.944  1.00  0.00     0.034 C 
HETATM   19  C17 UNL     1      24.410   2.611  51.245  1.00  0.00     0.005 C 
HETATM   20  C18 UNL     1      25.946   2.626  51.371  1.00  0.00     0.005 C 
ENDBRANCH  14  15
BRANCH   1  21
HETATM   21  O1  UNL     1      32.329   6.360  48.457  1.00  0.00    -0.359 OA
HETATM   22  C1  UNL     1      32.878   5.055  48.261  1.00  0.00     0.209 C 
ENDBRANCH   1  21
TORSDOF 2
ENDMDL
MODEL 6
REMARK VINA RESULT:      -8.0      3.189      5.674
REMARK  2 active torsions:
REMARK  status: ('A' for Active; 'I' for Inactive)
REMARK    1  A    between atoms: O1_2  and  C2_3 
REMARK    2  A    between atoms: C13_16  and  C14_17 
ROOT
HETATM    1  C2  UNL     1      23.959  -0.419  53.963  1.00  0.00     0.055 C 
HETATM    2  C3  UNL     1      23.713   0.179  52.733  1.00  0.00     0.016 C 
HETATM    3  C4  UNL     1      24.878   0.873  52.395  1.00  0.00     0.044 C 
HETATM    4  C5  UNL     1      25.880  -0.274  52.273  1.00  0.00    -0.020 C 
HETATM    5  C6  UNL     1      25.879  -1.354  53.051  1.00  0.00    -0.013 C 
HETATM    6  C7  UNL     1      25.288  -0.939  54.387  1.00  0.00     0.105 C 
HETATM    7  C8  UNL     1      26.294   0.092  54.844  1.00  0.00     0.106 C 
HETATM    8  N1  UNL     1      27.199   0.954  54.957  1.00  0.00    -0.258 NA
HETATM    9  C9  UNL     1      28.119   1.629  54.160  1.00  0.00     0.226 C 
HETATM   10  N2  UNL     1      28.541   2.313  53.109  1.00  0.00    -0.268 NA
HETATM   11  C10 UNL     1      27.703   2.678  52.045  1.00  0.00     0.101 A 
HETATM   12  C11 UNL     1      26.580   2.171  51.867  1.00  0.00     0.047 A 
HETATM   13  C12 UNL     1      25.252   1.811  51.407  1.00  0.00     0.001 A 
HETATM   14  C13 UNL     1      26.376   2.598  51.281  1.00  0.00     0.025 A 
ENDROOT
BRANCH  14  15
HETATM   15  C14 UNL     1      26.253   3.578  50.167  1.00  0.00    -0.010 C 
HETATM   16  C15 UNL     1      25.458   4.604  49.919  1.00  0.00    -0.083 C 
HETATM   17  C16 UNL     1      25.336   5.602  48.781  1.00  0.00     0.034 C 
HETATM   18  C19 UNL     1      24.318   5.202  50.709  1.00  0.00     0.034 C 
HETATM   19  C17 UNL     1      25.569   6.905  49.563  1.00  0.00     0.005 C 
HETATM   20  C18 UNL     1      24.853   6.630  50.899  1.00  0.00     0.005 C 
ENDBRANCH  14  15
BRANCH   1  21
HETATM   21  O1  UNL     1      22.937  -0.564  54.890  1.00  0.00    -0.359 OA
HETATM   22  C1  UNL     1      21.775  -1.328  54.560  1.00  0.00     0.209 C 
ENDBRANCH   1  21
TORSDOF 2
ENDMDL
MODEL 7
REMARK VINA RESULT:      -8.0      3.121      5.379
REMARK  2 active torsions:
REMARK  status: ('A' for Active; 'I' for Inactive)
REMARK    1  A    between atoms: O1_2  and  C2_3 
REMARK    2  A    between atoms: C13_16  and  C14_17 
ROOT
HETATM    1  C2  UNL     1      22.781   3.467  48.654  1.00  0.00     0.055 C 
HETATM    2  C3  UNL     1      22.084   2.661  49.545  1.00  0.00     0.016 C 
HETATM    3  C4  UNL     1      22.994   2.299  50.542  1.00  0.00     0.044 C 
HETATM    4  C5  UNL     1      23.321   3.662  51.152  1.00  0.00    -0.020 C 
HETATM    5  C6  UNL     1      23.420   4.790  50.452  1.00  0.00    -0.013 C 
HETATM    6  C7  UNL     1      23.865   4.406  49.052  1.00  0.00     0.105 C 
HETATM    7  C8  UNL     1      25.215   3.788  49.332  1.00  0.00     0.106 C 
HETATM    8  N1  UNL     1      26.239   3.253  49.822  1.00  0.00    -0.258 NA
HETATM    9  C9  UNL     1      26.697   2.776  51.046  1.00  0.00     0.226 C 
HETATM   10  N2  UNL     1      26.635   2.108  52.188  1.00  0.00    -0.268 NA
HETATM   11  C10 UNL     1      25.510   1.371  52.585  1.00  0.00     0.101 A 
HETATM   12  C11 UNL     1      24.396   1.497  52.043  1.00  0.00     0.047 A 
HETATM   13  C12 UNL     1      23.013   1.386  51.620  1.00  0.00     0.001 A 
HETATM   14  C13 UNL     1      24.043   0.954  52.426  1.00  0.00     0.025 A 
ENDROOT
BRANCH  14  15
HETATM   15  C14 UNL     1      23.626  -0.163  53.319  1.00  0.00    -0.010 C 
HETATM   16  C15 UNL     1      22.548  -0.422  54.037  1.00  0.00    -0.083 C 
HETATM   17  C16 UNL     1      22.127  -1.563  54.946  1.00  0.00     0.034 C 
HETATM   18  C19 UNL     1      21.266   0.352  54.233  1.00  0.00     0.034 C 
HETATM   19  C17 UNL     1      20.857  -2.018  54.208  1.00  0.00     0.005 C 
HETATM   20  C18 UNL     1      20.253  -0.686  53.721  1.00  0.00     0.005 C 
ENDBRANCH  14  15
BRANCH   1  21
HETATM   21  O1  UNL     1      22.488   3.431  47.299  1.00  0.00    -0.359 OA
HETATM   22  C1  UNL     1      21.138   3.580  46.854  1.00  0.00     0.209 C 
ENDBRANCH   1  21
TORSDOF 2
ENDMDL
MODEL 8
REMARK VINA RESULT:      -7.8      2.420      5.788
REMARK  2 active torsions:
REMARK  status: ('A' for Active; 'I' for Inactive)
REMARK    1  A    between atoms: O1_2  and  C2_3 
REMARK    2  A    between atoms: C13_16  and  C14_17 
ROOT
HETATM    1  C2  UNL     1      26.150   2.469  51.245  1.00  0.00     0.055 C 
HETATM    2  C3  UNL     1      24.764   2.429  51.165  1.00  0.00     0.016 C 
HETATM    3  C4  UNL     1      24.340   1.520  52.137  1.00  0.00     0.044 C 
HETATM    4  C5  UNL     1      24.809   2.214  53.415  1.00  0.00    -0.020 C 
HETATM    5  C6  UNL     1      25.939   2.910  53.515  1.00  0.00    -0.013 C 
HETATM    6  C7  UNL     1      26.916   2.320  52.514  1.00  0.00     0.105 C 
HETATM    7  C8  UNL     1      27.064   0.912  53.043  1.00  0.00     0.106 C 
HETATM    8  N1  UNL     1      26.952  -0.200  53.614  1.00  0.00    -0.258 NA
HETATM    9  C9  UNL     1      26.085  -0.857  54.482  1.00  0.00     0.226 C 
HETATM   10  N2  UNL     1      24.917  -1.265  54.950  1.00  0.00    -0.268 NA
HETATM   11  C10 UNL     1      23.693  -0.946  54.343  1.00  0.00     0.101 A 
HETATM   12  C11 UNL     1      23.580  -0.048  53.488  1.00  0.00     0.047 A 
HETATM   13  C12 UNL     1      23.123   0.885  52.475  1.00  0.00     0.001 A 
HETATM   14  C13 UNL     1      22.852  -0.161  53.330  1.00  0.00     0.025 A 
ENDROOT
BRANCH  14  15
HETATM   15  C14 UNL     1      21.438  -0.617  53.227  1.00  0.00    -0.010 C 
HETATM   16  C15 UNL     1      20.291  -0.025  52.946  1.00  0.00    -0.083 C 
HETATM   17  C16 UNL     1      18.851  -0.494  52.842  1.00  0.00     0.034 C 
HETATM   18  C19 UNL     1      19.962   1.410  52.605  1.00  0.00     0.034 C 
HETATM   19  C17 UNL     1      18.569  -0.118  51.378  1.00  0.00     0.005 C 
HETATM   20  C18 UNL     1      19.333   1.211  51.217  1.00  0.00     0.005 C 
ENDBRANCH  14  15
BRANCH   1  21
HETATM   21  O1  UNL     1      26.915   2.654  50.103  1.00  0.00    -0.359 OA
HETATM   22  C1  UNL     1      26.775   3.852  49.335  1.00  0.00     0.209 C 
ENDBRANCH   1  21
TORSDOF 2
ENDMDL
MODEL 9
REMARK VINA RESULT:      -7.6      2.391      3.294
REMARK  2 active torsions:
REMARK  status: ('A' for Active; 'I' for Inactive)
REMARK    1  A    between atoms: O1_2  and  C2_3 
REMARK    2  A    between atoms: C13_16  and  C14_17 
ROOT
HETATM    1  C2  UNL     1      22.199   3.592  48.382  1.00  0.00     0.055 C 
HETATM    2  C3  UNL     1      23.405   3.204  48.952  1.00  0.00     0.016 C 
HETATM    3  C4  UNL     1      23.084   2.559  50.150  1.00  0.00     0.044 C 
HETATM    4  C5  UNL     1      22.292   1.358  49.635  1.00  0.00    -0.020 C 
HETATM    5  C6  UNL     1      21.471   1.396  48.588  1.00  0.00    -0.013 C 
HETATM    6  C7  UNL     1      20.935   2.814  48.496  1.00  0.00     0.105 C 
HETATM    7  C8  UNL     1      20.194   2.933  49.808  1.00  0.00     0.106 C 
HETATM    8  N1  UNL     1      19.735   2.817  50.970  1.00  0.00    -0.258 NA
HETATM    9  C9  UNL     1      19.905   2.018  52.096  1.00  0.00     0.226 C 
HETATM   10  N2  UNL     1      20.579   1.368  53.032  1.00  0.00    -0.268 NA
HETATM   11  C10 UNL     1      21.980   1.355  53.099  1.00  0.00     0.101 A 
HETATM   12  C11 UNL     1      22.702   1.719  52.152  1.00  0.00     0.047 A 
HETATM   13  C12 UNL     1      23.797   2.090  51.276  1.00  0.00     0.001 A 
HETATM   14  C13 UNL     1      23.363   1.649  52.507  1.00  0.00     0.025 A 
ENDROOT
BRANCH  14  15
HETATM   15  C14 UNL     1      24.491   1.427  53.453  1.00  0.00    -0.010 C 
HETATM   16  C15 UNL     1      25.367   0.456  53.638  1.00  0.00    -0.083 C 
HETATM   17  C16 UNL     1      26.517   0.232  54.605  1.00  0.00     0.034 C 
HETATM   18  C19 UNL     1      25.568  -0.862  52.926  1.00  0.00     0.034 C 
HETATM   19  C17 UNL     1      27.670   0.094  53.596  1.00  0.00     0.005 C 
HETATM   20  C18 UNL     1      27.013  -0.675  52.435  1.00  0.00     0.005 C 
ENDBRANCH  14  15
BRANCH   1  21
HETATM   21  O1  UNL     1      22.114   4.768  47.653  1.00  0.00    -0.359 OA
HETATM   22  C1  UNL     1      23.086   5.799  47.842  1.00  0.00     0.209 C 
ENDBRANCH   1  21
TORSDOF 2
ENDMDL
