MODEL 1
REMARK VINA RESULT:      -8.8      0.000      0.000
REMARK  5 active torsions:
REMARK  status: ('A' for Active; 'I' for Inactive)
REMARK    1  A    between atoms: O1_1  and  C1_2 
REMARK    2  A    between atoms: C1_2  and  C2_3 
REMARK    3  A    between atoms: C2_3  and  N1_4 
REMARK    4  A    between atoms: C2_3  and  C13_18 
REMARK    5  A    between atoms: N1_4  and  C3_5 
ROOT
HETATM    1  C3  UNL     1      25.240   1.962  52.120  1.00  0.00     0.139 A 
HETATM    2  N2  UNL     1      25.722   2.815  51.212  1.00  0.00    -0.224 NA
HETATM    3  C4  UNL     1      25.083   3.276  50.161  1.00  0.00     0.236 A 
HETATM    4  N3  UNL     1      23.827   2.831  50.007  1.00  0.00    -0.234 NA
HETATM    5  C5  UNL     1      23.320   1.943  50.949  1.00  0.00     0.114 A 
HETATM    6  S1  UNL     1      21.731   1.270  50.915  1.00  0.00    -0.073 SA
HETATM    7  C6  UNL     1      22.012   0.300  52.464  1.00  0.00    -0.008 A 
HETATM    8  C7  UNL     1      23.253   0.616  52.786  1.00  0.00    -0.028 A 
HETATM    9  C8  UNL     1      23.951   1.467  52.016  1.00  0.00     0.053 A 
HETATM   10  C9  UNL     1      23.677  -0.098  54.030  1.00  0.00     0.041 C 
HETATM   11  C10 UNL     1      22.693  -1.106  54.509  1.00  0.00     0.005 C 
HETATM   12  C11 UNL     1      21.276  -0.652  54.530  1.00  0.00     0.005 C 
HETATM   13  C12 UNL     1      20.951  -0.559  53.031  1.00  0.00     0.047 C 
ENDROOT
BRANCH   1  14
HETATM   14  N1  UNL     1      26.167   1.637  53.177  1.00  0.00    -0.363 N 
HETATM   15  H5  UNL     1      25.967   1.527  54.189  1.00  0.00     0.162 HD
BRANCH  14  16
HETATM   16  C2  UNL     1      27.578   1.423  52.931  1.00  0.00     0.140 C 
BRANCH  16  17
HETATM   17  C1  UNL     1      28.486   2.261  53.799  1.00  0.00     0.194 C 
BRANCH  17  18
HETATM   18  O1  UNL     1      29.125   3.157  52.907  1.00  0.00    -0.399 OA
HETATM   19  H1  UNL     1      29.220   2.650  52.051  1.00  0.00     0.209 HD
ENDBRANCH  17  18
ENDBRANCH  16  17
BRANCH  16  20
HETATM   20  C13 UNL     1      27.912  -0.008  52.970  1.00  0.00    -0.034 A 
HETATM   21  C14 UNL     1      29.150  -0.498  53.400  1.00  0.00     0.009 A 
HETATM   22  C15 UNL     1      29.420  -1.837  53.420  1.00  0.00     0.001 A 
HETATM   23  C16 UNL     1      28.506  -2.788  53.024  1.00  0.00     0.000 A 
HETATM   24  C17 UNL     1      27.268  -2.328  52.593  1.00  0.00     0.001 A 
HETATM   25  C18 UNL     1      27.010  -0.992  52.577  1.00  0.00     0.009 A 
ENDBRANCH  16  20
ENDBRANCH  14  16
ENDBRANCH   1  14
TORSDOF 5
ENDMDL
MODEL 2
REMARK VINA RESULT:      -8.3      1.766      2.275
REMARK  5 active torsions:
REMARK  status: ('A' for Active; 'I' for Inactive)
REMARK    1  A    between atoms: O1_1  and  C1_2 
REMARK    2  A    between atoms: C1_2  and  C2_3 
REMARK    3  A    between atoms: C2_3  and  N1_4 
REMARK    4  A    between atoms: C2_3  and  C13_18 
REMARK    5  A    between atoms: N1_4  and  C3_5 
ROOT
HETATM    1  C3  UNL     1      23.819   3.398  52.104  1.00  0.00     0.139 A 
HETATM    2  N2  UNL     1      23.757   4.611  51.549  1.00  0.00    -0.224 NA
HETATM    3  C4  UNL     1      22.664   5.255  51.206  1.00  0.00     0.236 A 
HETATM    4  N3  UNL     1      21.514   4.610  51.448  1.00  0.00    -0.234 NA
HETATM    5  C5  UNL     1      21.572   3.346  52.025  1.00  0.00     0.114 A 
HETATM    6  S1  UNL     1      20.200   2.372  52.410  1.00  0.00    -0.073 SA
HETATM    7  C6  UNL     1      21.247   1.004  53.080  1.00  0.00    -0.008 A 
HETATM    8  C7  UNL     1      22.473   1.468  52.921  1.00  0.00    -0.028 A 
HETATM    9  C8  UNL     1      22.667   2.681  52.378  1.00  0.00     0.053 A 
HETATM   10  C9  UNL     1      23.483   0.475  53.400  1.00  0.00     0.041 C 
HETATM   11  C10 UNL     1      22.901  -0.842  53.773  1.00  0.00     0.005 C 
HETATM   12  C11 UNL     1      21.675  -0.780  54.614  1.00  0.00     0.005 C 
HETATM   13  C12 UNL     1      20.638  -0.230  53.621  1.00  0.00     0.047 C 
ENDROOT
BRANCH   1  14
HETATM   14  N1  UNL     1      25.160   2.943  52.383  1.00  0.00    -0.363 N 
HETATM   15  H5  UNL     1      25.758   3.183  53.196  1.00  0.00     0.162 HD
BRANCH  14  16
HETATM   16  C2  UNL     1      25.876   2.050  51.496  1.00  0.00     0.140 C 
BRANCH  16  17
HETATM   17  C1  UNL     1      26.454   2.729  50.278  1.00  0.00     0.194 C 
BRANCH  17  18
HETATM   18  O1  UNL     1      26.640   4.080  50.663  1.00  0.00    -0.399 OA
HETATM   19  H1  UNL     1      27.592   4.287  50.439  1.00  0.00     0.209 HD
ENDBRANCH  17  18
ENDBRANCH  16  17
BRANCH  16  20
HETATM   20  C13 UNL     1      26.869   1.254  52.231  1.00  0.00    -0.034 A 
HETATM   21  C14 UNL     1      27.923   1.818  52.957  1.00  0.00     0.009 A 
HETATM   22  C15 UNL     1      28.826   1.042  53.627  1.00  0.00     0.001 A 
HETATM   23  C16 UNL     1      28.763  -0.334  53.637  1.00  0.00     0.000 A 
HETATM   24  C17 UNL     1      27.724  -0.921  52.924  1.00  0.00     0.001 A 
HETATM   25  C18 UNL     1      26.832  -0.137  52.260  1.00  0.00     0.009 A 
ENDBRANCH  16  20
ENDBRANCH  14  16
ENDBRANCH   1  14
TORSDOF 5
ENDMDL
MODEL 3
REMARK VINA RESULT:      -8.2      2.630      4.401
REMARK  5 active torsions:
REMARK  status: ('A' for Active; 'I' for Inactive)
REMARK    1  A    between atoms: O1_1  and  C1_2 
REMARK    2  A    between atoms: C1_2  and  C2_3 
REMARK    3  A    between atoms: C2_3  and  N1_4 
REMARK    4  A    between atoms: C2_3  and  C13_18 
REMARK    5  A    between atoms: N1_4  and  C3_5 
ROOT
HETATM    1  C3  UNL     1      22.794   0.689  52.868  1.00  0.00     0.139 A 
HETATM    2  N2  UNL     1      21.559   0.465  53.325  1.00  0.00    -0.224 NA
HETATM    3  C4  UNL     1      20.520   1.255  53.178  1.00  0.00     0.236 A 
HETATM    4  N3  UNL     1      20.747   2.389  52.500  1.00  0.00    -0.234 NA
HETATM    5  C5  UNL     1      22.031   2.629  52.023  1.00  0.00     0.114 A 
HETATM    6  S1  UNL     1      22.507   4.027  51.131  1.00  0.00    -0.073 SA
HETATM    7  C6  UNL     1      24.254   3.443  50.975  1.00  0.00    -0.008 A 
HETATM    8  C7  UNL     1      24.235   2.286  51.611  1.00  0.00    -0.028 A 
HETATM    9  C8  UNL     1      23.092   1.842  52.162  1.00  0.00     0.053 A 
HETATM   10  C9  UNL     1      25.589   1.655  51.607  1.00  0.00     0.041 C 
HETATM   11  C10 UNL     1      26.659   2.530  51.055  1.00  0.00     0.005 C 
HETATM   12  C11 UNL     1      26.317   3.227  49.786  1.00  0.00     0.005 C 
HETATM   13  C12 UNL     1      25.267   4.246  50.257  1.00  0.00     0.047 C 
ENDROOT
BRANCH   1  14
HETATM   14  N1  UNL     1      23.737  -0.361  53.171  1.00  0.00    -0.363 N 
HETATM   15  H5  UNL     1      23.996  -1.174  52.581  1.00  0.00     0.162 HD
BRANCH  14  16
HETATM   16  C2  UNL     1      24.469  -0.409  54.419  1.00  0.00     0.140 C 
BRANCH  16  17
HETATM   17  C1  UNL     1      24.000  -1.489  55.364  1.00  0.00     0.194 C 
BRANCH  17  18
HETATM   18  O1  UNL     1      22.607  -1.275  55.507  1.00  0.00    -0.399 OA
HETATM   19  H1  UNL     1      22.512  -0.300  55.707  1.00  0.00     0.209 HD
ENDBRANCH  17  18
ENDBRANCH  16  17
BRANCH  16  20
HETATM   20  C13 UNL     1      25.919  -0.446  54.183  1.00  0.00    -0.034 A 
HETATM   21  C14 UNL     1      26.842   0.276  54.946  1.00  0.00     0.009 A 
HETATM   22  C15 UNL     1      28.184   0.214  54.693  1.00  0.00     0.001 A 
HETATM   23  C16 UNL     1      28.716  -0.555  53.682  1.00  0.00     0.000 A 
HETATM   24  C17 UNL     1      27.820  -1.285  52.909  1.00  0.00     0.001 A 
HETATM   25  C18 UNL     1      26.487  -1.214  53.171  1.00  0.00     0.009 A 
ENDBRANCH  16  20
ENDBRANCH  14  16
ENDBRANCH   1  14
TORSDOF 5
ENDMDL
MODEL 4
REMARK VINA RESULT:      -8.1      2.909      5.530
REMARK  5 active torsions:
REMARK  status: ('A' for Active; 'I' for Inactive)
REMARK    1  A    between atoms: O1_1  and  C1_2 
REMARK    2  A    between atoms: C1_2  and  C2_3 
REMARK    3  A    between atoms: C2_3  and  N1_4 
REMARK    4  A    between atoms: C2_3  and  C13_18 
REMARK    5  A    between atoms: N1_4  and  C3_5 
ROOT
HETATM    1  C3  UNL     1      23.056   3.373  52.305  1.00  0.00     0.139 A 
HETATM    2  N2  UNL     1      21.793   3.726  52.053  1.00  0.00    -0.224 NA
HETATM    3  C4  UNL     1      20.732   2.959  52.173  1.00  0.00     0.236 A 
HETATM    4  N3  UNL     1      20.969   1.707  52.590  1.00  0.00    -0.234 NA
HETATM    5  C5  UNL     1      22.282   1.334  52.853  1.00  0.00     0.114 A 
HETATM    6  S1  UNL     1      22.774  -0.228  53.398  1.00  0.00    -0.073 SA
HETATM    7  C6  UNL     1      24.558   0.253  53.448  1.00  0.00    -0.008 A 
HETATM    8  C7  UNL     1      24.534   1.511  53.050  1.00  0.00    -0.028 A 
HETATM    9  C8  UNL     1      23.365   2.095  52.737  1.00  0.00     0.053 A 
HETATM   10  C9  UNL     1      25.915   2.082  53.009  1.00  0.00     0.041 C 
HETATM   11  C10 UNL     1      26.987   1.079  53.250  1.00  0.00     0.005 C 
HETATM   12  C11 UNL     1      26.751   0.159  54.395  1.00  0.00     0.005 C 
HETATM   13  C12 UNL     1      25.597  -0.710  53.871  1.00  0.00     0.047 C 
ENDROOT
BRANCH   1  14
HETATM   14  N1  UNL     1      24.018   4.428  52.095  1.00  0.00    -0.363 N 
HETATM   15  H5  UNL     1      24.805   4.706  52.711  1.00  0.00     0.162 HD
BRANCH  14  16
HETATM   16  C2  UNL     1      23.987   5.284  50.926  1.00  0.00     0.140 C 
BRANCH  16  17
HETATM   17  C1  UNL     1      23.645   6.723  51.230  1.00  0.00     0.194 C 
BRANCH  17  18
HETATM   18  O1  UNL     1      22.274   6.708  51.589  1.00  0.00    -0.399 OA
HETATM   19  H1  UNL     1      22.202   6.029  52.318  1.00  0.00     0.209 HD
ENDBRANCH  17  18
ENDBRANCH  16  17
BRANCH  16  20
HETATM   20  C13 UNL     1      25.215   5.144  50.133  1.00  0.00    -0.034 A 
HETATM   21  C14 UNL     1      25.892   3.931  49.967  1.00  0.00     0.009 A 
HETATM   22  C15 UNL     1      27.033   3.844  49.221  1.00  0.00     0.001 A 
HETATM   23  C16 UNL     1      27.591   4.929  48.585  1.00  0.00     0.000 A 
HETATM   24  C17 UNL     1      26.939   6.148  48.732  1.00  0.00     0.001 A 
HETATM   25  C18 UNL     1      25.804   6.222  49.478  1.00  0.00     0.009 A 
ENDBRANCH  16  20
ENDBRANCH  14  16
ENDBRANCH   1  14
TORSDOF 5
ENDMDL
MODEL 5
REMARK VINA RESULT:      -8.1      2.707      5.951
REMARK  5 active torsions:
REMARK  status: ('A' for Active; 'I' for Inactive)
REMARK    1  A    between atoms: O1_1  and  C1_2 
REMARK    2  A    between atoms: C1_2  and  C2_3 
REMARK    3  A    between atoms: C2_3  and  N1_4 
REMARK    4  A    between atoms: C2_3  and  C13_18 
REMARK    5  A    between atoms: N1_4  and  C3_5 
ROOT
HETATM    1  C3  UNL     1      24.136   2.405  52.686  1.00  0.00     0.139 A 
HETATM    2  N2  UNL     1      22.819   2.207  52.572  1.00  0.00    -0.224 NA
HETATM    3  C4  UNL     1      22.169   1.107  52.875  1.00  0.00     0.236 A 
HETATM    4  N3  UNL     1      22.921   0.100  53.341  1.00  0.00    -0.234 NA
HETATM    5  C5  UNL     1      24.292   0.299  53.461  1.00  0.00     0.114 A 
HETATM    6  S1  UNL     1      25.413  -0.877  54.043  1.00  0.00    -0.073 SA
HETATM    7  C6  UNL     1      26.854   0.263  53.835  1.00  0.00    -0.008 A 
HETATM    8  C7  UNL     1      26.294   1.360  53.361  1.00  0.00    -0.028 A 
HETATM    9  C8  UNL     1      24.966   1.404  53.160  1.00  0.00     0.053 A 
HETATM   10  C9  UNL     1      27.322   2.415  53.109  1.00  0.00     0.041 C 
HETATM   11  C10 UNL     1      28.723   1.942  53.279  1.00  0.00     0.005 C 
HETATM   12  C11 UNL     1      28.977   1.136  54.503  1.00  0.00     0.005 C 
HETATM   13  C12 UNL     1      28.224  -0.166  54.187  1.00  0.00     0.047 C 
ENDROOT
BRANCH   1  14
HETATM   14  N1  UNL     1      24.573   3.721  52.286  1.00  0.00    -0.363 N 
HETATM   15  H5  UNL     1      25.224   4.355  52.786  1.00  0.00     0.162 HD
BRANCH  14  16
HETATM   16  C2  UNL     1      24.115   4.352  51.066  1.00  0.00     0.140 C 
BRANCH  16  17
HETATM   17  C1  UNL     1      23.135   5.479  51.290  1.00  0.00     0.194 C 
BRANCH  17  18
HETATM   18  O1  UNL     1      22.868   5.464  52.682  1.00  0.00    -0.399 OA
HETATM   19  H1  UNL     1      23.641   4.979  53.091  1.00  0.00     0.209 HD
ENDBRANCH  17  18
ENDBRANCH  16  17
BRANCH  16  20
HETATM   20  C13 UNL     1      25.246   4.741  50.212  1.00  0.00    -0.034 A 
HETATM   21  C14 UNL     1      26.236   3.847  49.792  1.00  0.00     0.009 A 
HETATM   22  C15 UNL     1      27.272   4.250  48.998  1.00  0.00     0.001 A 
HETATM   23  C16 UNL     1      27.414   5.547  48.559  1.00  0.00     0.000 A 
HETATM   24  C17 UNL     1      26.443   6.457  48.961  1.00  0.00     0.001 A 
HETATM   25  C18 UNL     1      25.416   6.043  49.752  1.00  0.00     0.009 A 
ENDBRANCH  16  20
ENDBRANCH  14  16
ENDBRANCH   1  14
TORSDOF 5
ENDMDL
MODEL 6
REMARK VINA RESULT:      -8.1      1.962      3.446
REMARK  5 active torsions:
REMARK  status: ('A' for Active; 'I' for Inactive)
REMARK    1  A    between atoms: O1_1  and  C1_2 
REMARK    2  A    between atoms: C1_2  and  C2_3 
REMARK    3  A    between atoms: C2_3  and  N1_4 
REMARK    4  A    between atoms: C2_3  and  C13_18 
REMARK    5  A    between atoms: N1_4  and  C3_5 
ROOT
HETATM    1  C3  UNL     1      24.446   0.006  54.073  1.00  0.00     0.139 A 
HETATM    2  N2  UNL     1      24.900  -0.645  55.148  1.00  0.00    -0.224 NA
HETATM    3  C4  UNL     1      24.215  -1.473  55.903  1.00  0.00     0.236 A 
HETATM    4  N3  UNL     1      22.939  -1.666  55.540  1.00  0.00    -0.234 NA
HETATM    5  C5  UNL     1      22.460  -0.990  54.423  1.00  0.00     0.114 A 
HETATM    6  S1  UNL     1      20.852  -1.116  53.807  1.00  0.00    -0.073 SA
HETATM    7  C6  UNL     1      21.194   0.063  52.425  1.00  0.00    -0.008 A 
HETATM    8  C7  UNL     1      22.459   0.384  52.619  1.00  0.00    -0.028 A 
HETATM    9  C8  UNL     1      23.138  -0.151  53.648  1.00  0.00     0.053 A 
HETATM   10  C9  UNL     1      22.924   1.362  51.588  1.00  0.00     0.041 C 
HETATM   11  C10 UNL     1      21.835   1.871  50.710  1.00  0.00     0.005 C 
HETATM   12  C11 UNL     1      20.910   0.833  50.180  1.00  0.00     0.005 C 
HETATM   13  C12 UNL     1      20.144   0.416  51.445  1.00  0.00     0.047 C 
ENDROOT
BRANCH   1  14
HETATM   14  N1  UNL     1      25.429   0.844  53.430  1.00  0.00    -0.363 N 
HETATM   15  H5  UNL     1      25.708   1.810  53.687  1.00  0.00     0.162 HD
BRANCH  14  16
HETATM   16  C2  UNL     1      26.181   0.408  52.272  1.00  0.00     0.140 C 
BRANCH  16  17
HETATM   17  C1  UNL     1      26.641   1.536  51.380  1.00  0.00     0.194 C 
BRANCH  17  18
HETATM   18  O1  UNL     1      26.545   2.702  52.180  1.00  0.00    -0.399 OA
HETATM   19  H1  UNL     1      25.847   2.491  52.865  1.00  0.00     0.209 HD
ENDBRANCH  17  18
ENDBRANCH  16  17
BRANCH  16  20
HETATM   20  C13 UNL     1      27.274  -0.496  52.658  1.00  0.00    -0.034 A 
HETATM   21  C14 UNL     1      28.484  -0.054  53.202  1.00  0.00     0.009 A 
HETATM   22  C15 UNL     1      29.475  -0.929  53.547  1.00  0.00     0.001 A 
HETATM   23  C16 UNL     1      29.356  -2.291  53.386  1.00  0.00     0.000 A 
HETATM   24  C17 UNL     1      28.163  -2.758  52.848  1.00  0.00     0.001 A 
HETATM   25  C18 UNL     1      27.183  -1.877  52.508  1.00  0.00     0.009 A 
ENDBRANCH  16  20
ENDBRANCH  14  16
ENDBRANCH   1  14
TORSDOF 5
ENDMDL
MODEL 7
REMARK VINA RESULT:      -8.0      2.504      4.789
REMARK  5 active torsions:
REMARK  status: ('A' for Active; 'I' for Inactive)
REMARK    1  A    between atoms: O1_1  and  C1_2 
REMARK    2  A    between atoms: C1_2  and  C2_3 
REMARK    3  A    between atoms: C2_3  and  N1_4 
REMARK    4  A    between atoms: C2_3  and  C13_18 
REMARK    5  A    between atoms: N1_4  and  C3_5 
ROOT
HETATM    1  C3  UNL     1      23.850  -0.199  53.499  1.00  0.00     0.139 A 
HETATM    2  N2  UNL     1      24.248  -0.803  54.622  1.00  0.00    -0.224 NA
HETATM    3  C4  UNL     1      23.473  -1.389  55.507  1.00  0.00     0.236 A 
HETATM    4  N3  UNL     1      22.161  -1.364  55.233  1.00  0.00    -0.234 NA
HETATM    5  C5  UNL     1      21.741  -0.735  54.066  1.00  0.00     0.114 A 
HETATM    6  S1  UNL     1      20.099  -0.607  53.550  1.00  0.00    -0.073 SA
HETATM    7  C6  UNL     1      20.559   0.319  52.018  1.00  0.00    -0.008 A 
HETATM    8  C7  UNL     1      21.873   0.402  52.108  1.00  0.00    -0.028 A 
HETATM    9  C8  UNL     1      22.509  -0.139  53.161  1.00  0.00     0.053 A 
HETATM   10  C9  UNL     1      22.440   1.148  50.943  1.00  0.00     0.041 C 
HETATM   11  C10 UNL     1      21.408   1.761  50.063  1.00  0.00     0.005 C 
HETATM   12  C11 UNL     1      20.266   0.875  49.711  1.00  0.00     0.005 C 
HETATM   13  C12 UNL     1      19.528   0.762  51.054  1.00  0.00     0.047 C 
ENDROOT
BRANCH   1  14
HETATM   14  N1  UNL     1      24.926   0.351  52.710  1.00  0.00    -0.363 N 
HETATM   15  H5  UNL     1      25.368  -0.056  51.864  1.00  0.00     0.162 HD
BRANCH  14  16
HETATM   16  C2  UNL     1      25.562   1.611  53.036  1.00  0.00     0.140 C 
BRANCH  16  17
HETATM   17  C1  UNL     1      26.931   1.465  53.656  1.00  0.00     0.194 C 
BRANCH  17  18
HETATM   18  O1  UNL     1      26.688   1.109  55.006  1.00  0.00    -0.399 OA
HETATM   19  H1  UNL     1      25.987   1.747  55.322  1.00  0.00     0.209 HD
ENDBRANCH  17  18
ENDBRANCH  16  17
BRANCH  16  20
HETATM   20  C13 UNL     1      25.550   2.525  51.886  1.00  0.00    -0.034 A 
HETATM   21  C14 UNL     1      24.621   3.559  51.733  1.00  0.00     0.009 A 
HETATM   22  C15 UNL     1      24.645   4.387  50.646  1.00  0.00     0.001 A 
HETATM   23  C16 UNL     1      25.573   4.265  49.637  1.00  0.00     0.000 A 
HETATM   24  C17 UNL     1      26.510   3.246  49.764  1.00  0.00     0.001 A 
HETATM   25  C18 UNL     1      26.476   2.428  50.851  1.00  0.00     0.009 A 
ENDBRANCH  16  20
ENDBRANCH  14  16
ENDBRANCH   1  14
TORSDOF 5
ENDMDL
MODEL 8
REMARK VINA RESULT:      -7.9      2.429      5.310
REMARK  5 active torsions:
REMARK  status: ('A' for Active; 'I' for Inactive)
REMARK    1  A    between atoms: O1_1  and  C1_2 
REMARK    2  A    between atoms: C1_2  and  C2_3 
REMARK    3  A    between atoms: C2_3  and  N1_4 
REMARK    4  A    between atoms: C2_3  and  C13_18 
REMARK    5  A    between atoms: N1_4  and  C3_5 
ROOT
HETATM    1  C3  UNL     1      26.536   2.022  52.101  1.00  0.00     0.139 A 
HETATM    2  N2  UNL     1      27.800   2.405  52.306  1.00  0.00    -0.224 NA
HETATM    3  C4  UNL     1      28.563   2.060  53.317  1.00  0.00     0.236 A 
HETATM    4  N3  UNL     1      27.996   1.245  54.218  1.00  0.00    -0.234 NA
HETATM    5  C5  UNL     1      26.681   0.843  54.011  1.00  0.00     0.114 A 
HETATM    6  S1  UNL     1      25.792  -0.202  55.058  1.00  0.00    -0.073 SA
HETATM    7  C6  UNL     1      24.281  -0.129  53.994  1.00  0.00    -0.008 A 
HETATM    8  C7  UNL     1      24.654   0.666  53.009  1.00  0.00    -0.028 A 
HETATM    9  C8  UNL     1      25.895   1.182  52.995  1.00  0.00     0.053 A 
HETATM   10  C9  UNL     1      23.538   0.864  52.034  1.00  0.00     0.041 C 
HETATM   11  C10 UNL     1      22.244   0.279  52.477  1.00  0.00     0.005 C 
HETATM   12  C11 UNL     1      22.325  -1.102  53.024  1.00  0.00     0.005 C 
HETATM   13  C12 UNL     1      23.055  -0.872  54.357  1.00  0.00     0.047 C 
ENDROOT
BRANCH   1  14
HETATM   14  N1  UNL     1      25.946   2.551  50.895  1.00  0.00    -0.363 N 
HETATM   15  H5  UNL     1      25.729   2.044  50.016  1.00  0.00     0.162 HD
BRANCH  14  16
HETATM   16  C2  UNL     1      25.573   3.944  50.761  1.00  0.00     0.140 C 
BRANCH  16  17
HETATM   17  C1  UNL     1      26.118   4.608  49.520  1.00  0.00     0.194 C 
BRANCH  17  18
HETATM   18  O1  UNL     1      27.509   4.336  49.537  1.00  0.00    -0.399 OA
HETATM   19  H1  UNL     1      27.930   5.098  49.046  1.00  0.00     0.209 HD
ENDBRANCH  17  18
ENDBRANCH  16  17
BRANCH  16  20
HETATM   20  C13 UNL     1      24.122   4.121  50.913  1.00  0.00    -0.034 A 
HETATM   21  C14 UNL     1      23.518   4.553  52.098  1.00  0.00     0.009 A 
HETATM   22  C15 UNL     1      22.164   4.705  52.197  1.00  0.00     0.001 A 
HETATM   23  C16 UNL     1      21.307   4.447  51.151  1.00  0.00     0.000 A 
HETATM   24  C17 UNL     1      21.880   4.017  49.960  1.00  0.00     0.001 A 
HETATM   25  C18 UNL     1      23.231   3.870  49.874  1.00  0.00     0.009 A 
ENDBRANCH  16  20
ENDBRANCH  14  16
ENDBRANCH   1  14
TORSDOF 5
ENDMDL
MODEL 9
REMARK VINA RESULT:      -7.7      2.206      5.319
REMARK  5 active torsions:
REMARK  status: ('A' for Active; 'I' for Inactive)
REMARK    1  A    between atoms: O1_1  and  C1_2 
REMARK    2  A    between atoms: C1_2  and  C2_3 
REMARK    3  A    between atoms: C2_3  and  N1_4 
REMARK    4  A    between atoms: C2_3  and  C13_18 
REMARK    5  A    between atoms: N1_4  and  C3_5 
ROOT
HETATM    1  C3  UNL     1      24.853   0.665  52.553  1.00  0.00     0.139 A 
HETATM    2  N2  UNL     1      26.083   0.372  52.984  1.00  0.00    -0.224 NA
HETATM    3  C4  UNL     1      26.387  -0.391  54.009  1.00  0.00     0.236 A 
HETATM    4  N3  UNL     1      25.345  -0.912  54.671  1.00  0.00    -0.234 NA
HETATM    5  C5  UNL     1      24.062  -0.610  54.229  1.00  0.00     0.114 A 
HETATM    6  S1  UNL     1      22.606  -1.190  54.951  1.00  0.00    -0.073 SA
HETATM    7  C6  UNL     1      21.540  -0.300  53.731  1.00  0.00    -0.008 A 
HETATM    8  C7  UNL     1      22.421   0.305  52.957  1.00  0.00    -0.028 A 
HETATM    9  C8  UNL     1      23.736   0.158  53.195  1.00  0.00     0.053 A 
HETATM   10  C9  UNL     1      21.737   1.106  51.897  1.00  0.00     0.041 C 
HETATM   11  C10 UNL     1      20.259   1.178  52.058  1.00  0.00     0.005 C 
HETATM   12  C11 UNL     1      19.590  -0.116  52.360  1.00  0.00     0.005 C 
HETATM   13  C12 UNL     1      20.065  -0.391  53.796  1.00  0.00     0.047 C 
ENDROOT
BRANCH   1  14
HETATM   14  N1  UNL     1      24.821   1.523  51.393  1.00  0.00    -0.363 N 
HETATM   15  H5  UNL     1      24.612   1.259  50.412  1.00  0.00     0.162 HD
BRANCH  14  16
HETATM   16  C2  UNL     1      25.106   2.941  51.469  1.00  0.00     0.140 C 
BRANCH  16  17
HETATM   17  C1  UNL     1      26.327   3.363  50.688  1.00  0.00     0.194 C 
BRANCH  17  18
HETATM   18  O1  UNL     1      27.429   2.986  51.494  1.00  0.00    -0.399 OA
HETATM   19  H1  UNL     1      28.212   2.962  50.872  1.00  0.00     0.209 HD
ENDBRANCH  17  18
ENDBRANCH  16  17
BRANCH  16  20
HETATM   20  C13 UNL     1      23.916   3.739  51.145  1.00  0.00    -0.034 A 
HETATM   21  C14 UNL     1      23.394   3.854  49.852  1.00  0.00     0.009 A 
HETATM   22  C15 UNL     1      22.284   4.609  49.593  1.00  0.00     0.001 A 
HETATM   23  C16 UNL     1      21.609   5.300  50.573  1.00  0.00     0.000 A 
HETATM   24  C17 UNL     1      22.105   5.203  51.868  1.00  0.00     0.001 A 
HETATM   25  C18 UNL     1      23.211   4.449  52.113  1.00  0.00     0.009 A 
ENDBRANCH  16  20
ENDBRANCH  14  16
ENDBRANCH   1  14
TORSDOF 5
ENDMDL
