MODEL 1
REMARK VINA RESULT:      -7.2      0.000      0.000
REMARK  6 active torsions:
REMARK  status: ('A' for Active; 'I' for Inactive)
REMARK    1  A    between atoms: O1_2  and  C2_3 
REMARK    2  A    between atoms: C5_6  and  C6_7 
REMARK    3  A    between atoms: C6_7  and  C7_8 
REMARK    4  A    between atoms: C7_8  and  N1_9 
REMARK    5  A    between atoms: N1_9  and  S1_10 
REMARK    6  A    between atoms: S1_10  and  C8_13 
ROOT
HETATM    1  N1  UNL     1      27.231   0.053  52.942  1.00  0.00    -0.215 NA
HETATM    2  H10 UNL     1      27.726  -0.431  53.698  1.00  0.00     0.139 HD
ENDROOT
BRANCH   1   3
HETATM    3  C7  UNL     1      25.886  -0.460  52.735  1.00  0.00     0.109 C 
BRANCH   3   4
HETATM    4  C6  UNL     1      25.130  -0.578  54.054  1.00  0.00     0.054 C 
BRANCH   4   5
HETATM    5  C5  UNL     1      23.652  -0.572  53.835  1.00  0.00    -0.057 A 
HETATM    6  C4  UNL     1      22.811  -1.132  54.795  1.00  0.00     0.010 A 
HETATM    7  C3  UNL     1      21.419  -1.163  54.659  1.00  0.00     0.037 A 
HETATM    8  C2  UNL     1      20.881  -0.603  53.506  1.00  0.00     0.068 A 
HETATM    9  C15 UNL     1      21.684  -0.050  52.553  1.00  0.00     0.037 A 
HETATM   10  C14 UNL     1      23.050  -0.039  52.723  1.00  0.00     0.010 A 
BRANCH   8  11
HETATM   11  O1  UNL     1      19.478  -0.707  53.508  1.00  0.00    -0.356 OA
HETATM   12  C1  UNL     1      18.697  -0.320  52.418  1.00  0.00     0.210 C 
ENDBRANCH   8  11
ENDBRANCH   4   5
ENDBRANCH   3   4
ENDBRANCH   1   3
BRANCH   1  13
HETATM   13  S1  UNL     1      27.159   1.753  53.055  1.00  0.00     0.241 S 
HETATM   14  O2  UNL     1      26.776   2.177  54.447  1.00  0.00    -0.206 OA
HETATM   15  O3  UNL     1      28.557   2.280  52.826  1.00  0.00    -0.206 OA
BRANCH  13  16
HETATM   16  C8  UNL     1      26.086   2.493  51.917  1.00  0.00     0.074 A 
HETATM   17  C9  UNL     1      24.775   2.912  52.164  1.00  0.00     0.026 A 
HETATM   18  C10 UNL     1      24.008   3.491  51.179  1.00  0.00     0.025 A 
HETATM   19  C11 UNL     1      24.513   3.680  49.900  1.00  0.00     0.034 A 
HETATM   20 CL1  UNL     1      23.506   4.422  48.668  1.00  0.00    -0.084 Cl
HETATM   21  C12 UNL     1      25.801   3.285  49.596  1.00  0.00     0.025 A 
HETATM   22  C13 UNL     1      26.546   2.704  50.615  1.00  0.00     0.026 A 
ENDBRANCH  13  16
ENDBRANCH   1  13
TORSDOF 6
ENDMDL
MODEL 2
REMARK VINA RESULT:      -7.2      3.554      5.425
REMARK  6 active torsions:
REMARK  status: ('A' for Active; 'I' for Inactive)
REMARK    1  A    between atoms: O1_2  and  C2_3 
REMARK    2  A    between atoms: C5_6  and  C6_7 
REMARK    3  A    between atoms: C6_7  and  C7_8 
REMARK    4  A    between atoms: C7_8  and  N1_9 
REMARK    5  A    between atoms: N1_9  and  S1_10 
REMARK    6  A    between atoms: S1_10  and  C8_13 
ROOT
HETATM    1  N1  UNL     1      22.620   3.459  51.890  1.00  0.00    -0.215 NA
HETATM    2  H10 UNL     1      21.643   3.588  52.172  1.00  0.00     0.139 HD
ENDROOT
BRANCH   1   3
HETATM    3  C7  UNL     1      23.251   2.332  52.557  1.00  0.00     0.109 C 
BRANCH   3   4
HETATM    4  C6  UNL     1      24.566   2.742  53.213  1.00  0.00     0.054 C 
BRANCH   4   5
HETATM    5  C5  UNL     1      25.548   1.617  53.210  1.00  0.00    -0.057 A 
HETATM    6  C4  UNL     1      26.540   1.566  54.188  1.00  0.00     0.010 A 
HETATM    7  C3  UNL     1      27.494   0.543  54.249  1.00  0.00     0.037 A 
HETATM    8  C2  UNL     1      27.423  -0.449  53.279  1.00  0.00     0.068 A 
HETATM    9  C15 UNL     1      26.461  -0.420  52.312  1.00  0.00     0.037 A 
HETATM   10  C14 UNL     1      25.541   0.602  52.285  1.00  0.00     0.010 A 
BRANCH   8  11
HETATM   11  O1  UNL     1      28.439  -1.404  53.466  1.00  0.00    -0.356 OA
HETATM   12  C1  UNL     1      29.772  -1.048  53.679  1.00  0.00     0.210 C 
ENDBRANCH   8  11
ENDBRANCH   4   5
ENDBRANCH   3   4
ENDBRANCH   1   3
BRANCH   1  13
HETATM   13  S1  UNL     1      22.911   3.338  50.214  1.00  0.00     0.241 S 
HETATM   14  O2  UNL     1      22.763   1.913  49.751  1.00  0.00    -0.206 OA
HETATM   15  O3  UNL     1      21.827   4.121  49.510  1.00  0.00    -0.206 OA
BRANCH  13  16
HETATM   16  C8  UNL     1      24.454   3.942  49.718  1.00  0.00     0.074 A 
HETATM   17  C9  UNL     1      25.670   3.253  49.766  1.00  0.00     0.026 A 
HETATM   18  C10 UNL     1      26.844   3.834  49.344  1.00  0.00     0.025 A 
HETATM   19  C11 UNL     1      26.859   5.132  48.852  1.00  0.00     0.034 A 
HETATM   20 CL1  UNL     1      28.375   5.843  48.321  1.00  0.00    -0.084 Cl
HETATM   21  C12 UNL     1      25.690   5.863  48.781  1.00  0.00     0.025 A 
HETATM   22  C13 UNL     1      24.525   5.244  49.216  1.00  0.00     0.026 A 
ENDBRANCH  13  16
ENDBRANCH   1  13
TORSDOF 6
ENDMDL
MODEL 3
REMARK VINA RESULT:      -7.1      1.306      1.772
REMARK  6 active torsions:
REMARK  status: ('A' for Active; 'I' for Inactive)
REMARK    1  A    between atoms: O1_2  and  C2_3 
REMARK    2  A    between atoms: C5_6  and  C6_7 
REMARK    3  A    between atoms: C6_7  and  C7_8 
REMARK    4  A    between atoms: C7_8  and  N1_9 
REMARK    5  A    between atoms: N1_9  and  S1_10 
REMARK    6  A    between atoms: S1_10  and  C8_13 
ROOT
HETATM    1  N1  UNL     1      26.772  -0.305  54.906  1.00  0.00    -0.215 NA
HETATM    2  H10 UNL     1      26.521   0.022  55.844  1.00  0.00     0.139 HD
ENDROOT
BRANCH   1   3
HETATM    3  C7  UNL     1      25.666  -0.958  54.226  1.00  0.00     0.109 C 
BRANCH   3   4
HETATM    4  C6  UNL     1      24.418  -0.991  55.103  1.00  0.00     0.054 C 
BRANCH   4   5
HETATM    5  C5  UNL     1      23.186  -0.716  54.306  1.00  0.00    -0.057 A 
HETATM    6  C4  UNL     1      21.933  -0.947  54.870  1.00  0.00     0.010 A 
HETATM    7  C3  UNL     1      20.736  -0.712  54.185  1.00  0.00     0.037 A 
HETATM    8  C2  UNL     1      20.833  -0.227  52.886  1.00  0.00     0.068 A 
HETATM    9  C15 UNL     1      22.048   0.006  52.312  1.00  0.00     0.037 A 
HETATM   10  C14 UNL     1      23.203  -0.237  53.019  1.00  0.00     0.010 A 
BRANCH   8  11
HETATM   11  O1  UNL     1      19.556  -0.040  52.326  1.00  0.00    -0.356 OA
HETATM   12  C1  UNL     1      19.328   0.821  51.252  1.00  0.00     0.210 C 
ENDBRANCH   8  11
ENDBRANCH   4   5
ENDBRANCH   3   4
ENDBRANCH   1   3
BRANCH   1  13
HETATM   13  S1  UNL     1      27.449   0.859  53.858  1.00  0.00     0.241 S 
HETATM   14  O2  UNL     1      28.327   1.814  54.622  1.00  0.00    -0.206 OA
HETATM   15  O3  UNL     1      28.361   0.126  52.901  1.00  0.00    -0.206 OA
BRANCH  13  16
HETATM   16  C8  UNL     1      26.283   1.756  52.949  1.00  0.00     0.074 A 
HETATM   17  C9  UNL     1      26.175   1.804  51.556  1.00  0.00     0.026 A 
HETATM   18  C10 UNL     1      25.203   2.556  50.936  1.00  0.00     0.025 A 
HETATM   19  C11 UNL     1      24.291   3.294  51.677  1.00  0.00     0.034 A 
HETATM   20 CL1  UNL     1      23.064   4.241  50.852  1.00  0.00    -0.084 Cl
HETATM   21  C12 UNL     1      24.348   3.286  53.057  1.00  0.00     0.025 A 
HETATM   22  C13 UNL     1      25.342   2.516  53.648  1.00  0.00     0.026 A 
ENDBRANCH  13  16
ENDBRANCH   1  13
TORSDOF 6
ENDMDL
MODEL 4
REMARK VINA RESULT:      -7.1      4.330      8.269
REMARK  6 active torsions:
REMARK  status: ('A' for Active; 'I' for Inactive)
REMARK    1  A    between atoms: O1_2  and  C2_3 
REMARK    2  A    between atoms: C5_6  and  C6_7 
REMARK    3  A    between atoms: C6_7  and  C7_8 
REMARK    4  A    between atoms: C7_8  and  N1_9 
REMARK    5  A    between atoms: N1_9  and  S1_10 
REMARK    6  A    between atoms: S1_10  and  C8_13 
ROOT
HETATM    1  N1  UNL     1      25.284   3.917  51.323  1.00  0.00    -0.215 NA
HETATM    2  H10 UNL     1      26.097   4.449  51.648  1.00  0.00     0.139 HD
ENDROOT
BRANCH   1   3
HETATM    3  C7  UNL     1      25.335   3.633  49.898  1.00  0.00     0.109 C 
BRANCH   3   4
HETATM    4  C6  UNL     1      26.772   3.621  49.387  1.00  0.00     0.054 C 
BRANCH   4   5
HETATM    5  C5  UNL     1      27.148   4.939  48.792  1.00  0.00    -0.057 A 
HETATM    6  C4  UNL     1      28.470   5.176  48.422  1.00  0.00     0.010 A 
HETATM    7  C3  UNL     1      28.896   6.385  47.860  1.00  0.00     0.037 A 
HETATM    8  C2  UNL     1      27.935   7.371  47.674  1.00  0.00     0.068 A 
HETATM    9  C15 UNL     1      26.635   7.162  48.028  1.00  0.00     0.037 A 
HETATM   10  C14 UNL     1      26.255   5.960  48.579  1.00  0.00     0.010 A 
BRANCH   8  11
HETATM   11  O1  UNL     1      28.506   8.524  47.103  1.00  0.00    -0.356 OA
HETATM   12  C1  UNL     1      29.871   8.629  46.834  1.00  0.00     0.210 C 
ENDBRANCH   8  11
ENDBRANCH   4   5
ENDBRANCH   3   4
ENDBRANCH   1   3
BRANCH   1  13
HETATM   13  S1  UNL     1      24.945   2.469  52.159  1.00  0.00     0.241 S 
HETATM   14  O2  UNL     1      24.107   2.744  53.379  1.00  0.00    -0.206 OA
HETATM   15  O3  UNL     1      24.094   1.613  51.250  1.00  0.00    -0.206 OA
BRANCH  13  16
HETATM   16  C8  UNL     1      26.351   1.574  52.621  1.00  0.00     0.074 A 
HETATM   17  C9  UNL     1      27.524   2.098  53.173  1.00  0.00     0.026 A 
HETATM   18  C10 UNL     1      28.587   1.289  53.505  1.00  0.00     0.025 A 
HETATM   19  C11 UNL     1      28.529  -0.083  53.302  1.00  0.00     0.034 A 
HETATM   20 CL1  UNL     1      29.903  -1.085  53.737  1.00  0.00    -0.084 Cl
HETATM   21  C12 UNL     1      27.397  -0.658  52.760  1.00  0.00     0.025 A 
HETATM   22  C13 UNL     1      26.344   0.189  52.437  1.00  0.00     0.026 A 
ENDBRANCH  13  16
ENDBRANCH   1  13
TORSDOF 6
ENDMDL
MODEL 5
REMARK VINA RESULT:      -7.1      2.600      4.764
REMARK  6 active torsions:
REMARK  status: ('A' for Active; 'I' for Inactive)
REMARK    1  A    between atoms: O1_2  and  C2_3 
REMARK    2  A    between atoms: C5_6  and  C6_7 
REMARK    3  A    between atoms: C6_7  and  C7_8 
REMARK    4  A    between atoms: C7_8  and  N1_9 
REMARK    5  A    between atoms: N1_9  and  S1_10 
REMARK    6  A    between atoms: S1_10  and  C8_13 
ROOT
HETATM    1  N1  UNL     1      26.935   0.663  52.198  1.00  0.00    -0.215 NA
HETATM    2  H10 UNL     1      26.346   0.214  51.489  1.00  0.00     0.139 HD
ENDROOT
BRANCH   1   3
HETATM    3  C7  UNL     1      27.017   2.105  52.026  1.00  0.00     0.109 C 
BRANCH   3   4
HETATM    4  C6  UNL     1      26.185   2.568  50.835  1.00  0.00     0.054 C 
BRANCH   4   5
HETATM    5  C5  UNL     1      24.776   2.859  51.236  1.00  0.00    -0.057 A 
HETATM    6  C4  UNL     1      23.727   2.453  50.413  1.00  0.00     0.010 A 
HETATM    7  C3  UNL     1      22.383   2.689  50.723  1.00  0.00     0.037 A 
HETATM    8  C2  UNL     1      22.115   3.361  51.910  1.00  0.00     0.068 A 
HETATM    9  C15 UNL     1      23.124   3.768  52.731  1.00  0.00     0.037 A 
HETATM   10  C14 UNL     1      24.434   3.517  52.391  1.00  0.00     0.010 A 
BRANCH   8  11
HETATM   11  O1  UNL     1      20.729   3.526  52.088  1.00  0.00    -0.356 OA
HETATM   12  C1  UNL     1      19.855   2.445  52.213  1.00  0.00     0.210 C 
ENDBRANCH   8  11
ENDBRANCH   4   5
ENDBRANCH   3   4
ENDBRANCH   1   3
BRANCH   1  13
HETATM   13  S1  UNL     1      26.548   0.325  53.824  1.00  0.00     0.241 S 
HETATM   14  O2  UNL     1      27.537  -0.645  54.415  1.00  0.00    -0.206 OA
HETATM   15  O3  UNL     1      26.708   1.612  54.601  1.00  0.00    -0.206 OA
BRANCH  13  16
HETATM   16  C8  UNL     1      24.945  -0.279  54.059  1.00  0.00     0.074 A 
HETATM   17  C9  UNL     1      24.481  -0.994  55.167  1.00  0.00     0.026 A 
HETATM   18  C10 UNL     1      23.178  -1.429  55.249  1.00  0.00     0.025 A 
HETATM   19  C11 UNL     1      22.275  -1.169  54.228  1.00  0.00     0.034 A 
HETATM   20 CL1  UNL     1      20.619  -1.738  54.366  1.00  0.00    -0.084 Cl
HETATM   21  C12 UNL     1      22.674  -0.467  53.108  1.00  0.00     0.025 A 
HETATM   22  C13 UNL     1      23.997  -0.045  53.060  1.00  0.00     0.026 A 
ENDBRANCH  13  16
ENDBRANCH   1  13
TORSDOF 6
ENDMDL
MODEL 6
REMARK VINA RESULT:      -7.0      4.028      7.707
REMARK  6 active torsions:
REMARK  status: ('A' for Active; 'I' for Inactive)
REMARK    1  A    between atoms: O1_2  and  C2_3 
REMARK    2  A    between atoms: C5_6  and  C6_7 
REMARK    3  A    between atoms: C6_7  and  C7_8 
REMARK    4  A    between atoms: C7_8  and  N1_9 
REMARK    5  A    between atoms: N1_9  and  S1_10 
REMARK    6  A    between atoms: S1_10  and  C8_13 
ROOT
HETATM    1  N1  UNL     1      24.026   2.214  50.945  1.00  0.00    -0.215 NA
HETATM    2  H10 UNL     1      23.037   2.121  50.694  1.00  0.00     0.139 HD
ENDROOT
BRANCH   1   3
HETATM    3  C7  UNL     1      24.589   3.491  50.537  1.00  0.00     0.109 C 
BRANCH   3   4
HETATM    4  C6  UNL     1      25.847   3.299  49.696  1.00  0.00     0.054 C 
BRANCH   4   5
HETATM    5  C5  UNL     1      26.448   4.610  49.309  1.00  0.00    -0.057 A 
HETATM    6  C4  UNL     1      25.772   5.792  49.603  1.00  0.00     0.010 A 
HETATM    7  C3  UNL     1      26.272   7.056  49.272  1.00  0.00     0.037 A 
HETATM    8  C2  UNL     1      27.499   7.102  48.622  1.00  0.00     0.068 A 
HETATM    9  C15 UNL     1      28.179   5.959  48.323  1.00  0.00     0.037 A 
HETATM   10  C14 UNL     1      27.654   4.734  48.665  1.00  0.00     0.010 A 
BRANCH   8  11
HETATM   11  O1  UNL     1      27.873   8.432  48.354  1.00  0.00    -0.356 OA
HETATM   12  C1  UNL     1      27.824   9.434  49.324  1.00  0.00     0.210 C 
ENDBRANCH   8  11
ENDBRANCH   4   5
ENDBRANCH   3   4
ENDBRANCH   1   3
BRANCH   1  13
HETATM   13  S1  UNL     1      24.419   1.940  52.582  1.00  0.00     0.241 S 
HETATM   14  O2  UNL     1      24.437   3.235  53.348  1.00  0.00    -0.206 OA
HETATM   15  O3  UNL     1      23.303   1.114  53.180  1.00  0.00    -0.206 OA
BRANCH  13  16
HETATM   16  C8  UNL     1      25.920   1.114  52.820  1.00  0.00     0.074 A 
HETATM   17  C9  UNL     1      26.183  -0.229  52.534  1.00  0.00     0.026 A 
HETATM   18  C10 UNL     1      27.421  -0.784  52.765  1.00  0.00     0.025 A 
HETATM   19  C11 UNL     1      28.456  -0.025  53.293  1.00  0.00     0.034 A 
HETATM   20 CL1  UNL     1      30.023  -0.766  53.574  1.00  0.00    -0.084 Cl
HETATM   21  C12 UNL     1      28.256   1.308  53.596  1.00  0.00     0.025 A 
HETATM   22  C13 UNL     1      26.994   1.834  53.350  1.00  0.00     0.026 A 
ENDBRANCH  13  16
ENDBRANCH   1  13
TORSDOF 6
ENDMDL
MODEL 7
REMARK VINA RESULT:      -7.0      3.307      5.244
REMARK  6 active torsions:
REMARK  status: ('A' for Active; 'I' for Inactive)
REMARK    1  A    between atoms: O1_2  and  C2_3 
REMARK    2  A    between atoms: C5_6  and  C6_7 
REMARK    3  A    between atoms: C6_7  and  C7_8 
REMARK    4  A    between atoms: C7_8  and  N1_9 
REMARK    5  A    between atoms: N1_9  and  S1_10 
REMARK    6  A    between atoms: S1_10  and  C8_13 
ROOT
HETATM    1  N1  UNL     1      22.444   2.910  50.907  1.00  0.00    -0.215 NA
HETATM    2  H10 UNL     1      22.884   2.216  50.294  1.00  0.00     0.139 HD
ENDROOT
BRANCH   1   3
HETATM    3  C7  UNL     1      22.431   2.497  52.301  1.00  0.00     0.109 C 
BRANCH   3   4
HETATM    4  C6  UNL     1      22.846   1.036  52.450  1.00  0.00     0.054 C 
BRANCH   4   5
HETATM    5  C5  UNL     1      24.194   0.916  53.082  1.00  0.00    -0.057 A 
HETATM    6  C4  UNL     1      24.989   2.050  53.230  1.00  0.00     0.010 A 
HETATM    7  C3  UNL     1      26.262   2.015  53.811  1.00  0.00     0.037 A 
HETATM    8  C2  UNL     1      26.724   0.781  54.251  1.00  0.00     0.068 A 
HETATM    9  C15 UNL     1      25.964  -0.343  54.116  1.00  0.00     0.037 A 
HETATM   10  C14 UNL     1      24.717  -0.268  53.538  1.00  0.00     0.010 A 
BRANCH   8  11
HETATM   11  O1  UNL     1      28.010   0.899  54.810  1.00  0.00    -0.356 OA
HETATM   12  C1  UNL     1      29.035   1.612  54.187  1.00  0.00     0.210 C 
ENDBRANCH   8  11
ENDBRANCH   4   5
ENDBRANCH   3   4
ENDBRANCH   1   3
BRANCH   1  13
HETATM   13  S1  UNL     1      23.057   4.498  50.811  1.00  0.00     0.241 S 
HETATM   14  O2  UNL     1      22.106   5.390  50.057  1.00  0.00    -0.206 OA
HETATM   15  O3  UNL     1      23.115   5.044  52.219  1.00  0.00    -0.206 OA
BRANCH  13  16
HETATM   16  C8  UNL     1      24.629   4.608  50.099  1.00  0.00     0.074 A 
HETATM   17  C9  UNL     1      25.562   3.573  49.983  1.00  0.00     0.026 A 
HETATM   18  C10 UNL     1      26.790   3.774  49.395  1.00  0.00     0.025 A 
HETATM   19  C11 UNL     1      27.145   5.018  48.894  1.00  0.00     0.034 A 
HETATM   20 CL1  UNL     1      28.720   5.239  48.150  1.00  0.00    -0.084 Cl
HETATM   21  C12 UNL     1      26.266   6.080  48.980  1.00  0.00     0.025 A 
HETATM   22  C13 UNL     1      25.036   5.840  49.580  1.00  0.00     0.026 A 
ENDBRANCH  13  16
ENDBRANCH   1  13
TORSDOF 6
ENDMDL
MODEL 8
REMARK VINA RESULT:      -7.0      3.358      7.470
REMARK  6 active torsions:
REMARK  status: ('A' for Active; 'I' for Inactive)
REMARK    1  A    between atoms: O1_2  and  C2_3 
REMARK    2  A    between atoms: C5_6  and  C6_7 
REMARK    3  A    between atoms: C6_7  and  C7_8 
REMARK    4  A    between atoms: C7_8  and  N1_9 
REMARK    5  A    between atoms: N1_9  and  S1_10 
REMARK    6  A    between atoms: S1_10  and  C8_13 
ROOT
HETATM    1  N1  UNL     1      26.147   2.867  52.217  1.00  0.00    -0.215 NA
HETATM    2  H10 UNL     1      26.776   3.577  52.605  1.00  0.00     0.139 HD
ENDROOT
BRANCH   1   3
HETATM    3  C7  UNL     1      26.424   2.579  50.818  1.00  0.00     0.109 C 
BRANCH   3   4
HETATM    4  C6  UNL     1      25.454   3.315  49.899  1.00  0.00     0.054 C 
BRANCH   4   5
HETATM    5  C5  UNL     1      26.086   4.531  49.305  1.00  0.00    -0.057 A 
HETATM    6  C4  UNL     1      27.427   4.498  48.929  1.00  0.00     0.010 A 
HETATM    7  C3  UNL     1      28.086   5.596  48.367  1.00  0.00     0.037 A 
HETATM    8  C2  UNL     1      27.344   6.758  48.188  1.00  0.00     0.068 A 
HETATM    9  C15 UNL     1      26.031   6.815  48.549  1.00  0.00     0.037 A 
HETATM   10  C14 UNL     1      25.418   5.713  49.099  1.00  0.00     0.010 A 
BRANCH   8  11
HETATM   11  O1  UNL     1      28.134   7.772  47.616  1.00  0.00    -0.356 OA
HETATM   12  C1  UNL     1      29.368   8.150  48.147  1.00  0.00     0.210 C 
ENDBRANCH   8  11
ENDBRANCH   4   5
ENDBRANCH   3   4
ENDBRANCH   1   3
BRANCH   1  13
HETATM   13  S1  UNL     1      26.053   1.394  53.072  1.00  0.00     0.241 S 
HETATM   14  O2  UNL     1      26.935   0.354  52.435  1.00  0.00    -0.206 OA
HETATM   15  O3  UNL     1      26.620   1.637  54.451  1.00  0.00    -0.206 OA
BRANCH  13  16
HETATM   16  C8  UNL     1      24.448   0.767  53.225  1.00  0.00     0.074 A 
HETATM   17  C9  UNL     1      24.088  -0.461  53.788  1.00  0.00     0.026 A 
HETATM   18  C10 UNL     1      22.773  -0.862  53.858  1.00  0.00     0.025 A 
HETATM   19  C11 UNL     1      21.755  -0.054  53.371  1.00  0.00     0.034 A 
HETATM   20 CL1  UNL     1      20.088  -0.596  53.478  1.00  0.00    -0.084 Cl
HETATM   21  C12 UNL     1      22.049   1.170  52.804  1.00  0.00     0.025 A 
HETATM   22  C13 UNL     1      23.387   1.541  52.750  1.00  0.00     0.026 A 
ENDBRANCH  13  16
ENDBRANCH   1  13
TORSDOF 6
ENDMDL
MODEL 9
REMARK VINA RESULT:      -6.9      3.979      5.597
REMARK  6 active torsions:
REMARK  status: ('A' for Active; 'I' for Inactive)
REMARK    1  A    between atoms: O1_2  and  C2_3 
REMARK    2  A    between atoms: C5_6  and  C6_7 
REMARK    3  A    between atoms: C6_7  and  C7_8 
REMARK    4  A    between atoms: C7_8  and  N1_9 
REMARK    5  A    between atoms: N1_9  and  S1_10 
REMARK    6  A    between atoms: S1_10  and  C8_13 
ROOT
HETATM    1  N1  UNL     1      25.243   4.134  51.385  1.00  0.00    -0.215 NA
HETATM    2  H10 UNL     1      24.979   5.107  51.567  1.00  0.00     0.139 HD
ENDROOT
BRANCH   1   3
HETATM    3  C7  UNL     1      24.211   3.191  51.788  1.00  0.00     0.109 C 
BRANCH   3   4
HETATM    4  C6  UNL     1      24.450   2.680  53.205  1.00  0.00     0.054 C 
BRANCH   4   5
HETATM    5  C5  UNL     1      25.456   1.576  53.223  1.00  0.00    -0.057 A 
HETATM    6  C4  UNL     1      26.513   1.621  54.129  1.00  0.00     0.010 A 
HETATM    7  C3  UNL     1      27.492   0.625  54.204  1.00  0.00     0.037 A 
HETATM    8  C2  UNL     1      27.379  -0.443  53.323  1.00  0.00     0.068 A 
HETATM    9  C15 UNL     1      26.354  -0.509  52.426  1.00  0.00     0.037 A 
HETATM   10  C14 UNL     1      25.410   0.491  52.383  1.00  0.00     0.010 A 
BRANCH   8  11
HETATM   11  O1  UNL     1      28.428  -1.362  53.513  1.00  0.00    -0.356 OA
HETATM   12  C1  UNL     1      29.742  -0.959  53.756  1.00  0.00     0.210 C 
ENDBRANCH   8  11
ENDBRANCH   4   5
ENDBRANCH   3   4
ENDBRANCH   1   3
BRANCH   1  13
HETATM   13  S1  UNL     1      25.728   3.768  49.792  1.00  0.00     0.241 S 
HETATM   14  O2  UNL     1      26.568   2.519  49.766  1.00  0.00    -0.206 OA
HETATM   15  O3  UNL     1      24.479   3.450  49.003  1.00  0.00    -0.206 OA
BRANCH  13  16
HETATM   16  C8  UNL     1      26.583   5.048  49.002  1.00  0.00     0.074 A 
HETATM   17  C9  UNL     1      27.931   5.041  48.633  1.00  0.00     0.026 A 
HETATM   18  C10 UNL     1      28.510   6.121  48.005  1.00  0.00     0.025 A 
HETATM   19  C11 UNL     1      27.770   7.258  47.716  1.00  0.00     0.034 A 
HETATM   20 CL1  UNL     1      28.541   8.617  46.914  1.00  0.00    -0.084 Cl
HETATM   21  C12 UNL     1      26.433   7.324  48.056  1.00  0.00     0.025 A 
HETATM   22  C13 UNL     1      25.883   6.215  48.688  1.00  0.00     0.026 A 
ENDBRANCH  13  16
ENDBRANCH   1  13
TORSDOF 6
ENDMDL
