MODEL 1
REMARK VINA RESULT:      -8.3      0.000      0.000
REMARK  2 active torsions:
REMARK  status: ('A' for Active; 'I' for Inactive)
REMARK    1  A    between atoms: C2_2  and  O1_3 
REMARK    2  A    between atoms: O1_3  and  C3_4 
ROOT
HETATM    1  C3  UNL     1      26.224   4.060  50.254  1.00  0.00     0.200 C 
HETATM    2  C4  UNL     1      26.362   2.767  50.781  1.00  0.00    -0.072 C 
HETATM    3  C5  UNL     1      26.474   1.693  51.196  1.00  0.00    -0.078 C 
HETATM    4  C6  UNL     1      26.594   0.397  51.674  1.00  0.00     0.261 C 
HETATM    5  O2  UNL     1      26.741   0.093  52.985  1.00  0.00    -0.379 OA
HETATM    6  C7  UNL     1      25.810   0.572  53.858  1.00  0.00     0.170 C 
HETATM    7  C8  UNL     1      25.931  -0.166  55.213  1.00  0.00     0.004 C 
HETATM    8  C9  UNL     1      25.190  -0.972  56.102  1.00  0.00     0.047 C 
HETATM    9  C10 UNL     1      23.911  -1.017  55.335  1.00  0.00    -0.025 C 
HETATM   10  C11 UNL     1      22.624  -1.456  55.223  1.00  0.00    -0.030 C 
HETATM   11  C12 UNL     1      21.339  -1.425  54.338  1.00  0.00     0.027 C 
HETATM   12  C13 UNL     1      21.726  -0.502  53.226  1.00  0.00     0.004 C 
HETATM   13  C14 UNL     1      20.631  -0.191  52.238  1.00  0.00     0.000 C 
HETATM   14  C15 UNL     1      21.170   0.782  51.175  1.00  0.00     0.000 C 
HETATM   15  C16 UNL     1      21.815   1.960  51.785  1.00  0.00     0.000 C 
HETATM   16  C17 UNL     1      22.323   3.051  50.900  1.00  0.00     0.000 C 
HETATM   17  C18 UNL     1      23.292   2.603  49.814  1.00  0.00     0.000 C 
HETATM   18  C19 UNL     1      23.935   3.783  49.144  1.00  0.00     0.004 C 
HETATM   19  C20 UNL     1      24.858   4.596  49.959  1.00  0.00     0.045 C 
ENDROOT
BRANCH   1  20
HETATM   20  O1  UNL     1      26.963   4.013  49.006  1.00  0.00    -0.374 OA
BRANCH  20  21
HETATM   21  C2  UNL     1      27.268   5.328  48.640  1.00  0.00     0.165 C 
HETATM   22  C1  UNL     1      28.719   5.465  48.299  1.00  0.00     0.033 C 
ENDBRANCH  20  21
ENDBRANCH   1  20
TORSDOF 2
ENDMDL
MODEL 2
REMARK VINA RESULT:      -8.1      2.685      7.998
REMARK  2 active torsions:
REMARK  status: ('A' for Active; 'I' for Inactive)
REMARK    1  A    between atoms: C2_2  and  O1_3 
REMARK    2  A    between atoms: O1_3  and  C3_4 
ROOT
HETATM    1  C3  UNL     1      19.572   0.085  52.732  1.00  0.00     0.200 C 
HETATM    2  C4  UNL     1      20.099   0.501  51.500  1.00  0.00    -0.072 C 
HETATM    3  C5  UNL     1      20.537   0.825  50.479  1.00  0.00    -0.078 C 
HETATM    4  C6  UNL     1      21.078   1.192  49.256  1.00  0.00     0.261 C 
HETATM    5  O2  UNL     1      21.171   2.475  48.834  1.00  0.00    -0.379 OA
HETATM    6  C7  UNL     1      21.812   3.366  49.642  1.00  0.00     0.170 C 
HETATM    7  C8  UNL     1      22.137   4.655  48.849  1.00  0.00     0.004 C 
HETATM    8  C9  UNL     1      23.225   5.456  48.441  1.00  0.00     0.047 C 
HETATM    9  C10 UNL     1      24.322   4.661  49.066  1.00  0.00    -0.025 C 
HETATM   10  C11 UNL     1      25.654   4.486  49.307  1.00  0.00    -0.030 C 
HETATM   11  C12 UNL     1      26.714   3.581  50.010  1.00  0.00     0.027 C 
HETATM   12  C13 UNL     1      25.868   2.561  50.704  1.00  0.00     0.004 C 
HETATM   13  C14 UNL     1      26.621   1.581  51.566  1.00  0.00     0.000 C 
HETATM   14  C15 UNL     1      25.622   0.617  52.230  1.00  0.00     0.000 C 
HETATM   15  C16 UNL     1      24.531   1.339  52.910  1.00  0.00     0.000 C 
HETATM   16  C17 UNL     1      23.513   0.562  53.679  1.00  0.00     0.000 C 
HETATM   17  C18 UNL     1      22.812  -0.539  52.894  1.00  0.00     0.000 C 
HETATM   18  C19 UNL     1      21.646  -1.091  53.661  1.00  0.00     0.004 C 
HETATM   19  C20 UNL     1      20.497  -0.191  53.876  1.00  0.00     0.045 C 
ENDROOT
BRANCH   1  20
HETATM   20  O1  UNL     1      18.872  -1.147  52.417  1.00  0.00    -0.374 OA
BRANCH  20  21
HETATM   21  C2  UNL     1      17.868  -1.323  53.374  1.00  0.00     0.165 C 
HETATM   22  C1  UNL     1      17.686  -2.774  53.696  1.00  0.00     0.033 C 
ENDBRANCH  20  21
ENDBRANCH   1  20
TORSDOF 2
ENDMDL
MODEL 3
REMARK VINA RESULT:      -7.9      1.814      4.233
REMARK  2 active torsions:
REMARK  status: ('A' for Active; 'I' for Inactive)
REMARK    1  A    between atoms: C2_2  and  O1_3 
REMARK    2  A    between atoms: O1_3  and  C3_4 
ROOT
HETATM    1  C3  UNL     1      25.282   3.900  49.761  1.00  0.00     0.200 C 
HETATM    2  C4  UNL     1      24.150   3.836  50.587  1.00  0.00    -0.072 C 
HETATM    3  C5  UNL     1      23.226   3.796  51.283  1.00  0.00    -0.078 C 
HETATM    4  C6  UNL     1      22.135   3.750  52.138  1.00  0.00     0.261 C 
HETATM    5  O2  UNL     1      20.988   3.092  51.851  1.00  0.00    -0.379 OA
HETATM    6  C7  UNL     1      21.076   1.771  51.523  1.00  0.00     0.170 C 
HETATM    7  C8  UNL     1      19.674   1.117  51.593  1.00  0.00     0.004 C 
HETATM    8  C9  UNL     1      18.967   0.089  52.250  1.00  0.00     0.047 C 
HETATM    9  C10 UNL     1      20.079  -0.427  53.101  1.00  0.00    -0.025 C 
HETATM   10  C11 UNL     1      20.524  -1.306  54.044  1.00  0.00    -0.030 C 
HETATM   11  C12 UNL     1      21.762  -1.763  54.877  1.00  0.00     0.027 C 
HETATM   12  C13 UNL     1      22.855  -0.887  54.353  1.00  0.00     0.004 C 
HETATM   13  C14 UNL     1      24.227  -1.165  54.911  1.00  0.00     0.000 C 
HETATM   14  C15 UNL     1      25.242  -0.207  54.263  1.00  0.00     0.000 C 
HETATM   15  C16 UNL     1      25.150  -0.223  52.791  1.00  0.00     0.000 C 
HETATM   16  C17 UNL     1      26.119   0.588  51.994  1.00  0.00     0.000 C 
HETATM   17  C18 UNL     1      26.179   2.066  52.358  1.00  0.00     0.000 C 
HETATM   18  C19 UNL     1      26.982   2.838  51.351  1.00  0.00     0.004 C 
HETATM   19  C20 UNL     1      26.419   2.955  49.992  1.00  0.00     0.045 C 
ENDROOT
BRANCH   1  20
HETATM   20  O1  UNL     1      25.778   5.250  49.946  1.00  0.00    -0.374 OA
BRANCH  20  21
HETATM   21  C2  UNL     1      25.951   5.820  48.680  1.00  0.00     0.165 C 
HETATM   22  C1  UNL     1      27.363   6.277  48.489  1.00  0.00     0.033 C 
ENDBRANCH  20  21
ENDBRANCH   1  20
TORSDOF 2
ENDMDL
MODEL 4
REMARK VINA RESULT:      -7.6      2.170      3.034
REMARK  2 active torsions:
REMARK  status: ('A' for Active; 'I' for Inactive)
REMARK    1  A    between atoms: C2_2  and  O1_3 
REMARK    2  A    between atoms: O1_3  and  C3_4 
ROOT
HETATM    1  C3  UNL     1      25.306   7.082  50.275  1.00  0.00     0.200 C 
HETATM    2  C4  UNL     1      25.620   5.733  50.050  1.00  0.00    -0.072 C 
HETATM    3  C5  UNL     1      25.870   4.622  49.845  1.00  0.00    -0.078 C 
HETATM    4  C6  UNL     1      26.147   3.288  49.587  1.00  0.00     0.261 C 
HETATM    5  O2  UNL     1      26.847   2.492  50.429  1.00  0.00    -0.379 OA
HETATM    6  C7  UNL     1      26.411   2.389  51.717  1.00  0.00     0.170 C 
HETATM    7  C8  UNL     1      27.094   1.183  52.407  1.00  0.00     0.004 C 
HETATM    8  C9  UNL     1      26.794  -0.038  53.047  1.00  0.00     0.047 C 
HETATM    9  C10 UNL     1      25.307   0.021  52.937  1.00  0.00    -0.025 C 
HETATM   10  C11 UNL     1      24.090  -0.548  53.171  1.00  0.00    -0.030 C 
HETATM   11  C12 UNL     1      22.548  -0.373  53.005  1.00  0.00     0.027 C 
HETATM   12  C13 UNL     1      22.434   0.984  52.385  1.00  0.00     0.004 C 
HETATM   13  C14 UNL     1      21.027   1.485  52.186  1.00  0.00     0.000 C 
HETATM   14  C15 UNL     1      21.073   2.893  51.567  1.00  0.00     0.000 C 
HETATM   15  C16 UNL     1      21.958   3.797  52.324  1.00  0.00     0.000 C 
HETATM   16  C17 UNL     1      22.059   5.230  51.912  1.00  0.00     0.000 C 
HETATM   17  C18 UNL     1      22.435   5.457  50.454  1.00  0.00     0.000 C 
HETATM   18  C19 UNL     1      22.754   6.902  50.198  1.00  0.00     0.004 C 
HETATM   19  C20 UNL     1      23.967   7.444  50.839  1.00  0.00     0.045 C 
ENDROOT
BRANCH   1  20
HETATM   20  O1  UNL     1      25.418   7.694  48.964  1.00  0.00    -0.374 OA
BRANCH  20  21
HETATM   21  C2  UNL     1      26.729   8.158  48.820  1.00  0.00     0.165 C 
HETATM   22  C1  UNL     1      27.101   9.067  49.950  1.00  0.00     0.033 C 
ENDBRANCH  20  21
ENDBRANCH   1  20
TORSDOF 2
ENDMDL
MODEL 5
REMARK VINA RESULT:      -7.6      2.357      5.897
REMARK  2 active torsions:
REMARK  status: ('A' for Active; 'I' for Inactive)
REMARK    1  A    between atoms: C2_2  and  O1_3 
REMARK    2  A    between atoms: O1_3  and  C3_4 
ROOT
HETATM    1  C3  UNL     1      26.355   0.415  53.604  1.00  0.00     0.200 C 
HETATM    2  C4  UNL     1      25.608   1.518  53.163  1.00  0.00    -0.072 C 
HETATM    3  C5  UNL     1      24.987   2.432  52.820  1.00  0.00    -0.078 C 
HETATM    4  C6  UNL     1      24.227   3.524  52.428  1.00  0.00     0.261 C 
HETATM    5  O2  UNL     1      24.066   3.900  51.138  1.00  0.00    -0.379 OA
HETATM    6  C7  UNL     1      23.596   2.970  50.258  1.00  0.00     0.170 C 
HETATM    7  C8  UNL     1      23.136   3.665  48.954  1.00  0.00     0.004 C 
HETATM    8  C9  UNL     1      21.997   3.846  48.142  1.00  0.00     0.047 C 
HETATM    9  C10 UNL     1      21.032   3.038  48.943  1.00  0.00    -0.025 C 
HETATM   10  C11 UNL     1      19.769   2.553  49.117  1.00  0.00    -0.030 C 
HETATM   11  C12 UNL     1      18.854   1.678  50.030  1.00  0.00     0.027 C 
HETATM   12  C13 UNL     1      19.808   1.173  51.066  1.00  0.00     0.004 C 
HETATM   13  C14 UNL     1      19.224   0.201  52.058  1.00  0.00     0.000 C 
HETATM   14  C15 UNL     1      20.323  -0.245  53.039  1.00  0.00     0.000 C 
HETATM   15  C16 UNL     1      21.529  -0.719  52.333  1.00  0.00     0.000 C 
HETATM   16  C17 UNL     1      22.668  -1.268  53.128  1.00  0.00     0.000 C 
HETATM   17  C18 UNL     1      23.199  -0.346  54.218  1.00  0.00     0.000 C 
HETATM   18  C19 UNL     1      24.486  -0.869  54.788  1.00  0.00     0.004 C 
HETATM   19  C20 UNL     1      25.661  -0.878  53.897  1.00  0.00     0.045 C 
ENDROOT
BRANCH   1  20
HETATM   20  O1  UNL     1      26.973   0.877  54.833  1.00  0.00    -0.374 OA
BRANCH  20  21
HETATM   21  C2  UNL     1      28.209   0.233  54.957  1.00  0.00     0.165 C 
HETATM   22  C1  UNL     1      29.122   0.607  53.832  1.00  0.00     0.033 C 
ENDBRANCH  20  21
ENDBRANCH   1  20
TORSDOF 2
ENDMDL
MODEL 6
REMARK VINA RESULT:      -7.5      3.172      6.816
REMARK  2 active torsions:
REMARK  status: ('A' for Active; 'I' for Inactive)
REMARK    1  A    between atoms: C2_2  and  O1_3 
REMARK    2  A    between atoms: O1_3  and  C3_4 
ROOT
HETATM    1  C3  UNL     1      18.673   2.341  50.200  1.00  0.00     0.200 C 
HETATM    2  C4  UNL     1      19.913   2.153  49.571  1.00  0.00    -0.072 C 
HETATM    3  C5  UNL     1      20.930   1.979  49.047  1.00  0.00    -0.078 C 
HETATM    4  C6  UNL     1      22.147   1.746  48.424  1.00  0.00     0.261 C 
HETATM    5  O2  UNL     1      23.145   2.658  48.366  1.00  0.00    -0.379 OA
HETATM    6  C7  UNL     1      23.589   3.192  49.539  1.00  0.00     0.170 C 
HETATM    7  C8  UNL     1      24.941   3.910  49.312  1.00  0.00     0.004 C 
HETATM    8  C9  UNL     1      26.287   3.890  49.732  1.00  0.00     0.047 C 
HETATM    9  C10 UNL     1      26.190   2.764  50.707  1.00  0.00    -0.025 C 
HETATM   10  C11 UNL     1      26.792   1.941  51.613  1.00  0.00    -0.030 C 
HETATM   11  C12 UNL     1      26.568   0.761  52.610  1.00  0.00     0.027 C 
HETATM   12  C13 UNL     1      25.093   0.526  52.517  1.00  0.00     0.004 C 
HETATM   13  C14 UNL     1      24.547  -0.516  53.458  1.00  0.00     0.000 C 
HETATM   14  C15 UNL     1      23.025  -0.628  53.264  1.00  0.00     0.000 C 
HETATM   15  C16 UNL     1      22.364   0.689  53.337  1.00  0.00     0.000 C 
HETATM   16  C17 UNL     1      20.874   0.761  53.251  1.00  0.00     0.000 C 
HETATM   17  C18 UNL     1      20.265   0.094  52.025  1.00  0.00     0.000 C 
HETATM   18  C19 UNL     1      18.807   0.431  51.897  1.00  0.00     0.004 C 
HETATM   19  C20 UNL     1      18.466   1.833  51.593  1.00  0.00     0.045 C 
ENDROOT
BRANCH   1  20
HETATM   20  O1  UNL     1      17.731   1.659  49.332  1.00  0.00    -0.374 OA
BRANCH  20  21
HETATM   21  C2  UNL     1      16.477   2.250  49.514  1.00  0.00     0.165 C 
HETATM   22  C1  UNL     1      16.502   3.690  49.107  1.00  0.00     0.033 C 
ENDBRANCH  20  21
ENDBRANCH   1  20
TORSDOF 2
ENDMDL
MODEL 7
REMARK VINA RESULT:      -7.4      2.425      7.242
REMARK  2 active torsions:
REMARK  status: ('A' for Active; 'I' for Inactive)
REMARK    1  A    between atoms: C2_2  and  O1_3 
REMARK    2  A    between atoms: O1_3  and  C3_4 
ROOT
HETATM    1  C3  UNL     1      21.645   0.764  51.960  1.00  0.00     0.200 C 
HETATM    2  C4  UNL     1      22.854   1.466  52.083  1.00  0.00    -0.072 C 
HETATM    3  C5  UNL     1      23.845   2.050  52.204  1.00  0.00    -0.078 C 
HETATM    4  C6  UNL     1      25.021   2.768  52.365  1.00  0.00     0.261 C 
HETATM    5  O2  UNL     1      25.980   2.855  51.414  1.00  0.00    -0.379 OA
HETATM    6  C7  UNL     1      25.612   3.297  50.178  1.00  0.00     0.170 C 
HETATM    7  C8  UNL     1      26.870   3.676  49.359  1.00  0.00     0.004 C 
HETATM    8  C9  UNL     1      27.469   4.768  48.697  1.00  0.00     0.047 C 
HETATM    9  C10 UNL     1      26.416   5.789  48.970  1.00  0.00    -0.025 C 
HETATM   10  C11 UNL     1      25.960   7.068  48.842  1.00  0.00    -0.030 C 
HETATM   11  C12 UNL     1      24.792   8.045  49.183  1.00  0.00     0.027 C 
HETATM   12  C13 UNL     1      23.809   7.156  49.877  1.00  0.00     0.004 C 
HETATM   13  C14 UNL     1      22.504   7.809  50.252  1.00  0.00     0.000 C 
HETATM   14  C15 UNL     1      21.594   6.770  50.931  1.00  0.00     0.000 C 
HETATM   15  C16 UNL     1      21.470   5.539  50.127  1.00  0.00     0.000 C 
HETATM   16  C17 UNL     1      20.558   4.453  50.597  1.00  0.00     0.000 C 
HETATM   17  C18 UNL     1      20.815   3.961  52.014  1.00  0.00     0.000 C 
HETATM   18  C19 UNL     1      20.028   2.716  52.305  1.00  0.00     0.004 C 
HETATM   19  C20 UNL     1      20.402   1.497  51.563  1.00  0.00     0.045 C 
ENDROOT
BRANCH   1  20
HETATM   20  O1  UNL     1      21.429   0.200  53.279  1.00  0.00    -0.374 OA
BRANCH  20  21
HETATM   21  C2  UNL     1      22.170  -0.983  53.365  1.00  0.00     0.165 C 
HETATM   22  C1  UNL     1      21.713  -1.817  54.521  1.00  0.00     0.033 C 
ENDBRANCH  20  21
ENDBRANCH   1  20
TORSDOF 2
ENDMDL
MODEL 8
REMARK VINA RESULT:      -7.0      2.990      5.427
REMARK  2 active torsions:
REMARK  status: ('A' for Active; 'I' for Inactive)
REMARK    1  A    between atoms: C2_2  and  O1_3 
REMARK    2  A    between atoms: O1_3  and  C3_4 
ROOT
HETATM    1  C3  UNL     1      23.285   4.198  50.108  1.00  0.00     0.200 C 
HETATM    2  C4  UNL     1      21.980   4.044  50.598  1.00  0.00    -0.072 C 
HETATM    3  C5  UNL     1      20.908   3.929  51.020  1.00  0.00    -0.078 C 
HETATM    4  C6  UNL     1      19.633   3.792  51.549  1.00  0.00     0.261 C 
HETATM    5  O2  UNL     1      18.638   3.109  50.936  1.00  0.00    -0.379 OA
HETATM    6  C7  UNL     1      18.878   1.814  50.583  1.00  0.00     0.170 C 
HETATM    7  C8  UNL     1      17.544   1.106  50.247  1.00  0.00     0.004 C 
HETATM    8  C9  UNL     1      16.742   0.015  50.643  1.00  0.00     0.047 C 
HETATM    9  C10 UNL     1      17.614  -0.507  51.735  1.00  0.00    -0.025 C 
HETATM   10  C11 UNL     1      17.839  -1.422  52.721  1.00  0.00    -0.030 C 
HETATM   11  C12 UNL     1      18.834  -1.881  53.833  1.00  0.00     0.027 C 
HETATM   12  C13 UNL     1      19.980  -0.934  53.660  1.00  0.00     0.004 C 
HETATM   13  C14 UNL     1      21.168  -1.193  54.551  1.00  0.00     0.000 C 
HETATM   14  C15 UNL     1      22.267  -0.161  54.242  1.00  0.00     0.000 C 
HETATM   15  C16 UNL     1      22.569  -0.095  52.800  1.00  0.00     0.000 C 
HETATM   16  C17 UNL     1      23.671   0.797  52.328  1.00  0.00     0.000 C 
HETATM   17  C18 UNL     1      23.556   2.251  52.763  1.00  0.00     0.000 C 
HETATM   18  C19 UNL     1      24.556   3.110  52.043  1.00  0.00     0.004 C 
HETATM   19  C20 UNL     1      24.368   3.285  50.591  1.00  0.00     0.045 C 
ENDROOT
BRANCH   1  20
HETATM   20  O1  UNL     1      23.644   5.553  50.481  1.00  0.00    -0.374 OA
BRANCH  20  21
HETATM   21  C2  UNL     1      24.431   6.085  49.454  1.00  0.00     0.165 C 
HETATM   22  C1  UNL     1      25.668   6.723  50.005  1.00  0.00     0.033 C 
ENDBRANCH  20  21
ENDBRANCH   1  20
TORSDOF 2
ENDMDL
MODEL 9
REMARK VINA RESULT:      -6.9      2.190      4.450
REMARK  2 active torsions:
REMARK  status: ('A' for Active; 'I' for Inactive)
REMARK    1  A    between atoms: C2_2  and  O1_3 
REMARK    2  A    between atoms: O1_3  and  C3_4 
ROOT
HETATM    1  C3  UNL     1      22.723   3.764  48.999  1.00  0.00     0.200 C 
HETATM    2  C4  UNL     1      22.155   3.451  50.243  1.00  0.00    -0.072 C 
HETATM    3  C5  UNL     1      21.692   3.212  51.277  1.00  0.00    -0.078 C 
HETATM    4  C6  UNL     1      21.157   2.938  52.526  1.00  0.00     0.261 C 
HETATM    5  O2  UNL     1      20.504   1.791  52.827  1.00  0.00    -0.379 OA
HETATM    6  C7  UNL     1      21.149   0.612  52.593  1.00  0.00     0.170 C 
HETATM    7  C8  UNL     1      20.419  -0.540  53.324  1.00  0.00     0.004 C 
HETATM    8  C9  UNL     1      20.627  -1.536  54.301  1.00  0.00     0.047 C 
HETATM    9  C10 UNL     1      22.057  -1.239  54.609  1.00  0.00    -0.025 C 
HETATM   10  C11 UNL     1      23.186  -1.517  55.321  1.00  0.00    -0.030 C 
HETATM   11  C12 UNL     1      24.678  -1.120  55.553  1.00  0.00     0.027 C 
HETATM   12  C13 UNL     1      24.895  -0.045  54.535  1.00  0.00     0.004 C 
HETATM   13  C14 UNL     1      26.303   0.483  54.449  1.00  0.00     0.000 C 
HETATM   14  C15 UNL     1      26.375   1.558  53.349  1.00  0.00     0.000 C 
HETATM   15  C16 UNL     1      25.808   1.078  52.075  1.00  0.00     0.000 C 
HETATM   16  C17 UNL     1      25.869   1.964  50.873  1.00  0.00     0.000 C 
HETATM   17  C18 UNL     1      25.270   3.351  51.062  1.00  0.00     0.000 C 
HETATM   18  C19 UNL     1      25.150   4.070  49.749  1.00  0.00     0.004 C 
HETATM   19  C20 UNL     1      24.184   3.530  48.774  1.00  0.00     0.045 C 
ENDROOT
BRANCH   1  20
HETATM   20  O1  UNL     1      22.470   5.185  48.844  1.00  0.00    -0.374 OA
BRANCH  20  21
HETATM   21  C2  UNL     1      22.644   5.505  47.494  1.00  0.00     0.165 C 
HETATM   22  C1  UNL     1      23.232   6.873  47.340  1.00  0.00     0.033 C 
ENDBRANCH  20  21
ENDBRANCH   1  20
TORSDOF 2
ENDMDL
