MODEL 1
REMARK VINA RESULT:      -7.1      0.000      0.000
REMARK  6 active torsions:
REMARK  status: ('A' for Active; 'I' for Inactive)
REMARK    1  A    between atoms: C4_4  and  C5_5 
REMARK    2  A    between atoms: C5_5  and  O1_7 
REMARK    3  A    between atoms: O1_7  and  N1_8 
REMARK    4  A    between atoms: N1_8  and  O2_9 
REMARK    5  A    between atoms: N1_8  and  C7_10 
REMARK    6  A    between atoms: C7_10  and  N2_11 
ROOT
HETATM    1  N1  UNL     1      23.710   1.510  51.919  1.00  0.00    -0.053 NA
ENDROOT
BRANCH   1   2
HETATM    2  O1  UNL     1      22.416   1.479  52.218  1.00  0.00    -0.268 OA
BRANCH   2   3
HETATM    3  C5  UNL     1      21.818   0.251  52.008  1.00  0.00     0.174 C 
HETATM    4  C6  UNL     1      20.375   0.518  51.564  1.00  0.00     0.046 C 
BRANCH   3   5
HETATM    5  C4  UNL     1      21.757  -0.456  53.315  1.00  0.00    -0.034 C 
HETATM    6  C3  UNL     1      21.802  -0.123  54.593  1.00  0.00    -0.018 C 
HETATM    7  C2  UNL     1      22.485  -1.238  54.778  1.00  0.00    -0.068 C 
HETATM    8  C1  UNL     1      23.593  -1.353  55.761  1.00  0.00     0.044 C 
HETATM    9  C16 UNL     1      21.615  -1.856  53.719  1.00  0.00     0.072 C 
ENDBRANCH   3   5
ENDBRANCH   2   3
ENDBRANCH   1   2
BRANCH   1  10
HETATM   10  O2  UNL     1      23.984   2.206  50.806  1.00  0.00    -0.287 OA
HETATM   11  H8  UNL     1      24.934   2.157  50.578  1.00  0.00     0.239 HD
ENDBRANCH   1  10
BRANCH   1  12
HETATM   12  C7  UNL     1      24.542   1.902  53.041  1.00  0.00     0.276 C 
BRANCH  12  13
HETATM   13  N2  UNL     1      25.689   1.018  53.103  1.00  0.00    -0.369 N 
HETATM   14  C8  UNL     1      25.674  -0.375  52.784  1.00  0.00     0.095 A 
HETATM   15  C9  UNL     1      26.859  -0.916  52.932  1.00  0.00    -0.032 A 
HETATM   16  C10 UNL     1      27.347  -2.316  52.727  1.00  0.00     0.067 A 
HETATM   17  C14 UNL     1      27.810   0.120  53.386  1.00  0.00    -0.032 A 
HETATM   18  C11 UNL     1      28.799  -2.396  53.041  1.00  0.00    -0.022 A 
HETATM   19  C12 UNL     1      29.634  -1.453  53.447  1.00  0.00    -0.003 A 
HETATM   20  C13 UNL     1      29.070  -0.118  53.621  1.00  0.00     0.009 A 
HETATM   21  C15 UNL     1      27.058   1.374  53.497  1.00  0.00     0.162 A 
ENDBRANCH  12  13
ENDBRANCH   1  12
TORSDOF 6
ENDMDL
MODEL 2
REMARK VINA RESULT:      -7.0      1.035      1.959
REMARK  6 active torsions:
REMARK  status: ('A' for Active; 'I' for Inactive)
REMARK    1  A    between atoms: C4_4  and  C5_5 
REMARK    2  A    between atoms: C5_5  and  O1_7 
REMARK    3  A    between atoms: O1_7  and  N1_8 
REMARK    4  A    between atoms: N1_8  and  O2_9 
REMARK    5  A    between atoms: N1_8  and  C7_10 
REMARK    6  A    between atoms: C7_10  and  N2_11 
ROOT
HETATM    1  N1  UNL     1      24.638   2.666  51.977  1.00  0.00    -0.053 NA
ENDROOT
BRANCH   1   2
HETATM    2  O1  UNL     1      23.317   2.574  51.876  1.00  0.00    -0.268 OA
BRANCH   2   3
HETATM    3  C5  UNL     1      22.873   1.377  51.349  1.00  0.00     0.174 C 
HETATM    4  C6  UNL     1      22.077   1.705  50.080  1.00  0.00     0.046 C 
BRANCH   3   5
HETATM    5  C4  UNL     1      21.925   0.773  52.324  1.00  0.00    -0.034 C 
HETATM    6  C3  UNL     1      21.865   0.610  53.633  1.00  0.00    -0.018 C 
HETATM    7  C2  UNL     1      21.312  -0.562  53.383  1.00  0.00    -0.068 C 
HETATM    8  C1  UNL     1      21.564  -1.768  54.213  1.00  0.00     0.044 C 
HETATM    9  C16 UNL     1      20.633   0.094  52.213  1.00  0.00     0.072 C 
ENDBRANCH   3   5
ENDBRANCH   2   3
ENDBRANCH   1   2
BRANCH   1  10
HETATM   10  O2  UNL     1      25.138   3.793  51.452  1.00  0.00    -0.287 OA
HETATM   11  H8  UNL     1      25.980   3.628  50.982  1.00  0.00     0.239 HD
ENDBRANCH   1  10
BRANCH   1  12
HETATM   12  C7  UNL     1      25.122   2.415  53.322  1.00  0.00     0.276 C 
BRANCH  12  13
HETATM   13  N2  UNL     1      26.069   1.319  53.282  1.00  0.00    -0.369 N 
HETATM   14  C8  UNL     1      27.459   1.419  53.603  1.00  0.00     0.095 A 
HETATM   15  C9  UNL     1      28.065   0.264  53.476  1.00  0.00    -0.032 A 
HETATM   16  C10 UNL     1      29.491  -0.142  53.693  1.00  0.00     0.067 A 
HETATM   17  C14 UNL     1      27.086  -0.752  53.037  1.00  0.00    -0.032 A 
HETATM   18  C11 UNL     1      29.652  -1.592  53.404  1.00  0.00    -0.022 A 
HETATM   19  C12 UNL     1      28.759  -2.486  53.011  1.00  0.00    -0.003 A 
HETATM   20  C13 UNL     1      27.395  -2.001  52.825  1.00  0.00     0.009 A 
HETATM   21  C15 UNL     1      25.792  -0.075  52.911  1.00  0.00     0.162 A 
ENDBRANCH  12  13
ENDBRANCH   1  12
TORSDOF 6
ENDMDL
MODEL 3
REMARK VINA RESULT:      -6.8      1.368      1.851
REMARK  6 active torsions:
REMARK  status: ('A' for Active; 'I' for Inactive)
REMARK    1  A    between atoms: C4_4  and  C5_5 
REMARK    2  A    between atoms: C5_5  and  O1_7 
REMARK    3  A    between atoms: O1_7  and  N1_8 
REMARK    4  A    between atoms: N1_8  and  O2_9 
REMARK    5  A    between atoms: N1_8  and  C7_10 
REMARK    6  A    between atoms: C7_10  and  N2_11 
ROOT
HETATM    1  N1  UNL     1      24.733   2.889  51.984  1.00  0.00    -0.053 NA
ENDROOT
BRANCH   1   2
HETATM    2  O1  UNL     1      23.443   3.180  51.862  1.00  0.00    -0.268 OA
BRANCH   2   3
HETATM    3  C5  UNL     1      22.782   2.425  50.913  1.00  0.00     0.174 C 
HETATM    4  C6  UNL     1      21.797   3.355  50.196  1.00  0.00     0.046 C 
BRANCH   3   5
HETATM    5  C4  UNL     1      21.979   1.396  51.628  1.00  0.00    -0.034 C 
HETATM    6  C3  UNL     1      21.616   1.153  52.875  1.00  0.00    -0.018 C 
HETATM    7  C2  UNL     1      21.768  -0.126  52.587  1.00  0.00    -0.068 C 
HETATM    8  C1  UNL     1      22.290  -1.117  53.564  1.00  0.00     0.044 C 
HETATM    9  C16 UNL     1      21.245   0.198  51.216  1.00  0.00     0.072 C 
ENDBRANCH   3   5
ENDBRANCH   2   3
ENDBRANCH   1   2
BRANCH   1  10
HETATM   10  O2  UNL     1      25.543   3.809  51.440  1.00  0.00    -0.287 OA
HETATM   11  H8  UNL     1      25.063   4.379  50.808  1.00  0.00     0.239 HD
ENDBRANCH   1  10
BRANCH   1  12
HETATM   12  C7  UNL     1      25.111   2.547  53.343  1.00  0.00     0.276 C 
BRANCH  12  13
HETATM   13  N2  UNL     1      26.042   1.437  53.304  1.00  0.00    -0.369 N 
HETATM   14  C8  UNL     1      25.749   0.133  52.797  1.00  0.00     0.095 A 
HETATM   15  C9  UNL     1      26.786  -0.663  52.892  1.00  0.00    -0.032 A 
HETATM   16  C10 UNL     1      26.978  -2.098  52.505  1.00  0.00     0.067 A 
HETATM   17  C14 UNL     1      27.912   0.076  53.499  1.00  0.00    -0.032 A 
HETATM   18  C11 UNL     1      28.364  -2.527  52.831  1.00  0.00    -0.022 A 
HETATM   19  C12 UNL     1      29.359  -1.845  53.376  1.00  0.00    -0.003 A 
HETATM   20  C13 UNL     1      29.081  -0.455  53.721  1.00  0.00     0.009 A 
HETATM   21  C15 UNL     1      27.436   1.437  53.767  1.00  0.00     0.162 A 
ENDBRANCH  12  13
ENDBRANCH   1  12
TORSDOF 6
ENDMDL
MODEL 4
REMARK VINA RESULT:      -6.7      4.112      6.099
REMARK  6 active torsions:
REMARK  status: ('A' for Active; 'I' for Inactive)
REMARK    1  A    between atoms: C4_4  and  C5_5 
REMARK    2  A    between atoms: C5_5  and  O1_7 
REMARK    3  A    between atoms: O1_7  and  N1_8 
REMARK    4  A    between atoms: N1_8  and  O2_9 
REMARK    5  A    between atoms: N1_8  and  C7_10 
REMARK    6  A    between atoms: C7_10  and  N2_11 
ROOT
HETATM    1  N1  UNL     1      24.466   2.611  52.036  1.00  0.00    -0.053 NA
ENDROOT
BRANCH   1   2
HETATM    2  O1  UNL     1      25.475   1.804  52.348  1.00  0.00    -0.268 OA
BRANCH   2   3
HETATM    3  C5  UNL     1      25.134   0.466  52.390  1.00  0.00     0.174 C 
HETATM    4  C6  UNL     1      23.911   0.337  53.306  1.00  0.00     0.046 C 
BRANCH   3   5
HETATM    5  C4  UNL     1      26.253  -0.269  53.039  1.00  0.00    -0.034 C 
HETATM    6  C3  UNL     1      26.984  -0.141  54.132  1.00  0.00    -0.018 C 
HETATM    7  C2  UNL     1      27.999  -0.577  53.410  1.00  0.00    -0.068 C 
HETATM    8  C1  UNL     1      29.387  -0.077  53.583  1.00  0.00     0.044 C 
HETATM    9  C16 UNL     1      27.016  -1.474  52.710  1.00  0.00     0.072 C 
ENDBRANCH   3   5
ENDBRANCH   2   3
ENDBRANCH   1   2
BRANCH   1  10
HETATM   10  O2  UNL     1      24.579   3.837  52.567  1.00  0.00    -0.287 OA
HETATM   11  H8  UNL     1      25.127   3.828  53.377  1.00  0.00     0.239 HD
ENDBRANCH   1  10
BRANCH   1  12
HETATM   12  C7  UNL     1      24.186   2.643  50.613  1.00  0.00     0.276 C 
BRANCH  12  13
HETATM   13  N2  UNL     1      25.080   3.593  49.982  1.00  0.00    -0.369 N 
HETATM   14  C8  UNL     1      24.716   4.905  49.546  1.00  0.00     0.095 A 
HETATM   15  C9  UNL     1      25.734   5.534  49.012  1.00  0.00    -0.032 A 
HETATM   16  C10 UNL     1      25.858   6.904  48.420  1.00  0.00     0.067 A 
HETATM   17  C14 UNL     1      26.920   4.653  49.046  1.00  0.00    -0.032 A 
HETATM   18  C11 UNL     1      27.251   7.126  47.949  1.00  0.00    -0.022 A 
HETATM   19  C12 UNL     1      28.301   6.321  47.990  1.00  0.00    -0.003 A 
HETATM   20  C13 UNL     1      28.087   5.005  48.584  1.00  0.00     0.009 A 
HETATM   21  C15 UNL     1      26.503   3.396  49.674  1.00  0.00     0.162 A 
ENDBRANCH  12  13
ENDBRANCH   1  12
TORSDOF 6
ENDMDL
MODEL 5
REMARK VINA RESULT:      -6.7      2.408      6.326
REMARK  6 active torsions:
REMARK  status: ('A' for Active; 'I' for Inactive)
REMARK    1  A    between atoms: C4_4  and  C5_5 
REMARK    2  A    between atoms: C5_5  and  O1_7 
REMARK    3  A    between atoms: O1_7  and  N1_8 
REMARK    4  A    between atoms: N1_8  and  O2_9 
REMARK    5  A    between atoms: N1_8  and  C7_10 
REMARK    6  A    between atoms: C7_10  and  N2_11 
ROOT
HETATM    1  N1  UNL     1      25.981  -0.460  53.763  1.00  0.00    -0.053 NA
ENDROOT
BRANCH   1   2
HETATM    2  O1  UNL     1      26.529   0.737  53.943  1.00  0.00    -0.268 OA
BRANCH   2   3
HETATM    3  C5  UNL     1      27.269   1.185  52.866  1.00  0.00     0.174 C 
HETATM    4  C6  UNL     1      28.481   1.938  53.428  1.00  0.00     0.046 C 
BRANCH   3   5
HETATM    5  C4  UNL     1      26.440   2.172  52.122  1.00  0.00    -0.034 C 
HETATM    6  C3  UNL     1      25.296   2.804  52.311  1.00  0.00    -0.018 C 
HETATM    7  C2  UNL     1      25.092   2.658  51.015  1.00  0.00    -0.068 C 
HETATM    8  C1  UNL     1      23.749   2.406  50.432  1.00  0.00     0.044 C 
HETATM    9  C16 UNL     1      26.570   2.860  50.837  1.00  0.00     0.072 C 
ENDBRANCH   3   5
ENDBRANCH   2   3
ENDBRANCH   1   2
BRANCH   1  10
HETATM   10  O2  UNL     1      26.876  -1.427  53.519  1.00  0.00    -0.287 OA
HETATM   11  H8  UNL     1      26.746  -2.194  54.112  1.00  0.00     0.239 HD
ENDBRANCH   1  10
BRANCH   1  12
HETATM   12  C7  UNL     1      25.045  -0.818  54.813  1.00  0.00     0.276 C 
BRANCH  12  13
HETATM   13  N2  UNL     1      23.697  -0.729  54.288  1.00  0.00    -0.369 N 
HETATM   14  C8  UNL     1      23.329  -0.081  53.068  1.00  0.00     0.095 A 
HETATM   15  C9  UNL     1      22.039  -0.163  52.851  1.00  0.00    -0.032 A 
HETATM   16  C10 UNL     1      21.183   0.348  51.733  1.00  0.00     0.067 A 
HETATM   17  C14 UNL     1      21.407  -0.906  53.960  1.00  0.00    -0.032 A 
HETATM   18  C11 UNL     1      19.763  -0.021  51.975  1.00  0.00    -0.022 A 
HETATM   19  C12 UNL     1      19.217  -0.689  52.979  1.00  0.00    -0.003 A 
HETATM   20  C13 UNL     1      20.127  -1.148  54.023  1.00  0.00     0.009 A 
HETATM   21  C15 UNL     1      22.476  -1.277  54.893  1.00  0.00     0.162 A 
ENDBRANCH  12  13
ENDBRANCH   1  12
TORSDOF 6
ENDMDL
MODEL 6
REMARK VINA RESULT:      -6.5      4.609      6.721
REMARK  6 active torsions:
REMARK  status: ('A' for Active; 'I' for Inactive)
REMARK    1  A    between atoms: C4_4  and  C5_5 
REMARK    2  A    between atoms: C5_5  and  O1_7 
REMARK    3  A    between atoms: O1_7  and  N1_8 
REMARK    4  A    between atoms: N1_8  and  O2_9 
REMARK    5  A    between atoms: N1_8  and  C7_10 
REMARK    6  A    between atoms: C7_10  and  N2_11 
ROOT
HETATM    1  N1  UNL     1      26.596   2.812  51.907  1.00  0.00    -0.053 NA
ENDROOT
BRANCH   1   2
HETATM    2  O1  UNL     1      25.889   2.056  52.739  1.00  0.00    -0.268 OA
BRANCH   2   3
HETATM    3  C5  UNL     1      25.556   0.816  52.230  1.00  0.00     0.174 C 
HETATM    4  C6  UNL     1      24.117   0.516  52.668  1.00  0.00     0.046 C 
BRANCH   3   5
HETATM    5  C4  UNL     1      26.436  -0.194  52.877  1.00  0.00    -0.034 C 
HETATM    6  C3  UNL     1      27.202  -0.256  53.951  1.00  0.00    -0.018 C 
HETATM    7  C2  UNL     1      28.031  -0.979  53.222  1.00  0.00    -0.068 C 
HETATM    8  C1  UNL     1      29.508  -0.893  53.353  1.00  0.00     0.044 C 
HETATM    9  C16 UNL     1      26.815  -1.574  52.567  1.00  0.00     0.072 C 
ENDBRANCH   3   5
ENDBRANCH   2   3
ENDBRANCH   1   2
BRANCH   1  10
HETATM   10  O2  UNL     1      27.915   2.776  52.141  1.00  0.00    -0.287 OA
HETATM   11  H8  UNL     1      28.182   1.933  52.561  1.00  0.00     0.239 HD
ENDBRANCH   1  10
BRANCH   1  12
HETATM   12  C7  UNL     1      26.271   2.576  50.512  1.00  0.00     0.276 C 
BRANCH  12  13
HETATM   13  N2  UNL     1      26.281   3.844  49.809  1.00  0.00    -0.369 N 
HETATM   14  C8  UNL     1      25.164   4.727  49.688  1.00  0.00     0.095 A 
HETATM   15  C9  UNL     1      25.471   5.798  48.997  1.00  0.00    -0.032 A 
HETATM   16  C10 UNL     1      24.661   6.994  48.601  1.00  0.00     0.067 A 
HETATM   17  C14 UNL     1      26.886   5.715  48.578  1.00  0.00    -0.032 A 
HETATM   18  C11 UNL     1      25.500   7.932  47.809  1.00  0.00    -0.022 A 
HETATM   19  C12 UNL     1      26.769   7.838  47.445  1.00  0.00    -0.003 A 
HETATM   20  C13 UNL     1      27.480   6.638  47.874  1.00  0.00     0.009 A 
HETATM   21  C15 UNL     1      27.415   4.453  49.102  1.00  0.00     0.162 A 
ENDBRANCH  12  13
ENDBRANCH   1  12
TORSDOF 6
ENDMDL
MODEL 7
REMARK VINA RESULT:      -6.5      3.631      5.503
REMARK  6 active torsions:
REMARK  status: ('A' for Active; 'I' for Inactive)
REMARK    1  A    between atoms: C4_4  and  C5_5 
REMARK    2  A    between atoms: C5_5  and  O1_7 
REMARK    3  A    between atoms: O1_7  and  N1_8 
REMARK    4  A    between atoms: N1_8  and  O2_9 
REMARK    5  A    between atoms: N1_8  and  C7_10 
REMARK    6  A    between atoms: C7_10  and  N2_11 
ROOT
HETATM    1  N1  UNL     1      24.823   3.136  51.517  1.00  0.00    -0.053 NA
ENDROOT
BRANCH   1   2
HETATM    2  O1  UNL     1      24.552   3.337  50.232  1.00  0.00    -0.268 OA
BRANCH   2   3
HETATM    3  C5  UNL     1      24.276   4.653  49.913  1.00  0.00     0.174 C 
HETATM    4  C6  UNL     1      23.432   4.643  48.633  1.00  0.00     0.046 C 
BRANCH   3   5
HETATM    5  C4  UNL     1      25.564   5.324  49.590  1.00  0.00    -0.034 C 
HETATM    6  C3  UNL     1      26.080   6.532  49.725  1.00  0.00    -0.018 C 
HETATM    7  C2  UNL     1      26.660   6.329  48.557  1.00  0.00    -0.068 C 
HETATM    8  C1  UNL     1      26.855   7.407  47.553  1.00  0.00     0.044 C 
HETATM    9  C16 UNL     1      26.819   4.893  48.972  1.00  0.00     0.072 C 
ENDBRANCH   3   5
ENDBRANCH   2   3
ENDBRANCH   1   2
BRANCH   1  10
HETATM   10  O2  UNL     1      24.278   4.054  52.328  1.00  0.00    -0.287 OA
HETATM   11  H8  UNL     1      24.190   3.718  53.242  1.00  0.00     0.239 HD
ENDBRANCH   1  10
BRANCH   1  12
HETATM   12  C7  UNL     1      24.548   1.778  51.948  1.00  0.00     0.276 C 
BRANCH  12  13
HETATM   13  N2  UNL     1      25.794   1.152  52.344  1.00  0.00    -0.369 N 
HETATM   14  C8  UNL     1      26.050  -0.254  52.331  1.00  0.00     0.095 A 
HETATM   15  C9  UNL     1      27.265  -0.525  52.741  1.00  0.00    -0.032 A 
HETATM   16  C10 UNL     1      27.995  -1.823  52.904  1.00  0.00     0.067 A 
HETATM   17  C14 UNL     1      27.956   0.737  53.078  1.00  0.00    -0.032 A 
HETATM   18  C11 UNL     1      29.371  -1.568  53.410  1.00  0.00    -0.022 A 
HETATM   19  C12 UNL     1      29.970  -0.426  53.706  1.00  0.00    -0.003 A 
HETATM   20  C13 UNL     1      29.182   0.788  53.517  1.00  0.00     0.009 A 
HETATM   21  C15 UNL     1      27.008   1.826  52.822  1.00  0.00     0.162 A 
ENDBRANCH  12  13
ENDBRANCH   1  12
TORSDOF 6
ENDMDL
MODEL 8
REMARK VINA RESULT:      -6.4      4.277      5.493
REMARK  6 active torsions:
REMARK  status: ('A' for Active; 'I' for Inactive)
REMARK    1  A    between atoms: C4_4  and  C5_5 
REMARK    2  A    between atoms: C5_5  and  O1_7 
REMARK    3  A    between atoms: O1_7  and  N1_8 
REMARK    4  A    between atoms: N1_8  and  O2_9 
REMARK    5  A    between atoms: N1_8  and  C7_10 
REMARK    6  A    between atoms: C7_10  and  N2_11 
ROOT
HETATM    1  N1  UNL     1      24.213   3.370  52.051  1.00  0.00    -0.053 NA
ENDROOT
BRANCH   1   2
HETATM    2  O1  UNL     1      23.133   2.886  52.655  1.00  0.00    -0.268 OA
BRANCH   2   3
HETATM    3  C5  UNL     1      22.419   1.981  51.894  1.00  0.00     0.174 C 
HETATM    4  C6  UNL     1      20.934   2.328  52.050  1.00  0.00     0.046 C 
BRANCH   3   5
HETATM    5  C4  UNL     1      22.622   0.630  52.481  1.00  0.00    -0.034 C 
HETATM    6  C3  UNL     1      21.959  -0.512  52.523  1.00  0.00    -0.018 C 
HETATM    7  C2  UNL     1      22.410  -0.639  53.757  1.00  0.00    -0.068 C 
HETATM    8  C1  UNL     1      21.610  -1.244  54.852  1.00  0.00     0.044 C 
HETATM    9  C16 UNL     1      23.681   0.005  53.276  1.00  0.00     0.072 C 
ENDBRANCH   3   5
ENDBRANCH   2   3
ENDBRANCH   1   2
BRANCH   1  10
HETATM   10  O2  UNL     1      25.352   3.124  52.714  1.00  0.00    -0.287 OA
HETATM   11  H8  UNL     1      25.179   2.713  53.584  1.00  0.00     0.239 HD
ENDBRANCH   1  10
BRANCH   1  12
HETATM   12  C7  UNL     1      24.292   3.000  50.650  1.00  0.00     0.276 C 
BRANCH  12  13
HETATM   13  N2  UNL     1      25.248   3.868  49.991  1.00  0.00    -0.369 N 
HETATM   14  C8  UNL     1      25.008   5.228  49.623  1.00  0.00     0.095 A 
HETATM   15  C9  UNL     1      26.056   5.761  49.042  1.00  0.00    -0.032 A 
HETATM   16  C10 UNL     1      26.298   7.130  48.486  1.00  0.00     0.067 A 
HETATM   17  C14 UNL     1      27.134   4.753  48.970  1.00  0.00    -0.032 A 
HETATM   18  C11 UNL     1      27.675   7.214  47.932  1.00  0.00    -0.022 A 
HETATM   19  C12 UNL     1      28.627   6.296  47.877  1.00  0.00    -0.003 A 
HETATM   20  C13 UNL     1      28.302   4.990  48.442  1.00  0.00     0.009 A 
HETATM   21  C15 UNL     1      26.617   3.526  49.584  1.00  0.00     0.162 A 
ENDBRANCH  12  13
ENDBRANCH   1  12
TORSDOF 6
ENDMDL
MODEL 9
REMARK VINA RESULT:      -6.2      3.650      5.367
REMARK  6 active torsions:
REMARK  status: ('A' for Active; 'I' for Inactive)
REMARK    1  A    between atoms: C4_4  and  C5_5 
REMARK    2  A    between atoms: C5_5  and  O1_7 
REMARK    3  A    between atoms: O1_7  and  N1_8 
REMARK    4  A    between atoms: N1_8  and  O2_9 
REMARK    5  A    between atoms: N1_8  and  C7_10 
REMARK    6  A    between atoms: C7_10  and  N2_11 
ROOT
HETATM    1  N1  UNL     1      23.985   5.520  51.439  1.00  0.00    -0.053 NA
ENDROOT
BRANCH   1   2
HETATM    2  O1  UNL     1      23.458   5.894  50.278  1.00  0.00    -0.268 OA
BRANCH   2   3
HETATM    3  C5  UNL     1      24.127   5.406  49.172  1.00  0.00     0.174 C 
HETATM    4  C6  UNL     1      24.226   6.552  48.159  1.00  0.00     0.046 C 
BRANCH   3   5
HETATM    5  C4  UNL     1      23.282   4.345  48.560  1.00  0.00    -0.034 C 
HETATM    6  C3  UNL     1      22.297   4.285  47.682  1.00  0.00    -0.018 C 
HETATM    7  C2  UNL     1      21.792   3.323  48.432  1.00  0.00    -0.068 C 
HETATM    8  C1  UNL     1      20.333   3.141  48.639  1.00  0.00     0.044 C 
HETATM    9  C16 UNL     1      23.208   2.889  48.693  1.00  0.00     0.072 C 
ENDBRANCH   3   5
ENDBRANCH   2   3
ENDBRANCH   1   2
BRANCH   1  10
HETATM   10  O2  UNL     1      24.318   6.550  52.230  1.00  0.00    -0.287 OA
HETATM   11  H8  UNL     1      23.572   7.173  52.342  1.00  0.00     0.239 HD
ENDBRANCH   1  10
BRANCH   1  12
HETATM   12  C7  UNL     1      23.190   4.522  52.128  1.00  0.00     0.276 C 
BRANCH  12  13
HETATM   13  N2  UNL     1      23.964   3.302  52.239  1.00  0.00    -0.369 N 
HETATM   14  C8  UNL     1      23.559   2.131  52.952  1.00  0.00     0.095 A 
HETATM   15  C9  UNL     1      24.464   1.185  52.876  1.00  0.00    -0.032 A 
HETATM   16  C10 UNL     1      24.507  -0.200  53.444  1.00  0.00     0.067 A 
HETATM   17  C14 UNL     1      25.604   1.669  52.069  1.00  0.00    -0.032 A 
HETATM   18  C11 UNL     1      25.779  -0.865  53.055  1.00  0.00    -0.022 A 
HETATM   19  C12 UNL     1      26.789  -0.412  52.330  1.00  0.00    -0.003 A 
HETATM   20  C13 UNL     1      26.661   0.949  51.818  1.00  0.00     0.009 A 
HETATM   21  C15 UNL     1      25.285   3.038  51.653  1.00  0.00     0.162 A 
ENDBRANCH  12  13
ENDBRANCH   1  12
TORSDOF 6
ENDMDL
