MODEL 1
REMARK VINA RESULT:      -8.9      0.000      0.000
REMARK  4 active torsions:
REMARK  status: ('A' for Active; 'I' for Inactive)
REMARK    1  A    between atoms: N1_1  and  C1_2 
REMARK    2  A    between atoms: N2_8  and  C6_9 
REMARK    3  A    between atoms: C11_16  and  C12_17 
REMARK    4  A    between atoms: C12_17  and  C13_18 
ROOT
HETATM    1  C6  UNL     1      24.320  -0.354  54.011  1.00  0.00     0.145 A 
HETATM    2  N3  UNL     1      24.266  -1.052  55.186  1.00  0.00    -0.223 NA
HETATM    3  C7  UNL     1      23.061  -1.471  55.626  1.00  0.00     0.236 A 
HETATM    4  N4  UNL     1      21.893  -1.240  54.971  1.00  0.00    -0.241 NA
HETATM    5  C8  UNL     1      21.935  -0.557  53.819  1.00  0.00     0.072 A 
HETATM    6  C9  UNL     1      20.843  -0.252  53.030  1.00  0.00     0.033 A 
HETATM    7  C10 UNL     1      20.992   0.456  51.834  1.00  0.00     0.010 A 
HETATM    8  C11 UNL     1      22.250   0.879  51.392  1.00  0.00    -0.053 A 
HETATM    9  C19 UNL     1      23.319   0.568  52.188  1.00  0.00     0.025 A 
HETATM   10  C20 UNL     1      23.146  -0.129  53.363  1.00  0.00     0.039 A 
ENDROOT
BRANCH   1  11
HETATM   11  N2  UNL     1      25.673   0.028  53.774  1.00  0.00    -0.306 N 
HETATM   12  C1  UNL     1      26.386   1.273  53.977  1.00  0.00     0.370 A 
HETATM   13  C2  UNL     1      27.787   1.082  53.522  1.00  0.00     0.064 A 
HETATM   14 CL1  UNL     1      28.658   2.607  53.762  1.00  0.00    -0.085 Cl
HETATM   15  C3  UNL     1      28.443   0.053  53.011  1.00  0.00     0.025 A 
HETATM   16  C4  UNL     1      27.633  -1.156  52.855  1.00  0.00     0.019 A 
HETATM   17  C5  UNL     1      26.340  -1.129  53.223  1.00  0.00     0.095 A 
BRANCH  12  18
HETATM   18  N1  UNL     1      25.873   2.392  53.221  1.00  0.00     0.107 N 
HETATM   19  H1  UNL     1      26.503   2.604  52.435  1.00  0.00     0.316 HD
HETATM   20  H2  UNL     1      24.876   2.336  52.985  1.00  0.00     0.316 HD
ENDBRANCH  12  18
ENDBRANCH   1  11
BRANCH   8  21
HETATM   21  C12 UNL     1      22.332   1.626  50.111  1.00  0.00     0.077 C 
BRANCH  21  22
HETATM   22  C13 UNL     1      23.035   2.919  50.427  1.00  0.00    -0.054 A 
HETATM   23  C14 UNL     1      24.242   3.194  49.808  1.00  0.00     0.007 A 
HETATM   24  C15 UNL     1      24.978   4.344  50.017  1.00  0.00     0.001 A 
HETATM   25  C16 UNL     1      24.442   5.258  50.910  1.00  0.00     0.000 A 
HETATM   26  C17 UNL     1      23.241   4.996  51.533  1.00  0.00     0.001 A 
HETATM   27  C18 UNL     1      22.522   3.842  51.311  1.00  0.00     0.007 A 
ENDBRANCH  21  22
ENDBRANCH   8  21
TORSDOF 4
ENDMDL
MODEL 2
REMARK VINA RESULT:      -8.6      2.837      5.948
REMARK  4 active torsions:
REMARK  status: ('A' for Active; 'I' for Inactive)
REMARK    1  A    between atoms: N1_1  and  C1_2 
REMARK    2  A    between atoms: N2_8  and  C6_9 
REMARK    3  A    between atoms: C11_16  and  C12_17 
REMARK    4  A    between atoms: C12_17  and  C13_18 
ROOT
HETATM    1  C6  UNL     1      21.711   0.424  52.831  1.00  0.00     0.145 A 
HETATM    2  N3  UNL     1      20.496  -0.091  53.190  1.00  0.00    -0.223 NA
HETATM    3  C7  UNL     1      20.453  -0.991  54.195  1.00  0.00     0.236 A 
HETATM    4  N4  UNL     1      21.550  -1.420  54.874  1.00  0.00    -0.241 NA
HETATM    5  C8  UNL     1      22.746  -0.922  54.531  1.00  0.00     0.072 A 
HETATM    6  C9  UNL     1      23.948  -1.245  55.129  1.00  0.00     0.033 A 
HETATM    7  C10 UNL     1      25.144  -0.658  54.705  1.00  0.00     0.010 A 
HETATM    8  C11 UNL     1      25.168   0.276  53.664  1.00  0.00    -0.053 A 
HETATM    9  C19 UNL     1      23.966   0.581  53.085  1.00  0.00     0.025 A 
HETATM   10  C20 UNL     1      22.801  -0.011  53.517  1.00  0.00     0.039 A 
ENDROOT
BRANCH   1  11
HETATM   11  N2  UNL     1      21.520   1.303  51.726  1.00  0.00    -0.306 N 
HETATM   12  C1  UNL     1      21.332   2.738  51.640  1.00  0.00     0.370 A 
HETATM   13  C2  UNL     1      21.160   3.096  50.209  1.00  0.00     0.064 A 
HETATM   14 CL1  UNL     1      20.922   4.849  50.105  1.00  0.00    -0.085 Cl
HETATM   15  C3  UNL     1      21.156   2.389  49.091  1.00  0.00     0.025 A 
HETATM   16  C4  UNL     1      21.361   0.954  49.288  1.00  0.00     0.019 A 
HETATM   17  C5  UNL     1      21.528   0.483  50.537  1.00  0.00     0.095 A 
BRANCH  12  18
HETATM   18  N1  UNL     1      20.157   3.233  52.318  1.00  0.00     0.107 N 
HETATM   19  H1  UNL     1      20.170   2.939  53.304  1.00  0.00     0.316 HD
HETATM   20  H2  UNL     1      19.947   4.224  52.156  1.00  0.00     0.316 HD
ENDBRANCH  12  18
ENDBRANCH   1  11
BRANCH   8  21
HETATM   21  C12 UNL     1      26.476   0.857  53.269  1.00  0.00     0.077 C 
BRANCH  21  22
HETATM   22  C13 UNL     1      27.448  -0.292  53.236  1.00  0.00    -0.054 A 
HETATM   23  C14 UNL     1      28.713  -0.114  53.767  1.00  0.00     0.007 A 
HETATM   24  C15 UNL     1      29.689  -1.092  53.794  1.00  0.00     0.001 A 
HETATM   25  C16 UNL     1      29.342  -2.316  53.246  1.00  0.00     0.000 A 
HETATM   26  C17 UNL     1      28.085  -2.506  52.714  1.00  0.00     0.001 A 
HETATM   27  C18 UNL     1      27.126  -1.517  52.696  1.00  0.00     0.007 A 
ENDBRANCH  21  22
ENDBRANCH   8  21
TORSDOF 4
ENDMDL
MODEL 3
REMARK VINA RESULT:      -8.6      2.542      4.883
REMARK  4 active torsions:
REMARK  status: ('A' for Active; 'I' for Inactive)
REMARK    1  A    between atoms: N1_1  and  C1_2 
REMARK    2  A    between atoms: N2_8  and  C6_9 
REMARK    3  A    between atoms: C11_16  and  C12_17 
REMARK    4  A    between atoms: C12_17  and  C13_18 
ROOT
HETATM    1  C6  UNL     1      21.225   0.606  51.718  1.00  0.00     0.145 A 
HETATM    2  N3  UNL     1      19.891   0.656  51.418  1.00  0.00    -0.223 NA
HETATM    3  C7  UNL     1      19.028   0.006  52.228  1.00  0.00     0.236 A 
HETATM    4  N4  UNL     1      19.406  -0.697  53.327  1.00  0.00    -0.241 NA
HETATM    5  C8  UNL     1      20.710  -0.752  53.631  1.00  0.00     0.072 A 
HETATM    6  C9  UNL     1      21.251  -1.411  54.718  1.00  0.00     0.033 A 
HETATM    7  C10 UNL     1      22.628  -1.397  54.956  1.00  0.00     0.010 A 
HETATM    8  C11 UNL     1      23.507  -0.715  54.107  1.00  0.00    -0.053 A 
HETATM    9  C19 UNL     1      22.951  -0.070  53.037  1.00  0.00     0.025 A 
HETATM   10  C20 UNL     1      21.591  -0.099  52.821  1.00  0.00     0.039 A 
ENDROOT
BRANCH   1  11
HETATM   11  N2  UNL     1      21.941   1.310  50.707  1.00  0.00    -0.306 N 
HETATM   12  C1  UNL     1      23.084   2.200  50.759  1.00  0.00     0.370 A 
HETATM   13  C2  UNL     1      23.379   2.655  49.376  1.00  0.00     0.064 A 
HETATM   14 CL1  UNL     1      24.771   3.749  49.441  1.00  0.00    -0.085 Cl
HETATM   15  C3  UNL     1      22.826   2.403  48.201  1.00  0.00     0.025 A 
HETATM   16  C4  UNL     1      21.685   1.489  48.259  1.00  0.00     0.019 A 
HETATM   17  C5  UNL     1      21.300   0.997  49.450  1.00  0.00     0.095 A 
BRANCH  12  18
HETATM   18  N1  UNL     1      22.879   3.400  51.537  1.00  0.00     0.107 N 
HETATM   19  H1  UNL     1      23.550   3.431  52.317  1.00  0.00     0.316 HD
HETATM   20  H2  UNL     1      22.798   4.263  50.990  1.00  0.00     0.316 HD
ENDBRANCH  12  18
ENDBRANCH   1  11
BRANCH   8  21
HETATM   21  C12 UNL     1      24.958  -0.744  54.424  1.00  0.00     0.077 C 
BRANCH  21  22
HETATM   22  C13 UNL     1      25.612   0.219  53.470  1.00  0.00    -0.054 A 
HETATM   23  C14 UNL     1      25.589   1.571  53.761  1.00  0.00     0.007 A 
HETATM   24  C15 UNL     1      26.153   2.547  52.965  1.00  0.00     0.001 A 
HETATM   25  C16 UNL     1      26.775   2.107  51.807  1.00  0.00     0.000 A 
HETATM   26  C17 UNL     1      26.805   0.763  51.505  1.00  0.00     0.001 A 
HETATM   27  C18 UNL     1      26.235  -0.196  52.314  1.00  0.00     0.007 A 
ENDBRANCH  21  22
ENDBRANCH   8  21
TORSDOF 4
ENDMDL
MODEL 4
REMARK VINA RESULT:      -8.5      2.359      5.422
REMARK  4 active torsions:
REMARK  status: ('A' for Active; 'I' for Inactive)
REMARK    1  A    between atoms: N1_1  and  C1_2 
REMARK    2  A    between atoms: N2_8  and  C6_9 
REMARK    3  A    between atoms: C11_16  and  C12_17 
REMARK    4  A    between atoms: C12_17  and  C13_18 
ROOT
HETATM    1  C6  UNL     1      22.840   2.696  51.854  1.00  0.00     0.145 A 
HETATM    2  N3  UNL     1      21.566   3.052  52.200  1.00  0.00    -0.223 NA
HETATM    3  C7  UNL     1      20.861   2.218  52.993  1.00  0.00     0.236 A 
HETATM    4  N4  UNL     1      21.341   1.039  53.468  1.00  0.00    -0.241 NA
HETATM    5  C8  UNL     1      22.589   0.680  53.136  1.00  0.00     0.072 A 
HETATM    6  C9  UNL     1      23.225  -0.475  53.546  1.00  0.00     0.033 A 
HETATM    7  C10 UNL     1      24.538  -0.753  53.154  1.00  0.00     0.010 A 
HETATM    8  C11 UNL     1      25.255   0.127  52.335  1.00  0.00    -0.053 A 
HETATM    9  C19 UNL     1      24.606   1.264  51.939  1.00  0.00     0.025 A 
HETATM   10  C20 UNL     1      23.312   1.516  52.336  1.00  0.00     0.039 A 
ENDROOT
BRANCH   1  11
HETATM   11  N2  UNL     1      23.365   3.692  50.980  1.00  0.00    -0.306 N 
HETATM   12  C1  UNL     1      24.275   4.799  51.196  1.00  0.00     0.370 A 
HETATM   13  C2  UNL     1      24.443   5.517  49.906  1.00  0.00     0.064 A 
HETATM   14 CL1  UNL     1      25.549   6.876  50.171  1.00  0.00    -0.085 Cl
HETATM   15  C3  UNL     1      23.949   5.331  48.693  1.00  0.00     0.025 A 
HETATM   16  C4  UNL     1      23.048   4.183  48.583  1.00  0.00     0.019 A 
HETATM   17  C5  UNL     1      22.799   3.439  49.675  1.00  0.00     0.095 A 
BRANCH  12  18
HETATM   18  N1  UNL     1      23.810   5.786  52.142  1.00  0.00     0.107 N 
HETATM   19  H1  UNL     1      23.993   6.732  51.781  1.00  0.00     0.316 HD
HETATM   20  H2  UNL     1      22.865   5.628  52.506  1.00  0.00     0.316 HD
ENDBRANCH  12  18
ENDBRANCH   1  11
BRANCH   8  21
HETATM   21  C12 UNL     1      26.645  -0.235  51.960  1.00  0.00     0.077 C 
BRANCH  21  22
HETATM   22  C13 UNL     1      27.537   0.448  52.962  1.00  0.00    -0.054 A 
HETATM   23  C14 UNL     1      27.817   1.793  52.802  1.00  0.00     0.007 A 
HETATM   24  C15 UNL     1      28.619   2.527  53.654  1.00  0.00     0.001 A 
HETATM   25  C16 UNL     1      29.161   1.837  54.727  1.00  0.00     0.000 A 
HETATM   26  C17 UNL     1      28.890   0.497  54.897  1.00  0.00     0.001 A 
HETATM   27  C18 UNL     1      28.087  -0.217  54.036  1.00  0.00     0.007 A 
ENDBRANCH  21  22
ENDBRANCH   8  21
TORSDOF 4
ENDMDL
MODEL 5
REMARK VINA RESULT:      -8.3      1.688      2.259
REMARK  4 active torsions:
REMARK  status: ('A' for Active; 'I' for Inactive)
REMARK    1  A    between atoms: N1_1  and  C1_2 
REMARK    2  A    between atoms: N2_8  and  C6_9 
REMARK    3  A    between atoms: C11_16  and  C12_17 
REMARK    4  A    between atoms: C12_17  and  C13_18 
ROOT
HETATM    1  C6  UNL     1      23.984   0.060  53.719  1.00  0.00     0.145 A 
HETATM    2  N3  UNL     1      23.446  -0.892  54.539  1.00  0.00    -0.223 NA
HETATM    3  C7  UNL     1      22.107  -0.905  54.712  1.00  0.00     0.236 A 
HETATM    4  N4  UNL     1      21.258  -0.025  54.119  1.00  0.00    -0.241 NA
HETATM    5  C8  UNL     1      21.775   0.913  53.312  1.00  0.00     0.072 A 
HETATM    6  C9  UNL     1      21.049   1.867  52.628  1.00  0.00     0.033 A 
HETATM    7  C10 UNL     1      21.683   2.796  51.797  1.00  0.00     0.010 A 
HETATM    8  C11 UNL     1      23.072   2.792  51.627  1.00  0.00    -0.053 A 
HETATM    9  C19 UNL     1      23.772   1.838  52.315  1.00  0.00     0.025 A 
HETATM   10  C20 UNL     1      23.126   0.935  53.129  1.00  0.00     0.039 A 
ENDROOT
BRANCH   1  11
HETATM   11  N2  UNL     1      25.402  -0.084  53.729  1.00  0.00    -0.306 N 
HETATM   12  C1  UNL     1      26.447   0.597  54.467  1.00  0.00     0.370 A 
HETATM   13  C2  UNL     1      27.754   0.032  54.044  1.00  0.00     0.064 A 
HETATM   14 CL1  UNL     1      29.033   0.870  54.939  1.00  0.00    -0.085 Cl
HETATM   15  C3  UNL     1      28.099  -0.913  53.184  1.00  0.00     0.025 A 
HETATM   16  C4  UNL     1      26.968  -1.540  52.499  1.00  0.00     0.019 A 
HETATM   17  C5  UNL     1      25.720  -1.126  52.780  1.00  0.00     0.095 A 
BRANCH  12  18
HETATM   18  N1  UNL     1      26.531   2.018  54.222  1.00  0.00     0.107 N 
HETATM   19  H1  UNL     1      25.599   2.391  53.996  1.00  0.00     0.316 HD
HETATM   20  H2  UNL     1      27.061   2.549  54.921  1.00  0.00     0.316 HD
ENDBRANCH  12  18
ENDBRANCH   1  11
BRANCH   8  21
HETATM   21  C12 UNL     1      23.675   3.808  50.728  1.00  0.00     0.077 C 
BRANCH  21  22
HETATM   22  C13 UNL     1      23.067   3.576  49.371  1.00  0.00    -0.054 A 
HETATM   23  C14 UNL     1      22.559   4.655  48.670  1.00  0.00     0.007 A 
HETATM   24  C15 UNL     1      21.979   4.567  47.420  1.00  0.00     0.001 A 
HETATM   25  C16 UNL     1      21.921   3.300  46.862  1.00  0.00     0.000 A 
HETATM   26  C17 UNL     1      22.424   2.216  47.549  1.00  0.00     0.001 A 
HETATM   27  C18 UNL     1      22.999   2.326  48.797  1.00  0.00     0.007 A 
ENDBRANCH  21  22
ENDBRANCH   8  21
TORSDOF 4
ENDMDL
MODEL 6
REMARK VINA RESULT:      -8.3      2.640      5.522
REMARK  4 active torsions:
REMARK  status: ('A' for Active; 'I' for Inactive)
REMARK    1  A    between atoms: N1_1  and  C1_2 
REMARK    2  A    between atoms: N2_8  and  C6_9 
REMARK    3  A    between atoms: C11_16  and  C12_17 
REMARK    4  A    between atoms: C12_17  and  C13_18 
ROOT
HETATM    1  C6  UNL     1      21.988   1.125  52.358  1.00  0.00     0.145 A 
HETATM    2  N3  UNL     1      20.788   1.170  53.012  1.00  0.00    -0.223 NA
HETATM    3  C7  UNL     1      20.675   0.517  54.188  1.00  0.00     0.236 A 
HETATM    4  N4  UNL     1      21.685  -0.187  54.763  1.00  0.00    -0.241 NA
HETATM    5  C8  UNL     1      22.866  -0.238  54.131  1.00  0.00     0.072 A 
HETATM    6  C9  UNL     1      23.990  -0.897  54.588  1.00  0.00     0.033 A 
HETATM    7  C10 UNL     1      25.182  -0.879  53.859  1.00  0.00     0.010 A 
HETATM    8  C11 UNL     1      25.281  -0.193  52.643  1.00  0.00    -0.053 A 
HETATM    9  C19 UNL     1      24.156   0.452  52.208  1.00  0.00     0.025 A 
HETATM   10  C20 UNL     1      22.992   0.419  52.943  1.00  0.00     0.039 A 
ENDROOT
BRANCH   1  11
HETATM   11  N2  UNL     1      21.858   1.832  51.128  1.00  0.00    -0.306 N 
HETATM   12  C1  UNL     1      22.037   3.228  50.780  1.00  0.00     0.370 A 
HETATM   13  C2  UNL     1      21.739   3.385  49.334  1.00  0.00     0.064 A 
HETATM   14 CL1  UNL     1      21.949   5.093  48.909  1.00  0.00    -0.085 Cl
HETATM   15  C3  UNL     1      21.373   2.538  48.385  1.00  0.00     0.025 A 
HETATM   16  C4  UNL     1      21.228   1.155  48.840  1.00  0.00     0.019 A 
HETATM   17  C5  UNL     1      21.463   0.863  50.132  1.00  0.00     0.095 A 
BRANCH  12  18
HETATM   18  N1  UNL     1      21.154   4.139  51.469  1.00  0.00     0.107 N 
HETATM   19  H1  UNL     1      21.645   4.571  52.264  1.00  0.00     0.316 HD
HETATM   20  H2  UNL     1      20.639   4.788  50.863  1.00  0.00     0.316 HD
ENDBRANCH  12  18
ENDBRANCH   1  11
BRANCH   8  21
HETATM   21  C12 UNL     1      26.580  -0.218  51.925  1.00  0.00     0.077 C 
BRANCH  21  22
HETATM   22  C13 UNL     1      27.544   0.559  52.781  1.00  0.00    -0.054 A 
HETATM   23  C14 UNL     1      28.493  -0.130  53.516  1.00  0.00     0.007 A 
HETATM   24  C15 UNL     1      29.428   0.471  54.335  1.00  0.00     0.001 A 
HETATM   25  C16 UNL     1      29.384   1.854  54.400  1.00  0.00     0.000 A 
HETATM   26  C17 UNL     1      28.444   2.552  53.673  1.00  0.00     0.001 A 
HETATM   27  C18 UNL     1      27.519   1.934  52.861  1.00  0.00     0.007 A 
ENDBRANCH  21  22
ENDBRANCH   8  21
TORSDOF 4
ENDMDL
MODEL 7
REMARK VINA RESULT:      -8.1      1.870      3.906
REMARK  4 active torsions:
REMARK  status: ('A' for Active; 'I' for Inactive)
REMARK    1  A    between atoms: N1_1  and  C1_2 
REMARK    2  A    between atoms: N2_8  and  C6_9 
REMARK    3  A    between atoms: C11_16  and  C12_17 
REMARK    4  A    between atoms: C12_17  and  C13_18 
ROOT
HETATM    1  C6  UNL     1      25.079   1.048  53.387  1.00  0.00     0.145 A 
HETATM    2  N3  UNL     1      26.347   0.985  53.895  1.00  0.00    -0.223 NA
HETATM    3  C7  UNL     1      26.605   0.081  54.864  1.00  0.00     0.236 A 
HETATM    4  N4  UNL     1      25.677  -0.773  55.369  1.00  0.00    -0.241 NA
HETATM    5  C8  UNL     1      24.430  -0.721  54.878  1.00  0.00     0.072 A 
HETATM    6  C9  UNL     1      23.381  -1.526  55.274  1.00  0.00     0.033 A 
HETATM    7  C10 UNL     1      22.117  -1.402  54.689  1.00  0.00     0.010 A 
HETATM    8  C11 UNL     1      21.870  -0.462  53.683  1.00  0.00    -0.053 A 
HETATM    9  C19 UNL     1      22.923   0.327  53.307  1.00  0.00     0.025 A 
HETATM   10  C20 UNL     1      24.158   0.188  53.898  1.00  0.00     0.039 A 
ENDROOT
BRANCH   1  11
HETATM   11  N2  UNL     1      25.029   2.099  52.426  1.00  0.00    -0.306 N 
HETATM   12  C1  UNL     1      25.890   2.446  51.313  1.00  0.00     0.370 A 
HETATM   13  C2  UNL     1      25.345   3.670  50.672  1.00  0.00     0.064 A 
HETATM   14 CL1  UNL     1      26.402   4.100  49.316  1.00  0.00    -0.085 Cl
HETATM   15  C3  UNL     1      24.292   4.432  50.920  1.00  0.00     0.025 A 
HETATM   16  C4  UNL     1      23.487   3.990  52.059  1.00  0.00     0.019 A 
HETATM   17  C5  UNL     1      23.864   2.893  52.740  1.00  0.00     0.095 A 
BRANCH  12  18
HETATM   18  N1  UNL     1      27.251   2.761  51.678  1.00  0.00     0.107 N 
HETATM   19  H1  UNL     1      27.480   3.721  51.385  1.00  0.00     0.316 HD
HETATM   20  H2  UNL     1      27.509   2.520  52.641  1.00  0.00     0.316 HD
ENDBRANCH  12  18
ENDBRANCH   1  11
BRANCH   8  21
HETATM   21  C12 UNL     1      20.502  -0.388  53.108  1.00  0.00     0.077 C 
BRANCH  21  22
HETATM   22  C13 UNL     1      20.556   0.674  52.042  1.00  0.00    -0.054 A 
HETATM   23  C14 UNL     1      21.133   0.370  50.823  1.00  0.00     0.007 A 
HETATM   24  C15 UNL     1      21.239   1.258  49.771  1.00  0.00     0.001 A 
HETATM   25  C16 UNL     1      20.723   2.526  49.987  1.00  0.00     0.000 A 
HETATM   26  C17 UNL     1      20.145   2.841  51.198  1.00  0.00     0.001 A 
HETATM   27  C18 UNL     1      20.049   1.940  52.236  1.00  0.00     0.007 A 
ENDBRANCH  21  22
ENDBRANCH   8  21
TORSDOF 4
ENDMDL
MODEL 8
REMARK VINA RESULT:      -8.1      2.376      4.088
REMARK  4 active torsions:
REMARK  status: ('A' for Active; 'I' for Inactive)
REMARK    1  A    between atoms: N1_1  and  C1_2 
REMARK    2  A    between atoms: N2_8  and  C6_9 
REMARK    3  A    between atoms: C11_16  and  C12_17 
REMARK    4  A    between atoms: C12_17  and  C13_18 
ROOT
HETATM    1  C6  UNL     1      25.603   1.293  52.173  1.00  0.00     0.145 A 
HETATM    2  N3  UNL     1      24.649   0.562  52.827  1.00  0.00    -0.223 NA
HETATM    3  C7  UNL     1      23.358   0.738  52.478  1.00  0.00     0.236 A 
HETATM    4  N4  UNL     1      22.945   1.602  51.514  1.00  0.00    -0.241 NA
HETATM    5  C8  UNL     1      23.871   2.324  50.866  1.00  0.00     0.072 A 
HETATM    6  C9  UNL     1      23.616   3.231  49.857  1.00  0.00     0.033 A 
HETATM    7  C10 UNL     1      24.657   3.925  49.233  1.00  0.00     0.010 A 
HETATM    8  C11 UNL     1      25.991   3.727  49.606  1.00  0.00    -0.053 A 
HETATM    9  C19 UNL     1      26.221   2.824  50.608  1.00  0.00     0.025 A 
HETATM   10  C20 UNL     1      25.180   2.153  51.209  1.00  0.00     0.039 A 
ENDROOT
BRANCH   1  11
HETATM   11  N2  UNL     1      26.875   0.984  52.738  1.00  0.00    -0.306 N 
HETATM   12  C1  UNL     1      27.621  -0.254  52.845  1.00  0.00     0.370 A 
HETATM   13  C2  UNL     1      28.890   0.033  53.563  1.00  0.00     0.064 A 
HETATM   14 CL1  UNL     1      29.799  -1.482  53.701  1.00  0.00    -0.085 Cl
HETATM   15  C3  UNL     1      29.414   1.135  54.073  1.00  0.00     0.025 A 
HETATM   16  C4  UNL     1      28.584   2.328  53.905  1.00  0.00     0.019 A 
HETATM   17  C5  UNL     1      27.401   2.218  53.275  1.00  0.00     0.095 A 
BRANCH  12  18
HETATM   18  N1  UNL     1      26.962  -1.292  53.603  1.00  0.00     0.107 N 
HETATM   19  H1  UNL     1      27.193  -2.214  53.209  1.00  0.00     0.316 HD
HETATM   20  H2  UNL     1      27.054  -1.211  54.622  1.00  0.00     0.316 HD
ENDBRANCH  12  18
ENDBRANCH   1  11
BRANCH   8  21
HETATM   21  C12 UNL     1      27.042   4.500  48.898  1.00  0.00     0.077 C 
BRANCH  21  22
HETATM   22  C13 UNL     1      26.631   5.945  48.993  1.00  0.00    -0.054 A 
HETATM   23  C14 UNL     1      27.091   6.837  48.041  1.00  0.00     0.007 A 
HETATM   24  C15 UNL     1      26.782   8.183  48.023  1.00  0.00     0.001 A 
HETATM   25  C16 UNL     1      25.956   8.633  49.040  1.00  0.00     0.000 A 
HETATM   26  C17 UNL     1      25.492   7.755  49.996  1.00  0.00     0.001 A 
HETATM   27  C18 UNL     1      25.811   6.415  49.996  1.00  0.00     0.007 A 
ENDBRANCH  21  22
ENDBRANCH   8  21
TORSDOF 4
ENDMDL
MODEL 9
REMARK VINA RESULT:      -8.1      1.347      2.204
REMARK  4 active torsions:
REMARK  status: ('A' for Active; 'I' for Inactive)
REMARK    1  A    between atoms: N1_1  and  C1_2 
REMARK    2  A    between atoms: N2_8  and  C6_9 
REMARK    3  A    between atoms: C11_16  and  C12_17 
REMARK    4  A    between atoms: C12_17  and  C13_18 
ROOT
HETATM    1  C6  UNL     1      23.051   0.031  53.315  1.00  0.00     0.145 A 
HETATM    2  N3  UNL     1      22.695  -0.673  54.432  1.00  0.00    -0.223 NA
HETATM    3  C7  UNL     1      21.410  -1.066  54.559  1.00  0.00     0.236 A 
HETATM    4  N4  UNL     1      20.444  -0.803  53.640  1.00  0.00    -0.241 NA
HETATM    5  C8  UNL     1      20.782  -0.114  52.540  1.00  0.00     0.072 A 
HETATM    6  C9  UNL     1      19.924   0.220  51.511  1.00  0.00     0.033 A 
HETATM    7  C10 UNL     1      20.379   0.932  50.397  1.00  0.00     0.010 A 
HETATM    8  C11 UNL     1      21.716   1.328  50.282  1.00  0.00    -0.053 A 
HETATM    9  C19 UNL     1      22.549   0.986  51.313  1.00  0.00     0.025 A 
HETATM   10  C20 UNL     1      22.078   0.287  52.401  1.00  0.00     0.039 A 
ENDROOT
BRANCH   1  11
HETATM   11  N2  UNL     1      24.429   0.381  53.422  1.00  0.00    -0.306 N 
HETATM   12  C1  UNL     1      25.620  -0.405  53.673  1.00  0.00     0.370 A 
HETATM   13  C2  UNL     1      26.785   0.517  53.697  1.00  0.00     0.064 A 
HETATM   14 CL1  UNL     1      28.241  -0.443  54.012  1.00  0.00    -0.085 Cl
HETATM   15  C3  UNL     1      26.911   1.824  53.537  1.00  0.00     0.025 A 
HETATM   16  C4  UNL     1      25.650   2.521  53.283  1.00  0.00     0.019 A 
HETATM   17  C5  UNL     1      24.508   1.812  53.236  1.00  0.00     0.095 A 
BRANCH  12  18
HETATM   18  N1  UNL     1      25.632  -1.094  54.942  1.00  0.00     0.107 N 
HETATM   19  H1  UNL     1      24.673  -1.353  55.210  1.00  0.00     0.316 HD
HETATM   20  H2  UNL     1      26.330  -1.841  55.025  1.00  0.00     0.316 HD
ENDBRANCH  12  18
ENDBRANCH   1  11
BRANCH   8  21
HETATM   21  C12 UNL     1      22.126   2.079  49.069  1.00  0.00     0.077 C 
BRANCH  21  22
HETATM   22  C13 UNL     1      23.052   3.166  49.546  1.00  0.00    -0.054 A 
HETATM   23  C14 UNL     1      22.525   4.235  50.250  1.00  0.00     0.007 A 
HETATM   24  C15 UNL     1      23.273   5.288  50.737  1.00  0.00     0.001 A 
HETATM   25  C16 UNL     1      24.635   5.238  50.488  1.00  0.00     0.000 A 
HETATM   26  C17 UNL     1      25.172   4.179  49.788  1.00  0.00     0.001 A 
HETATM   27  C18 UNL     1      24.409   3.137  49.309  1.00  0.00     0.007 A 
ENDBRANCH  21  22
ENDBRANCH   8  21
TORSDOF 4
ENDMDL
