MODEL 1
REMARK VINA RESULT:      -7.8      0.000      0.000
REMARK  9 active torsions:
REMARK  status: ('A' for Active; 'I' for Inactive)
REMARK    1  A    between atoms: C2_2  and  C3_3 
REMARK    2  A    between atoms: C3_3  and  C4_4 
REMARK    3  A    between atoms: C4_4  and  C6_6 
REMARK    4  A    between atoms: C6_6  and  C7_7 
REMARK    5  A    between atoms: C7_7  and  N1_8 
REMARK    6  A    between atoms: N1_8  and  C8_9 
REMARK    7  A    between atoms: C10_11  and  C11_12 
REMARK    8  A    between atoms: C13_14  and  O1_15 
REMARK    9  A    between atoms: C17_19  and  O2_20 
ROOT
HETATM    1  C8  UNL     1      27.121   1.593  52.842  1.00  0.00     0.138 C 
HETATM    2  C9  UNL     1      25.933   1.138  52.691  1.00  0.00     0.053 C 
HETATM    3  C10 UNL     1      25.491  -0.042  52.916  1.00  0.00     0.061 C 
HETATM    4  N2  UNL     1      26.092  -1.349  52.779  1.00  0.00    -0.349 N 
HETATM    5  C19 UNL     1      27.445  -1.830  52.948  1.00  0.00     0.208 C 
HETATM    6  N3  UNL     1      28.595  -1.349  53.363  1.00  0.00    -0.237 NA
HETATM    7  C20 UNL     1      28.815   0.004  53.824  1.00  0.00     0.236 C 
HETATM    8  N4  UNL     1      28.250   1.173  53.633  1.00  0.00    -0.224 NA
HETATM    9  H20 UNL     1      25.422  -2.083  52.507  1.00  0.00     0.166 HD
ENDROOT
BRANCH   3  10
HETATM   10  C11 UNL     1      24.114  -0.188  53.406  1.00  0.00     0.028 A 
HETATM   11  C12 UNL     1      23.048   0.371  52.726  1.00  0.00     0.053 A 
HETATM   12  C13 UNL     1      21.721   0.303  53.088  1.00  0.00     0.069 A 
HETATM   13  C15 UNL     1      21.451  -0.391  54.237  1.00  0.00     0.039 A 
HETATM   14  C16 UNL     1      22.468  -0.974  54.964  1.00  0.00     0.040 A 
HETATM   15  C17 UNL     1      23.791  -0.881  54.564  1.00  0.00     0.080 A 
BRANCH  12  16
HETATM   16  O1  UNL     1      20.689   0.877  52.375  1.00  0.00    -0.356 OA
HETATM   17  C14 UNL     1      20.542   0.547  51.008  1.00  0.00     0.210 C 
ENDBRANCH  12  16
BRANCH  15  18
HETATM   18  O2  UNL     1      24.800  -1.470  55.302  1.00  0.00    -0.355 OA
HETATM   19  C18 UNL     1      25.215  -0.866  56.498  1.00  0.00     0.210 C 
ENDBRANCH  15  18
ENDBRANCH   3  10
BRANCH   1  20
HETATM   20  N1  UNL     1      27.159   2.752  51.975  1.00  0.00    -0.370 N 
HETATM   21  H10 UNL     1      27.904   3.474  52.116  1.00  0.00     0.161 HD
BRANCH  20  22
HETATM   22  C7  UNL     1      26.139   2.863  50.927  1.00  0.00     0.149 C 
BRANCH  22  23
HETATM   23  C6  UNL     1      26.703   3.546  49.738  1.00  0.00    -0.000 C 
BRANCH  23  24
HETATM   24  C4  UNL     1      26.296   4.700  49.253  1.00  0.00    -0.057 C 
HETATM   25  C5  UNL     1      24.867   5.090  49.324  1.00  0.00     0.048 C 
BRANCH  24  26
HETATM   26  C3  UNL     1      27.003   5.757  48.612  1.00  0.00     0.057 C 
BRANCH  26  27
HETATM   27  C2  UNL     1      28.275   5.610  48.278  1.00  0.00    -0.154 C 
HETATM   28  C1  UNL     1      29.600   5.588  48.210  1.00  0.00     0.096 C 
ENDBRANCH  26  27
ENDBRANCH  24  26
ENDBRANCH  23  24
ENDBRANCH  22  23
ENDBRANCH  20  22
ENDBRANCH   1  20
TORSDOF 9
ENDMDL
MODEL 2
REMARK VINA RESULT:      -7.7      1.427      2.496
REMARK  9 active torsions:
REMARK  status: ('A' for Active; 'I' for Inactive)
REMARK    1  A    between atoms: C2_2  and  C3_3 
REMARK    2  A    between atoms: C3_3  and  C4_4 
REMARK    3  A    between atoms: C4_4  and  C6_6 
REMARK    4  A    between atoms: C6_6  and  C7_7 
REMARK    5  A    between atoms: C7_7  and  N1_8 
REMARK    6  A    between atoms: N1_8  and  C8_9 
REMARK    7  A    between atoms: C10_11  and  C11_12 
REMARK    8  A    between atoms: C13_14  and  O1_15 
REMARK    9  A    between atoms: C17_19  and  O2_20 
ROOT
HETATM    1  C8  UNL     1      26.859   2.023  52.579  1.00  0.00     0.138 C 
HETATM    2  C9  UNL     1      25.760   1.375  52.470  1.00  0.00     0.053 C 
HETATM    3  C10 UNL     1      25.509   0.160  52.787  1.00  0.00     0.061 C 
HETATM    4  N2  UNL     1      26.310  -1.041  52.748  1.00  0.00    -0.349 N 
HETATM    5  C19 UNL     1      27.721  -1.287  52.947  1.00  0.00     0.208 C 
HETATM    6  N3  UNL     1      28.777  -0.600  53.317  1.00  0.00    -0.237 NA
HETATM    7  C20 UNL     1      28.777   0.803  53.673  1.00  0.00     0.236 C 
HETATM    8  N4  UNL     1      28.035   1.849  53.395  1.00  0.00    -0.224 NA
HETATM    9  H20 UNL     1      25.767  -1.891  52.538  1.00  0.00     0.166 HD
ENDROOT
BRANCH   3  10
HETATM   10  C11 UNL     1      24.168  -0.164  53.294  1.00  0.00     0.028 A 
HETATM   11  C12 UNL     1      23.032   0.208  52.603  1.00  0.00     0.053 A 
HETATM   12  C13 UNL     1      21.729  -0.037  52.977  1.00  0.00     0.069 A 
HETATM   13  C15 UNL     1      21.565  -0.717  54.155  1.00  0.00     0.039 A 
HETATM   14  C16 UNL     1      22.658  -1.118  54.895  1.00  0.00     0.040 A 
HETATM   15  C17 UNL     1      23.953  -0.850  54.481  1.00  0.00     0.080 A 
BRANCH  12  16
HETATM   16  O1  UNL     1      20.623   0.354  52.251  1.00  0.00    -0.356 OA
HETATM   17  C14 UNL     1      19.352  -0.128  52.639  1.00  0.00     0.210 C 
ENDBRANCH  12  16
BRANCH  15  18
HETATM   18  O2  UNL     1      25.038  -1.257  55.232  1.00  0.00    -0.355 OA
HETATM   19  C18 UNL     1      25.125  -0.867  56.577  1.00  0.00     0.210 C 
ENDBRANCH  15  18
ENDBRANCH   3  10
BRANCH   1  20
HETATM   20  N1  UNL     1      26.721   3.103  51.626  1.00  0.00    -0.370 N 
HETATM   21  H10 UNL     1      26.804   4.093  51.955  1.00  0.00     0.161 HD
BRANCH  20  22
HETATM   22  C7  UNL     1      26.465   2.756  50.223  1.00  0.00     0.149 C 
BRANCH  22  23
HETATM   23  C6  UNL     1      25.632   3.803  49.584  1.00  0.00    -0.000 C 
BRANCH  23  24
HETATM   24  C4  UNL     1      24.317   3.800  49.515  1.00  0.00    -0.057 C 
HETATM   25  C5  UNL     1      23.602   4.784  48.667  1.00  0.00     0.048 C 
BRANCH  24  26
HETATM   26  C3  UNL     1      23.340   2.975  50.141  1.00  0.00     0.057 C 
BRANCH  26  27
HETATM   27  C2  UNL     1      22.555   2.194  49.417  1.00  0.00    -0.154 C 
HETATM   28  C1  UNL     1      21.932   1.514  48.462  1.00  0.00     0.096 C 
ENDBRANCH  26  27
ENDBRANCH  24  26
ENDBRANCH  23  24
ENDBRANCH  22  23
ENDBRANCH  20  22
ENDBRANCH   1  20
TORSDOF 9
ENDMDL
MODEL 3
REMARK VINA RESULT:      -7.4      2.501      4.977
REMARK  9 active torsions:
REMARK  status: ('A' for Active; 'I' for Inactive)
REMARK    1  A    between atoms: C2_2  and  C3_3 
REMARK    2  A    between atoms: C3_3  and  C4_4 
REMARK    3  A    between atoms: C4_4  and  C6_6 
REMARK    4  A    between atoms: C6_6  and  C7_7 
REMARK    5  A    between atoms: C7_7  and  N1_8 
REMARK    6  A    between atoms: N1_8  and  C8_9 
REMARK    7  A    between atoms: C10_11  and  C11_12 
REMARK    8  A    between atoms: C13_14  and  O1_15 
REMARK    9  A    between atoms: C17_19  and  O2_20 
ROOT
HETATM    1  C8  UNL     1      25.262   3.516  50.028  1.00  0.00     0.138 C 
HETATM    2  C9  UNL     1      25.576   2.894  51.104  1.00  0.00     0.053 C 
HETATM    3  C10 UNL     1      24.933   2.827  52.209  1.00  0.00     0.061 C 
HETATM    4  N2  UNL     1      24.100   3.777  52.910  1.00  0.00    -0.349 N 
HETATM    5  C19 UNL     1      23.202   4.815  52.458  1.00  0.00     0.208 C 
HETATM    6  N3  UNL     1      22.718   5.241  51.314  1.00  0.00    -0.237 NA
HETATM    7  C20 UNL     1      23.023   4.677  50.017  1.00  0.00     0.236 C 
HETATM    8  N4  UNL     1      24.014   3.997  49.491  1.00  0.00    -0.224 NA
HETATM    9  H20 UNL     1      24.158   3.696  53.935  1.00  0.00     0.166 HD
ENDROOT
BRANCH   3  10
HETATM   10  C11 UNL     1      25.007   1.579  52.981  1.00  0.00     0.028 A 
HETATM   11  C12 UNL     1      26.152   1.228  53.670  1.00  0.00     0.053 A 
HETATM   12  C13 UNL     1      26.338   0.090  54.422  1.00  0.00     0.069 A 
HETATM   13  C15 UNL     1      25.271  -0.767  54.481  1.00  0.00     0.039 A 
HETATM   14  C16 UNL     1      24.097  -0.477  53.816  1.00  0.00     0.040 A 
HETATM   15  C17 UNL     1      23.953   0.680  53.069  1.00  0.00     0.080 A 
BRANCH  12  16
HETATM   16  O1  UNL     1      27.502  -0.217  55.095  1.00  0.00    -0.356 OA
HETATM   17  C14 UNL     1      28.710   0.379  54.668  1.00  0.00     0.210 C 
ENDBRANCH  12  16
BRANCH  15  18
HETATM   18  O2  UNL     1      22.772   0.957  52.409  1.00  0.00    -0.355 OA
HETATM   19  C18 UNL     1      21.563   0.908  53.118  1.00  0.00     0.210 C 
ENDBRANCH  15  18
ENDBRANCH   3  10
BRANCH   1  20
HETATM   20  N1  UNL     1      26.526   3.685  49.345  1.00  0.00    -0.370 N 
HETATM   21  H10 UNL     1      27.142   2.853  49.190  1.00  0.00     0.161 HD
BRANCH  20  22
HETATM   22  C7  UNL     1      26.891   5.033  48.896  1.00  0.00     0.149 C 
BRANCH  22  23
HETATM   23  C6  UNL     1      28.318   5.066  48.494  1.00  0.00    -0.000 C 
BRANCH  23  24
HETATM   24  C4  UNL     1      28.944   6.100  47.973  1.00  0.00    -0.057 C 
HETATM   25  C5  UNL     1      28.192   7.309  47.556  1.00  0.00     0.048 C 
BRANCH  24  26
HETATM   26  C3  UNL     1      30.322   6.330  47.696  1.00  0.00     0.057 C 
BRANCH  26  27
HETATM   27  C2  UNL     1      31.160   5.314  47.568  1.00  0.00    -0.154 C 
HETATM   28  C1  UNL     1      32.063   4.354  47.726  1.00  0.00     0.096 C 
ENDBRANCH  26  27
ENDBRANCH  24  26
ENDBRANCH  23  24
ENDBRANCH  22  23
ENDBRANCH  20  22
ENDBRANCH   1  20
TORSDOF 9
ENDMDL
MODEL 4
REMARK VINA RESULT:      -7.3      3.023      5.240
REMARK  9 active torsions:
REMARK  status: ('A' for Active; 'I' for Inactive)
REMARK    1  A    between atoms: C2_2  and  C3_3 
REMARK    2  A    between atoms: C3_3  and  C4_4 
REMARK    3  A    between atoms: C4_4  and  C6_6 
REMARK    4  A    between atoms: C6_6  and  C7_7 
REMARK    5  A    between atoms: C7_7  and  N1_8 
REMARK    6  A    between atoms: N1_8  and  C8_9 
REMARK    7  A    between atoms: C10_11  and  C11_12 
REMARK    8  A    between atoms: C13_14  and  O1_15 
REMARK    9  A    between atoms: C17_19  and  O2_20 
ROOT
HETATM    1  C8  UNL     1      22.509   1.949  49.670  1.00  0.00     0.138 C 
HETATM    2  C9  UNL     1      23.277   2.079  50.688  1.00  0.00     0.053 C 
HETATM    3  C10 UNL     1      23.018   1.860  51.922  1.00  0.00     0.061 C 
HETATM    4  N2  UNL     1      21.819   2.026  52.710  1.00  0.00    -0.349 N 
HETATM    5  C19 UNL     1      20.413   1.892  52.398  1.00  0.00     0.208 C 
HETATM    6  N3  UNL     1      19.685   1.497  51.379  1.00  0.00    -0.237 NA
HETATM    7  C20 UNL     1      20.205   1.023  50.115  1.00  0.00     0.236 C 
HETATM    8  N4  UNL     1      21.310   1.188  49.425  1.00  0.00    -0.224 NA
HETATM    9  H20 UNL     1      22.002   2.291  53.688  1.00  0.00     0.166 HD
ENDROOT
BRANCH   3  10
HETATM   10  C11 UNL     1      24.095   1.342  52.777  1.00  0.00     0.028 A 
HETATM   11  C12 UNL     1      25.207   2.106  53.071  1.00  0.00     0.053 A 
HETATM   12  C13 UNL     1      26.275   1.729  53.854  1.00  0.00     0.069 A 
HETATM   13  C15 UNL     1      26.210   0.468  54.385  1.00  0.00     0.039 A 
HETATM   14  C16 UNL     1      25.127  -0.347  54.132  1.00  0.00     0.040 A 
HETATM   15  C17 UNL     1      24.073   0.072  53.336  1.00  0.00     0.080 A 
BRANCH  12  16
HETATM   16  O1  UNL     1      27.366   2.530  54.122  1.00  0.00    -0.356 OA
HETATM   17  C14 UNL     1      28.646   2.094  53.710  1.00  0.00     0.210 C 
ENDBRANCH  12  16
BRANCH  15  18
HETATM   18  O2  UNL     1      22.995  -0.757  53.090  1.00  0.00    -0.355 OA
HETATM   19  C18 UNL     1      22.245  -1.244  54.170  1.00  0.00     0.210 C 
ENDBRANCH  15  18
ENDBRANCH   3  10
BRANCH   1  20
HETATM   20  N1  UNL     1      23.114   2.801  48.669  1.00  0.00    -0.370 N 
HETATM   21  H10 UNL     1      24.060   2.561  48.293  1.00  0.00     0.161 HD
BRANCH  20  22
HETATM   22  C7  UNL     1      22.362   3.980  48.223  1.00  0.00     0.149 C 
BRANCH  22  23
HETATM   23  C6  UNL     1      23.222   5.185  48.285  1.00  0.00    -0.000 C 
BRANCH  23  24
HETATM   24  C4  UNL     1      24.143   5.423  49.195  1.00  0.00    -0.057 C 
HETATM   25  C5  UNL     1      23.763   5.860  50.561  1.00  0.00     0.048 C 
BRANCH  24  26
HETATM   26  C3  UNL     1      25.564   5.344  49.144  1.00  0.00     0.057 C 
BRANCH  26  27
HETATM   27  C2  UNL     1      26.182   4.195  49.364  1.00  0.00    -0.154 C 
HETATM   28  C1  UNL     1      26.619   3.028  49.822  1.00  0.00     0.096 C 
ENDBRANCH  26  27
ENDBRANCH  24  26
ENDBRANCH  23  24
ENDBRANCH  22  23
ENDBRANCH  20  22
ENDBRANCH   1  20
TORSDOF 9
ENDMDL
MODEL 5
REMARK VINA RESULT:      -7.3      2.679      5.894
REMARK  9 active torsions:
REMARK  status: ('A' for Active; 'I' for Inactive)
REMARK    1  A    between atoms: C2_2  and  C3_3 
REMARK    2  A    between atoms: C3_3  and  C4_4 
REMARK    3  A    between atoms: C4_4  and  C6_6 
REMARK    4  A    between atoms: C6_6  and  C7_7 
REMARK    5  A    between atoms: C7_7  and  N1_8 
REMARK    6  A    between atoms: N1_8  and  C8_9 
REMARK    7  A    between atoms: C10_11  and  C11_12 
REMARK    8  A    between atoms: C13_14  and  O1_15 
REMARK    9  A    between atoms: C17_19  and  O2_20 
ROOT
HETATM    1  C8  UNL     1      24.403   3.163  51.500  1.00  0.00     0.138 C 
HETATM    2  C9  UNL     1      23.576   2.541  52.256  1.00  0.00     0.053 C 
HETATM    3  C10 UNL     1      22.311   2.701  52.362  1.00  0.00     0.061 C 
HETATM    4  N2  UNL     1      21.465   3.868  52.267  1.00  0.00    -0.349 N 
HETATM    5  C19 UNL     1      21.543   5.075  51.474  1.00  0.00     0.208 C 
HETATM    6  N3  UNL     1      22.298   5.547  50.508  1.00  0.00    -0.237 NA
HETATM    7  C20 UNL     1      23.417   4.853  49.908  1.00  0.00     0.236 C 
HETATM    8  N4  UNL     1      24.257   3.915  50.279  1.00  0.00    -0.224 NA
HETATM    9  H20 UNL     1      20.642   3.832  52.886  1.00  0.00     0.166 HD
ENDROOT
BRANCH   3  10
HETATM   10  C11 UNL     1      21.482   1.520  52.641  1.00  0.00     0.028 A 
HETATM   11  C12 UNL     1      21.790   0.655  53.673  1.00  0.00     0.053 A 
HETATM   12  C13 UNL     1      21.093  -0.479  54.026  1.00  0.00     0.069 A 
HETATM   13  C15 UNL     1      19.988  -0.761  53.267  1.00  0.00     0.039 A 
HETATM   14  C16 UNL     1      19.625   0.061  52.220  1.00  0.00     0.040 A 
HETATM   15  C17 UNL     1      20.356   1.193  51.899  1.00  0.00     0.080 A 
BRANCH  12  16
HETATM   16  O1  UNL     1      21.439  -1.312  55.069  1.00  0.00    -0.356 OA
HETATM   17  C14 UNL     1      22.804  -1.443  55.410  1.00  0.00     0.210 C 
ENDBRANCH  12  16
BRANCH  15  18
HETATM   18  O2  UNL     1      19.980   2.007  50.848  1.00  0.00    -0.355 OA
HETATM   19  C18 UNL     1      19.157   1.486  49.838  1.00  0.00     0.210 C 
ENDBRANCH  15  18
ENDBRANCH   3  10
BRANCH   1  20
HETATM   20  N1  UNL     1      25.681   2.967  52.150  1.00  0.00    -0.370 N 
HETATM   21  H10 UNL     1      25.814   3.302  53.132  1.00  0.00     0.161 HD
BRANCH  20  22
HETATM   22  C7  UNL     1      26.746   2.300  51.391  1.00  0.00     0.149 C 
BRANCH  22  23
HETATM   23  C6  UNL     1      26.650   0.831  51.565  1.00  0.00    -0.000 C 
BRANCH  23  24
HETATM   24  C4  UNL     1      26.686   0.192  52.715  1.00  0.00    -0.057 C 
HETATM   25  C5  UNL     1      25.581  -0.714  53.113  1.00  0.00     0.048 C 
BRANCH  24  26
HETATM   26  C3  UNL     1      27.653   0.182  53.761  1.00  0.00     0.057 C 
BRANCH  26  27
HETATM   27  C2  UNL     1      28.752  -0.546  53.654  1.00  0.00    -0.154 C 
HETATM   28  C1  UNL     1      29.987  -1.034  53.661  1.00  0.00     0.096 C 
ENDBRANCH  26  27
ENDBRANCH  24  26
ENDBRANCH  23  24
ENDBRANCH  22  23
ENDBRANCH  20  22
ENDBRANCH   1  20
TORSDOF 9
ENDMDL
MODEL 6
REMARK VINA RESULT:      -7.2      3.340      7.777
REMARK  9 active torsions:
REMARK  status: ('A' for Active; 'I' for Inactive)
REMARK    1  A    between atoms: C2_2  and  C3_3 
REMARK    2  A    between atoms: C3_3  and  C4_4 
REMARK    3  A    between atoms: C4_4  and  C6_6 
REMARK    4  A    between atoms: C6_6  and  C7_7 
REMARK    5  A    between atoms: C7_7  and  N1_8 
REMARK    6  A    between atoms: N1_8  and  C8_9 
REMARK    7  A    between atoms: C10_11  and  C11_12 
REMARK    8  A    between atoms: C13_14  and  O1_15 
REMARK    9  A    between atoms: C17_19  and  O2_20 
ROOT
HETATM    1  C8  UNL     1      24.321   2.324  51.684  1.00  0.00     0.138 C 
HETATM    2  C9  UNL     1      25.070   2.841  50.782  1.00  0.00     0.053 C 
HETATM    3  C10 UNL     1      24.740   3.582  49.793  1.00  0.00     0.061 C 
HETATM    4  N2  UNL     1      23.570   3.613  48.946  1.00  0.00    -0.349 N 
HETATM    5  C19 UNL     1      22.173   3.330  49.192  1.00  0.00     0.208 C 
HETATM    6  N3  UNL     1      21.414   3.046  50.226  1.00  0.00    -0.237 NA
HETATM    7  C20 UNL     1      21.874   2.929  51.592  1.00  0.00     0.236 C 
HETATM    8  N4  UNL     1      23.009   2.647  52.187  1.00  0.00    -0.224 NA
HETATM    9  H20 UNL     1      23.771   3.892  47.976  1.00  0.00     0.166 HD
ENDROOT
BRANCH   3  10
HETATM   10  C11 UNL     1      25.678   4.630  49.365  1.00  0.00     0.028 A 
HETATM   11  C12 UNL     1      26.969   4.323  48.984  1.00  0.00     0.053 A 
HETATM   12  C13 UNL     1      27.933   5.215  48.568  1.00  0.00     0.069 A 
HETATM   13  C15 UNL     1      27.555   6.531  48.537  1.00  0.00     0.039 A 
HETATM   14  C16 UNL     1      26.280   6.905  48.905  1.00  0.00     0.040 A 
HETATM   15  C17 UNL     1      25.340   5.975  49.318  1.00  0.00     0.080 A 
BRANCH  12  16
HETATM   16  O1  UNL     1      29.213   4.860  48.195  1.00  0.00    -0.356 OA
HETATM   17  C14 UNL     1      30.132   5.882  47.867  1.00  0.00     0.210 C 
ENDBRANCH  12  16
BRANCH  15  18
HETATM   18  O2  UNL     1      24.067   6.366  49.684  1.00  0.00    -0.355 OA
HETATM   19  C18 UNL     1      23.874   7.008  50.915  1.00  0.00     0.210 C 
ENDBRANCH  15  18
ENDBRANCH   3  10
BRANCH   1  20
HETATM   20  N1  UNL     1      25.101   1.213  52.187  1.00  0.00    -0.370 N 
HETATM   21  H10 UNL     1      25.258   0.378  51.576  1.00  0.00     0.161 HD
BRANCH  20  22
HETATM   22  C7  UNL     1      25.640   1.310  53.548  1.00  0.00     0.149 C 
BRANCH  22  23
HETATM   23  C6  UNL     1      26.862   0.479  53.671  1.00  0.00    -0.000 C 
BRANCH  23  24
HETATM   24  C4  UNL     1      28.096   0.933  53.727  1.00  0.00    -0.057 C 
HETATM   25  C5  UNL     1      28.399   2.345  53.386  1.00  0.00     0.048 C 
BRANCH  24  26
HETATM   26  C3  UNL     1      29.321   0.299  54.078  1.00  0.00     0.057 C 
BRANCH  26  27
HETATM   27  C2  UNL     1      29.579  -0.935  53.676  1.00  0.00    -0.154 C 
HETATM   28  C1  UNL     1      29.551  -2.220  53.345  1.00  0.00     0.096 C 
ENDBRANCH  26  27
ENDBRANCH  24  26
ENDBRANCH  23  24
ENDBRANCH  22  23
ENDBRANCH  20  22
ENDBRANCH   1  20
TORSDOF 9
ENDMDL
MODEL 7
REMARK VINA RESULT:      -7.2      2.183      6.187
REMARK  9 active torsions:
REMARK  status: ('A' for Active; 'I' for Inactive)
REMARK    1  A    between atoms: C2_2  and  C3_3 
REMARK    2  A    between atoms: C3_3  and  C4_4 
REMARK    3  A    between atoms: C4_4  and  C6_6 
REMARK    4  A    between atoms: C6_6  and  C7_7 
REMARK    5  A    between atoms: C7_7  and  N1_8 
REMARK    6  A    between atoms: N1_8  and  C8_9 
REMARK    7  A    between atoms: C10_11  and  C11_12 
REMARK    8  A    between atoms: C13_14  and  O1_15 
REMARK    9  A    between atoms: C17_19  and  O2_20 
ROOT
HETATM    1  C8  UNL     1      25.177  -0.151  52.896  1.00  0.00     0.138 C 
HETATM    2  C9  UNL     1      24.600   0.989  52.802  1.00  0.00     0.053 C 
HETATM    3  C10 UNL     1      25.129   2.152  52.727  1.00  0.00     0.061 C 
HETATM    4  N2  UNL     1      26.323   2.718  53.309  1.00  0.00    -0.349 N 
HETATM    5  C19 UNL     1      27.616   2.159  53.635  1.00  0.00     0.208 C 
HETATM    6  N3  UNL     1      28.244   1.017  53.465  1.00  0.00    -0.237 NA
HETATM    7  C20 UNL     1      27.697  -0.145  52.800  1.00  0.00     0.236 C 
HETATM    8  N4  UNL     1      26.498  -0.623  52.565  1.00  0.00    -0.224 NA
HETATM    9  H20 UNL     1      26.236   3.719  53.535  1.00  0.00     0.166 HD
ENDROOT
BRANCH   3  10
HETATM   10  C11 UNL     1      24.452   3.172  51.914  1.00  0.00     0.028 A 
HETATM   11  C12 UNL     1      23.138   3.526  52.156  1.00  0.00     0.053 A 
HETATM   12  C13 UNL     1      22.402   4.461  51.464  1.00  0.00     0.069 A 
HETATM   13  C15 UNL     1      23.054   5.092  50.437  1.00  0.00     0.039 A 
HETATM   14  C16 UNL     1      24.366   4.786  50.143  1.00  0.00     0.040 A 
HETATM   15  C17 UNL     1      25.070   3.837  50.865  1.00  0.00     0.080 A 
BRANCH  12  16
HETATM   16  O1  UNL     1      21.090   4.782  51.744  1.00  0.00    -0.356 OA
HETATM   17  C14 UNL     1      20.068   3.918  51.291  1.00  0.00     0.210 C 
ENDBRANCH  12  16
BRANCH  15  18
HETATM   18  O2  UNL     1      26.384   3.541  50.558  1.00  0.00    -0.355 OA
HETATM   19  C18 UNL     1      26.892   3.902  49.301  1.00  0.00     0.210 C 
ENDBRANCH  15  18
ENDBRANCH   3  10
BRANCH   1  20
HETATM   20  N1  UNL     1      24.158  -1.009  53.463  1.00  0.00    -0.370 N 
HETATM   21  H10 UNL     1      23.536  -1.559  52.826  1.00  0.00     0.161 HD
BRANCH  20  22
HETATM   22  C7  UNL     1      24.043  -1.068  54.925  1.00  0.00     0.149 C 
BRANCH  22  23
HETATM   23  C6  UNL     1      22.657  -0.743  55.339  1.00  0.00    -0.000 C 
BRANCH  23  24
HETATM   24  C4  UNL     1      21.618  -0.655  54.535  1.00  0.00    -0.057 C 
HETATM   25  C5  UNL     1      20.790  -1.849  54.235  1.00  0.00     0.048 C 
BRANCH  24  26
HETATM   26  C3  UNL     1      21.065   0.447  53.824  1.00  0.00     0.057 C 
BRANCH  26  27
HETATM   27  C2  UNL     1      21.013   0.437  52.502  1.00  0.00    -0.154 C 
HETATM   28  C1  UNL     1      21.249   0.349  51.199  1.00  0.00     0.096 C 
ENDBRANCH  26  27
ENDBRANCH  24  26
ENDBRANCH  23  24
ENDBRANCH  22  23
ENDBRANCH  20  22
ENDBRANCH   1  20
TORSDOF 9
ENDMDL
MODEL 8
REMARK VINA RESULT:      -7.1      2.596      4.485
REMARK  9 active torsions:
REMARK  status: ('A' for Active; 'I' for Inactive)
REMARK    1  A    between atoms: C2_2  and  C3_3 
REMARK    2  A    between atoms: C3_3  and  C4_4 
REMARK    3  A    between atoms: C4_4  and  C6_6 
REMARK    4  A    between atoms: C6_6  and  C7_7 
REMARK    5  A    between atoms: C7_7  and  N1_8 
REMARK    6  A    between atoms: N1_8  and  C8_9 
REMARK    7  A    between atoms: C10_11  and  C11_12 
REMARK    8  A    between atoms: C13_14  and  O1_15 
REMARK    9  A    between atoms: C17_19  and  O2_20 
ROOT
HETATM    1  C8  UNL     1      25.220   3.530  50.096  1.00  0.00     0.138 C 
HETATM    2  C9  UNL     1      25.574   2.939  51.176  1.00  0.00     0.053 C 
HETATM    3  C10 UNL     1      24.978   2.911  52.308  1.00  0.00     0.061 C 
HETATM    4  N2  UNL     1      24.182   3.888  53.014  1.00  0.00    -0.349 N 
HETATM    5  C19 UNL     1      23.273   4.920  52.569  1.00  0.00     0.208 C 
HETATM    6  N3  UNL     1      22.745   5.315  51.433  1.00  0.00    -0.237 NA
HETATM    7  C20 UNL     1      22.991   4.710  50.143  1.00  0.00     0.236 C 
HETATM    8  N4  UNL     1      23.954   4.005  49.596  1.00  0.00    -0.224 NA
HETATM    9  H20 UNL     1      24.282   3.838  54.038  1.00  0.00     0.166 HD
ENDROOT
BRANCH   3  10
HETATM   10  C11 UNL     1      25.075   1.686  53.115  1.00  0.00     0.028 A 
HETATM   11  C12 UNL     1      24.076   0.733  53.093  1.00  0.00     0.053 A 
HETATM   12  C13 UNL     1      24.055  -0.447  53.803  1.00  0.00     0.069 A 
HETATM   13  C15 UNL     1      25.141  -0.680  54.605  1.00  0.00     0.039 A 
HETATM   14  C16 UNL     1      26.174   0.231  54.673  1.00  0.00     0.040 A 
HETATM   15  C17 UNL     1      26.154   1.407  53.941  1.00  0.00     0.080 A 
BRANCH  12  16
HETATM   16  O1  UNL     1      23.032  -1.372  53.748  1.00  0.00    -0.356 OA
HETATM   17  C14 UNL     1      21.721  -0.918  53.482  1.00  0.00     0.210 C 
ENDBRANCH  12  16
BRANCH  15  18
HETATM   18  O2  UNL     1      27.196   2.310  54.020  1.00  0.00    -0.355 OA
HETATM   19  C18 UNL     1      28.482   1.909  53.629  1.00  0.00     0.210 C 
ENDBRANCH  15  18
ENDBRANCH   3  10
BRANCH   1  20
HETATM   20  N1  UNL     1      26.456   3.668  49.356  1.00  0.00    -0.370 N 
HETATM   21  H10 UNL     1      27.037   2.819  49.164  1.00  0.00     0.161 HD
BRANCH  20  22
HETATM   22  C7  UNL     1      26.842   5.010  48.903  1.00  0.00     0.149 C 
BRANCH  22  23
HETATM   23  C6  UNL     1      28.263   5.014  48.481  1.00  0.00    -0.000 C 
BRANCH  23  24
HETATM   24  C4  UNL     1      28.937   6.067  48.068  1.00  0.00    -0.057 C 
HETATM   25  C5  UNL     1      28.228   7.280  47.593  1.00  0.00     0.048 C 
BRANCH  24  26
HETATM   26  C3  UNL     1      30.335   6.315  47.970  1.00  0.00     0.057 C 
BRANCH  26  27
HETATM   27  C2  UNL     1      31.159   5.368  47.550  1.00  0.00    -0.154 C 
HETATM   28  C1  UNL     1      31.800   4.238  47.280  1.00  0.00     0.096 C 
ENDBRANCH  26  27
ENDBRANCH  24  26
ENDBRANCH  23  24
ENDBRANCH  22  23
ENDBRANCH  20  22
ENDBRANCH   1  20
TORSDOF 9
ENDMDL
MODEL 9
REMARK VINA RESULT:      -7.0      2.712      4.599
REMARK  9 active torsions:
REMARK  status: ('A' for Active; 'I' for Inactive)
REMARK    1  A    between atoms: C2_2  and  C3_3 
REMARK    2  A    between atoms: C3_3  and  C4_4 
REMARK    3  A    between atoms: C4_4  and  C6_6 
REMARK    4  A    between atoms: C6_6  and  C7_7 
REMARK    5  A    between atoms: C7_7  and  N1_8 
REMARK    6  A    between atoms: N1_8  and  C8_9 
REMARK    7  A    between atoms: C10_11  and  C11_12 
REMARK    8  A    between atoms: C13_14  and  O1_15 
REMARK    9  A    between atoms: C17_19  and  O2_20 
ROOT
HETATM    1  C8  UNL     1      24.589   3.390  50.136  1.00  0.00     0.138 C 
HETATM    2  C9  UNL     1      25.113   2.796  51.143  1.00  0.00     0.053 C 
HETATM    3  C10 UNL     1      24.760   2.837  52.373  1.00  0.00     0.061 C 
HETATM    4  N2  UNL     1      24.196   3.887  53.189  1.00  0.00    -0.349 N 
HETATM    5  C19 UNL     1      23.290   4.976  52.899  1.00  0.00     0.208 C 
HETATM    6  N3  UNL     1      22.571   5.388  51.880  1.00  0.00    -0.237 NA
HETATM    7  C20 UNL     1      22.505   4.738  50.589  1.00  0.00     0.236 C 
HETATM    8  N4  UNL     1      23.285   3.951  49.885  1.00  0.00    -0.224 NA
HETATM    9  H20 UNL     1      24.499   3.850  54.173  1.00  0.00     0.166 HD
ENDROOT
BRANCH   3  10
HETATM   10  C11 UNL     1      24.932   1.626  53.186  1.00  0.00     0.028 A 
HETATM   11  C12 UNL     1      23.958   0.646  53.229  1.00  0.00     0.053 A 
HETATM   12  C13 UNL     1      24.006  -0.524  53.952  1.00  0.00     0.069 A 
HETATM   13  C15 UNL     1      25.139  -0.719  54.697  1.00  0.00     0.039 A 
HETATM   14  C16 UNL     1      26.150   0.219  54.699  1.00  0.00     0.040 A 
HETATM   15  C17 UNL     1      26.060   1.384  53.957  1.00  0.00     0.080 A 
BRANCH  12  16
HETATM   16  O1  UNL     1      23.007  -1.475  53.962  1.00  0.00    -0.356 OA
HETATM   17  C14 UNL     1      21.785  -1.169  54.602  1.00  0.00     0.210 C 
ENDBRANCH  12  16
BRANCH  15  18
HETATM   18  O2  UNL     1      27.081   2.315  53.970  1.00  0.00    -0.355 OA
HETATM   19  C18 UNL     1      28.349   1.948  53.496  1.00  0.00     0.210 C 
ENDBRANCH  15  18
ENDBRANCH   3  10
BRANCH   1  20
HETATM   20  N1  UNL     1      25.654   3.417  49.157  1.00  0.00    -0.370 N 
HETATM   21  H10 UNL     1      25.470   3.069  48.188  1.00  0.00     0.161 HD
BRANCH  20  22
HETATM   22  C7  UNL     1      26.962   3.937  49.575  1.00  0.00     0.149 C 
BRANCH  22  23
HETATM   23  C6  UNL     1      27.440   4.950  48.605  1.00  0.00    -0.000 C 
BRANCH  23  24
HETATM   24  C4  UNL     1      26.988   6.182  48.497  1.00  0.00    -0.057 C 
HETATM   25  C5  UNL     1      27.925   7.330  48.449  1.00  0.00     0.048 C 
BRANCH  24  26
HETATM   26  C3  UNL     1      25.664   6.698  48.408  1.00  0.00     0.057 C 
BRANCH  26  27
HETATM   27  C2  UNL     1      25.168   7.448  49.379  1.00  0.00    -0.154 C 
HETATM   28  C1  UNL     1      24.494   7.963  50.400  1.00  0.00     0.096 C 
ENDBRANCH  26  27
ENDBRANCH  24  26
ENDBRANCH  23  24
ENDBRANCH  22  23
ENDBRANCH  20  22
ENDBRANCH   1  20
TORSDOF 9
ENDMDL
