MODEL 1
REMARK VINA RESULT:      -7.3      0.000      0.000
REMARK  5 active torsions:
REMARK  status: ('A' for Active; 'I' for Inactive)
REMARK    1  A    between atoms: P1_2  and  C2_3 
REMARK    2  A    between atoms: C2_3  and  C3_4 
REMARK    3  A    between atoms: C2_3  and  N1_6 
REMARK    4  A    between atoms: C9_14  and  N3_15 
REMARK    5  A    between atoms: N3_15  and  C10_16 
ROOT
HETATM    1  N1  UNL     1      22.840   3.300  49.255  1.00  0.00    -0.264 N 
HETATM    2  C4  UNL     1      23.844   4.283  48.972  1.00  0.00     0.158 C 
HETATM    3  C5  UNL     1      23.615   5.605  49.542  1.00  0.00     0.026 C 
HETATM    4  C6  UNL     1      24.665   6.606  48.923  1.00  0.00     0.014 C 
HETATM    5  C7  UNL     1      23.681   5.893  50.981  1.00  0.00     0.183 C 
HETATM    6  O2  UNL     1      22.909   5.185  51.880  1.00  0.00    -0.333 OA
HETATM    7  C8  UNL     1      23.032   3.823  52.106  1.00  0.00     0.197 A 
HETATM    8  N2  UNL     1      24.196   3.741  52.758  1.00  0.00    -0.037 NA
HETATM    9  C9  UNL     1      24.776   2.605  53.213  1.00  0.00     0.729 A 
HETATM   10  N6  UNL     1      24.127   1.423  52.998  1.00  0.00    -0.074 NA
HETATM   11  C14 UNL     1      22.930   1.568  52.321  1.00  0.00     0.154 A 
HETATM   12  C15 UNL     1      22.303   2.745  51.831  1.00  0.00     0.060 A 
HETATM   13  C16 UNL     1      21.090   2.150  51.211  1.00  0.00     0.083 C 
HETATM   14 CL1  UNL     1      20.097   2.402  52.614  1.00  0.00    -0.081 Cl
HETATM   15  C17 UNL     1      21.452   1.764  49.989  1.00  0.00     0.132 C 
HETATM   16  N7  UNL     1      22.729   2.006  49.785  1.00  0.00    -0.168 NA
ENDROOT
BRANCH   9  17
HETATM   17  N3  UNL     1      25.998   2.430  53.903  1.00  0.00    -0.185 N 
HETATM   18  H13 UNL     1      26.115   3.421  54.186  1.00  0.00     0.184 HD
BRANCH  17  19
HETATM   19  C10 UNL     1      26.836   1.343  54.167  1.00  0.00     0.085 A 
HETATM   20  C11 UNL     1      26.726   0.265  54.978  1.00  0.00     0.170 A 
HETATM   21  N4  UNL     1      27.843  -0.472  54.852  1.00  0.00    -0.183 NA
HETATM   22  N5  UNL     1      28.647   0.132  53.976  1.00  0.00    -0.283 N 
HETATM   23  C12 UNL     1      29.965  -0.299  53.526  1.00  0.00     0.179 C 
HETATM   24  C13 UNL     1      28.043   1.271  53.529  1.00  0.00     0.143 A 
ENDBRANCH  17  19
ENDBRANCH   9  17
BRANCH   1  25
HETATM   25  C2  UNL     1      21.662   3.936  48.631  1.00  0.00     0.107 C 
BRANCH  25  26
HETATM   26  P1  UNL     1      21.635   3.704  46.812  1.00  0.00    -0.074 P 
HETATM   27  C1  UNL     1      21.985   5.246  45.883  1.00  0.00     0.047 C 
HETATM   28  H4  UNL     1      22.475   2.620  46.373  1.00  0.00     0.064 HD
ENDBRANCH  25  26
BRANCH  25  29
HETATM   29  C3  UNL     1      20.632   4.624  49.041  1.00  0.00     0.252 C 
HETATM   30  O1  UNL     1      20.050   5.500  49.688  1.00  0.00    -0.281 OA
ENDBRANCH  25  29
ENDBRANCH   1  25
TORSDOF 5
ENDMDL
MODEL 2
REMARK VINA RESULT:      -7.1      2.573      4.036
REMARK  5 active torsions:
REMARK  status: ('A' for Active; 'I' for Inactive)
REMARK    1  A    between atoms: P1_2  and  C2_3 
REMARK    2  A    between atoms: C2_3  and  C3_4 
REMARK    3  A    between atoms: C2_3  and  N1_6 
REMARK    4  A    between atoms: C9_14  and  N3_15 
REMARK    5  A    between atoms: N3_15  and  C10_16 
ROOT
HETATM    1  N1  UNL     1      20.262   3.302  51.705  1.00  0.00    -0.264 N 
HETATM    2  C4  UNL     1      20.004   2.170  52.545  1.00  0.00     0.158 C 
HETATM    3  C5  UNL     1      20.174   0.864  51.918  1.00  0.00     0.026 C 
HETATM    4  C6  UNL     1      19.606  -0.237  52.894  1.00  0.00     0.014 C 
HETATM    5  C7  UNL     1      21.478   0.320  51.517  1.00  0.00     0.183 C 
HETATM    6  O2  UNL     1      22.308   1.024  50.669  1.00  0.00    -0.333 OA
HETATM    7  C8  UNL     1      22.871   2.253  50.975  1.00  0.00     0.197 A 
HETATM    8  N2  UNL     1      23.783   1.932  51.899  1.00  0.00    -0.037 NA
HETATM    9  C9  UNL     1      24.617   2.793  52.528  1.00  0.00     0.729 A 
HETATM   10  N6  UNL     1      24.538   4.116  52.201  1.00  0.00    -0.074 NA
HETATM   11  C14 UNL     1      23.581   4.390  51.242  1.00  0.00     0.154 A 
HETATM   12  C15 UNL     1      22.692   3.507  50.571  1.00  0.00     0.060 A 
HETATM   13  C16 UNL     1      21.959   4.480  49.719  1.00  0.00     0.083 C 
HETATM   14 CL1  UNL     1      22.985   4.234  48.338  1.00  0.00    -0.081 Cl
HETATM   15  C17 UNL     1      20.985   4.976  50.479  1.00  0.00     0.132 C 
HETATM   16  N7  UNL     1      21.041   4.470  51.692  1.00  0.00    -0.168 NA
ENDROOT
BRANCH   9  17
HETATM   17  N3  UNL     1      25.599   2.539  53.513  1.00  0.00    -0.185 N 
HETATM   18  H13 UNL     1      25.545   3.467  53.974  1.00  0.00     0.184 HD
BRANCH  17  19
HETATM   19  C10 UNL     1      26.417   1.452  53.835  1.00  0.00     0.085 A 
HETATM   20  C11 UNL     1      26.205   0.308  54.526  1.00  0.00     0.170 A 
HETATM   21  N4  UNL     1      27.353  -0.392  54.544  1.00  0.00    -0.183 NA
HETATM   22  N5  UNL     1      28.275   0.301  53.875  1.00  0.00    -0.283 N 
HETATM   23  C12 UNL     1      29.667  -0.062  53.634  1.00  0.00     0.179 C 
HETATM   24  C13 UNL     1      27.719   1.460  53.419  1.00  0.00     0.143 A 
ENDBRANCH  17  19
ENDBRANCH   9  17
BRANCH   1  25
HETATM   25  C2  UNL     1      19.244   3.094  50.656  1.00  0.00     0.107 C 
BRANCH  25  26
HETATM   26  P1  UNL     1      17.585   3.673  51.180  1.00  0.00    -0.074 P 
HETATM   27  C1  UNL     1      16.404   2.303  51.480  1.00  0.00     0.047 C 
HETATM   28  H4  UNL     1      17.636   4.582  52.295  1.00  0.00     0.064 HD
ENDBRANCH  25  26
BRANCH  25  29
HETATM   29  C3  UNL     1      19.219   2.600  49.448  1.00  0.00     0.252 C 
HETATM   30  O1  UNL     1      19.696   2.267  48.359  1.00  0.00    -0.281 OA
ENDBRANCH  25  29
ENDBRANCH   1  25
TORSDOF 5
ENDMDL
MODEL 3
REMARK VINA RESULT:      -7.0      3.950      6.797
REMARK  5 active torsions:
REMARK  status: ('A' for Active; 'I' for Inactive)
REMARK    1  A    between atoms: P1_2  and  C2_3 
REMARK    2  A    between atoms: C2_3  and  C3_4 
REMARK    3  A    between atoms: C2_3  and  N1_6 
REMARK    4  A    between atoms: C9_14  and  N3_15 
REMARK    5  A    between atoms: N3_15  and  C10_16 
ROOT
HETATM    1  N1  UNL     1      23.494   3.336  52.043  1.00  0.00    -0.264 N 
HETATM    2  C4  UNL     1      24.799   2.851  52.387  1.00  0.00     0.158 C 
HETATM    3  C5  UNL     1      25.560   2.254  51.297  1.00  0.00     0.026 C 
HETATM    4  C6  UNL     1      26.838   1.555  51.903  1.00  0.00     0.014 C 
HETATM    5  C7  UNL     1      26.100   3.022  50.166  1.00  0.00     0.183 C 
HETATM    6  O2  UNL     1      25.274   3.806  49.387  1.00  0.00    -0.333 OA
HETATM    7  C8  UNL     1      24.579   4.910  49.856  1.00  0.00     0.197 A 
HETATM    8  N2  UNL     1      25.553   5.805  50.051  1.00  0.00    -0.037 NA
HETATM    9  C9  UNL     1      25.394   7.069  50.509  1.00  0.00     0.729 A 
HETATM   10  N6  UNL     1      24.129   7.489  50.804  1.00  0.00    -0.074 NA
HETATM   11  C14 UNL     1      23.163   6.524  50.583  1.00  0.00     0.154 A 
HETATM   12  C15 UNL     1      23.305   5.193  50.107  1.00  0.00     0.060 A 
HETATM   13  C16 UNL     1      21.884   4.756  50.145  1.00  0.00     0.083 C 
HETATM   14 CL1  UNL     1      21.590   5.145  48.477  1.00  0.00    -0.081 Cl
HETATM   15  C17 UNL     1      21.657   4.348  51.391  1.00  0.00     0.132 C 
HETATM   16  N7  UNL     1      22.729   4.509  52.136  1.00  0.00    -0.168 NA
ENDROOT
BRANCH   9  17
HETATM   17  N3  UNL     1      26.363   8.071  50.746  1.00  0.00    -0.185 N 
HETATM   18  H13 UNL     1      26.481   7.882  51.759  1.00  0.00     0.184 HD
BRANCH  17  19
HETATM   19  C10 UNL     1      27.002   9.033  49.958  1.00  0.00     0.085 A 
HETATM   20  C11 UNL     1      28.304   9.322  49.727  1.00  0.00     0.170 A 
HETATM   21  N4  UNL     1      28.359  10.367  48.883  1.00  0.00    -0.183 NA
HETATM   22  N5  UNL     1      27.111  10.732  48.587  1.00  0.00    -0.283 N 
HETATM   23  C12 UNL     1      26.679  11.817  47.713  1.00  0.00     0.179 C 
HETATM   24  C13 UNL     1      26.239   9.915  49.245  1.00  0.00     0.143 A 
ENDBRANCH  17  19
ENDBRANCH   9  17
BRANCH   1  25
HETATM   25  C2  UNL     1      22.856   2.084  51.590  1.00  0.00     0.107 C 
BRANCH  25  26
HETATM   26  P1  UNL     1      22.262   1.065  52.994  1.00  0.00    -0.074 P 
HETATM   27  C1  UNL     1      23.307  -0.409  53.308  1.00  0.00     0.047 C 
HETATM   28  H4  UNL     1      22.055   1.832  54.194  1.00  0.00     0.064 HD
ENDBRANCH  25  26
BRANCH  25  29
HETATM   29  C3  UNL     1      22.606   1.511  50.444  1.00  0.00     0.252 C 
HETATM   30  O1  UNL     1      22.042   1.375  49.355  1.00  0.00    -0.281 OA
ENDBRANCH  25  29
ENDBRANCH   1  25
TORSDOF 5
ENDMDL
MODEL 4
REMARK VINA RESULT:      -6.9      8.068     10.134
REMARK  5 active torsions:
REMARK  status: ('A' for Active; 'I' for Inactive)
REMARK    1  A    between atoms: P1_2  and  C2_3 
REMARK    2  A    between atoms: C2_3  and  C3_4 
REMARK    3  A    between atoms: C2_3  and  N1_6 
REMARK    4  A    between atoms: C9_14  and  N3_15 
REMARK    5  A    between atoms: N3_15  and  C10_16 
ROOT
HETATM    1  N1  UNL     1      32.119   7.138  46.039  1.00  0.00    -0.264 N 
HETATM    2  C4  UNL     1      32.525   5.785  45.797  1.00  0.00     0.158 C 
HETATM    3  C5  UNL     1      33.299   5.156  46.860  1.00  0.00     0.026 C 
HETATM    4  C6  UNL     1      33.871   3.788  46.321  1.00  0.00     0.014 C 
HETATM    5  C7  UNL     1      32.738   4.796  48.170  1.00  0.00     0.183 C 
HETATM    6  O2  UNL     1      32.110   5.741  48.954  1.00  0.00    -0.333 OA
HETATM    7  C8  UNL     1      30.946   6.402  48.593  1.00  0.00     0.197 A 
HETATM    8  N2  UNL     1      30.024   5.439  48.691  1.00  0.00    -0.037 NA
HETATM    9  C9  UNL     1      28.700   5.575  48.441  1.00  0.00     0.729 A 
HETATM   10  N6  UNL     1      28.244   6.803  48.055  1.00  0.00    -0.074 NA
HETATM   11  C14 UNL     1      29.239   7.759  47.972  1.00  0.00     0.154 A 
HETATM   12  C15 UNL     1      30.633   7.640  48.224  1.00  0.00     0.060 A 
HETATM   13  C16 UNL     1      31.067   9.029  47.919  1.00  0.00     0.083 C 
HETATM   14 CL1  UNL     1      30.980   9.553  49.573  1.00  0.00    -0.081 Cl
HETATM   15  C17 UNL     1      31.251   9.076  46.601  1.00  0.00     0.132 C 
HETATM   16  N7  UNL     1      30.953   7.920  46.049  1.00  0.00    -0.168 NA
ENDROOT
BRANCH   9  17
HETATM   17  N3  UNL     1      27.665   4.615  48.516  1.00  0.00    -0.185 N 
HETATM   18  H13 UNL     1      27.943   4.078  47.673  1.00  0.00     0.184 HD
BRANCH  17  19
HETATM   19  C10 UNL     1      26.591   4.386  49.381  1.00  0.00     0.085 A 
HETATM   20  C11 UNL     1      25.588   5.171  49.839  1.00  0.00     0.170 A 
HETATM   21  N4  UNL     1      24.825   4.438  50.669  1.00  0.00    -0.183 NA
HETATM   22  N5  UNL     1      25.340   3.209  50.734  1.00  0.00    -0.283 N 
HETATM   23  C12 UNL     1      24.852   2.074  51.509  1.00  0.00     0.179 C 
HETATM   24  C13 UNL     1      26.446   3.146  49.938  1.00  0.00     0.143 A 
ENDBRANCH  17  19
ENDBRANCH   9  17
BRANCH   1  25
HETATM   25  C2  UNL     1      33.436   7.791  46.177  1.00  0.00     0.107 C 
BRANCH  25  26
HETATM   26  P1  UNL     1      34.110   8.334  44.561  1.00  0.00    -0.074 P 
HETATM   27  C1  UNL     1      35.475   9.549  44.720  1.00  0.00     0.047 C 
HETATM   28  H4  UNL     1      34.479   7.233  43.710  1.00  0.00     0.064 HD
ENDBRANCH  25  26
BRANCH  25  29
HETATM   29  C3  UNL     1      34.248   8.082  47.157  1.00  0.00     0.252 C 
HETATM   30  O1  UNL     1      34.562   8.299  48.331  1.00  0.00    -0.281 OA
ENDBRANCH  25  29
ENDBRANCH   1  25
TORSDOF 5
ENDMDL
MODEL 5
REMARK VINA RESULT:      -6.6      3.161      4.855
REMARK  5 active torsions:
REMARK  status: ('A' for Active; 'I' for Inactive)
REMARK    1  A    between atoms: P1_2  and  C2_3 
REMARK    2  A    between atoms: C2_3  and  C3_4 
REMARK    3  A    between atoms: C2_3  and  N1_6 
REMARK    4  A    between atoms: C9_14  and  N3_15 
REMARK    5  A    between atoms: N3_15  and  C10_16 
ROOT
HETATM    1  N1  UNL     1      22.341   5.150  50.810  1.00  0.00    -0.264 N 
HETATM    2  C4  UNL     1      21.018   4.598  50.826  1.00  0.00     0.158 C 
HETATM    3  C5  UNL     1      20.654   3.790  49.669  1.00  0.00     0.026 C 
HETATM    4  C6  UNL     1      19.107   3.488  49.735  1.00  0.00     0.014 C 
HETATM    5  C7  UNL     1      21.243   2.475  49.377  1.00  0.00     0.183 C 
HETATM    6  O2  UNL     1      22.609   2.322  49.269  1.00  0.00    -0.333 OA
HETATM    7  C8  UNL     1      23.501   2.535  50.308  1.00  0.00     0.197 A 
HETATM    8  N2  UNL     1      23.263   1.494  51.113  1.00  0.00    -0.037 NA
HETATM    9  C9  UNL     1      23.887   1.235  52.286  1.00  0.00     0.729 A 
HETATM   10  N6  UNL     1      24.854   2.103  52.703  1.00  0.00    -0.074 NA
HETATM   11  C14 UNL     1      25.059   3.158  51.833  1.00  0.00     0.154 A 
HETATM   12  C15 UNL     1      24.417   3.454  50.601  1.00  0.00     0.060 A 
HETATM   13  C16 UNL     1      25.116   4.717  50.244  1.00  0.00     0.083 C 
HETATM   14 CL1  UNL     1      26.300   3.926  49.248  1.00  0.00    -0.081 Cl
HETATM   15  C17 UNL     1      24.469   5.689  50.882  1.00  0.00     0.132 C 
HETATM   16  N7  UNL     1      23.491   5.196  51.611  1.00  0.00    -0.168 NA
ENDROOT
BRANCH   9  17
HETATM   17  N3  UNL     1      23.693   0.168  53.194  1.00  0.00    -0.185 N 
HETATM   18  H13 UNL     1      24.698  -0.012  53.378  1.00  0.00     0.184 HD
BRANCH  17  19
HETATM   19  C10 UNL     1      22.579  -0.490  53.722  1.00  0.00     0.085 A 
HETATM   20  C11 UNL     1      22.414  -1.340  54.762  1.00  0.00     0.170 A 
HETATM   21  N4  UNL     1      21.116  -1.687  54.820  1.00  0.00    -0.183 NA
HETATM   22  N5  UNL     1      20.473  -1.066  53.830  1.00  0.00    -0.283 N 
HETATM   23  C12 UNL     1      19.054  -1.142  53.498  1.00  0.00     0.179 C 
HETATM   24  C13 UNL     1      21.362  -0.309  53.125  1.00  0.00     0.143 A 
ENDBRANCH  17  19
ENDBRANCH   9  17
BRANCH   1  25
HETATM   25  C2  UNL     1      22.264   5.988  49.597  1.00  0.00     0.107 C 
BRANCH  25  26
HETATM   26  P1  UNL     1      21.491   7.617  49.931  1.00  0.00    -0.074 P 
HETATM   27  C1  UNL     1      21.914   8.887  48.677  1.00  0.00     0.047 C 
HETATM   28  H4  UNL     1      20.069   7.531  50.137  1.00  0.00     0.064 HD
ENDBRANCH  25  26
BRANCH  25  29
HETATM   29  C3  UNL     1      22.603   5.868  48.342  1.00  0.00     0.252 C 
HETATM   30  O1  UNL     1      22.691   5.299  47.250  1.00  0.00    -0.281 OA
ENDBRANCH  25  29
ENDBRANCH   1  25
TORSDOF 5
ENDMDL
MODEL 6
REMARK VINA RESULT:      -6.5      7.735      9.231
REMARK  5 active torsions:
REMARK  status: ('A' for Active; 'I' for Inactive)
REMARK    1  A    between atoms: P1_2  and  C2_3 
REMARK    2  A    between atoms: C2_3  and  C3_4 
REMARK    3  A    between atoms: C2_3  and  N1_6 
REMARK    4  A    between atoms: C9_14  and  N3_15 
REMARK    5  A    between atoms: N3_15  and  C10_16 
ROOT
HETATM    1  N1  UNL     1      29.149   9.341  46.426  1.00  0.00    -0.264 N 
HETATM    2  C4  UNL     1      30.454   9.927  46.332  1.00  0.00     0.158 C 
HETATM    3  C5  UNL     1      30.898  10.675  47.503  1.00  0.00     0.026 C 
HETATM    4  C6  UNL     1      32.219  11.452  47.129  1.00  0.00     0.014 C 
HETATM    5  C7  UNL     1      31.227  10.049  48.790  1.00  0.00     0.183 C 
HETATM    6  O2  UNL     1      30.313   9.246  49.440  1.00  0.00    -0.333 OA
HETATM    7  C8  UNL     1      29.833   8.047  48.935  1.00  0.00     0.197 A 
HETATM    8  N2  UNL     1      30.895   7.242  49.043  1.00  0.00    -0.037 NA
HETATM    9  C9  UNL     1      30.947   5.938  48.681  1.00  0.00     0.729 A 
HETATM   10  N6  UNL     1      29.820   5.374  48.157  1.00  0.00    -0.074 NA
HETATM   11  C14 UNL     1      28.755   6.251  48.069  1.00  0.00     0.154 A 
HETATM   12  C15 UNL     1      28.676   7.621  48.438  1.00  0.00     0.060 A 
HETATM   13  C16 UNL     1      27.271   7.910  48.049  1.00  0.00     0.083 C 
HETATM   14 CL1  UNL     1      26.639   7.616  49.641  1.00  0.00    -0.081 Cl
HETATM   15  C17 UNL     1      27.300   8.202  46.751  1.00  0.00     0.132 C 
HETATM   16  N7  UNL     1      28.522   8.094  46.278  1.00  0.00    -0.168 NA
ENDROOT
BRANCH   9  17
HETATM   17  N3  UNL     1      32.022   5.023  48.756  1.00  0.00    -0.185 N 
HETATM   18  H13 UNL     1      32.118   5.041  49.789  1.00  0.00     0.184 HD
BRANCH  17  19
HETATM   19  C10 UNL     1      32.767   4.296  47.824  1.00  0.00     0.085 A 
HETATM   20  C11 UNL     1      33.088   2.985  47.717  1.00  0.00     0.170 A 
HETATM   21  N4  UNL     1      33.847   2.826  46.618  1.00  0.00    -0.183 NA
HETATM   22  N5  UNL     1      34.003   4.019  46.042  1.00  0.00    -0.283 N 
HETATM   23  C12 UNL     1      34.749   4.336  44.830  1.00  0.00     0.179 C 
HETATM   24  C13 UNL     1      33.338   4.959  46.774  1.00  0.00     0.143 A 
ENDBRANCH  17  19
ENDBRANCH   9  17
BRANCH   1  25
HETATM   25  C2  UNL     1      28.326  10.553  46.609  1.00  0.00     0.107 C 
BRANCH  25  26
HETATM   26  P1  UNL     1      27.985  11.403  45.021  1.00  0.00    -0.074 P 
HETATM   27  C1  UNL     1      27.916  10.258  43.590  1.00  0.00     0.047 C 
HETATM   28  H4  UNL     1      26.823  12.250  45.077  1.00  0.00     0.064 HD
ENDBRANCH  25  26
BRANCH  25  29
HETATM   29  C3  UNL     1      27.776  11.180  47.614  1.00  0.00     0.252 C 
HETATM   30  O1  UNL     1      27.507  11.381  48.802  1.00  0.00    -0.281 OA
ENDBRANCH  25  29
ENDBRANCH   1  25
TORSDOF 5
ENDMDL
MODEL 7
REMARK VINA RESULT:      -6.5      4.196      6.520
REMARK  5 active torsions:
REMARK  status: ('A' for Active; 'I' for Inactive)
REMARK    1  A    between atoms: P1_2  and  C2_3 
REMARK    2  A    between atoms: C2_3  and  C3_4 
REMARK    3  A    between atoms: C2_3  and  N1_6 
REMARK    4  A    between atoms: C9_14  and  N3_15 
REMARK    5  A    between atoms: N3_15  and  C10_16 
ROOT
HETATM    1  N1  UNL     1      22.667   4.410  51.339  1.00  0.00    -0.264 N 
HETATM    2  C4  UNL     1      23.621   3.880  52.268  1.00  0.00     0.158 C 
HETATM    3  C5  UNL     1      24.486   2.824  51.755  1.00  0.00     0.026 C 
HETATM    4  C6  UNL     1      25.277   2.193  52.964  1.00  0.00     0.014 C 
HETATM    5  C7  UNL     1      25.531   3.048  50.747  1.00  0.00     0.183 C 
HETATM    6  O2  UNL     1      25.228   3.625  49.531  1.00  0.00    -0.333 OA
HETATM    7  C8  UNL     1      24.751   4.918  49.381  1.00  0.00     0.197 A 
HETATM    8  N2  UNL     1      25.825   5.659  49.674  1.00  0.00    -0.037 NA
HETATM    9  C9  UNL     1      25.884   7.011  49.672  1.00  0.00     0.729 A 
HETATM   10  N6  UNL     1      24.755   7.702  49.341  1.00  0.00    -0.074 NA
HETATM   11  C14 UNL     1      23.677   6.887  49.047  1.00  0.00     0.154 A 
HETATM   12  C15 UNL     1      23.589   5.469  49.045  1.00  0.00     0.060 A 
HETATM   13  C16 UNL     1      22.161   5.302  48.663  1.00  0.00     0.083 C 
HETATM   14 CL1  UNL     1      22.506   5.119  46.971  1.00  0.00    -0.081 Cl
HETATM   15  C17 UNL     1      21.463   5.402  49.793  1.00  0.00     0.132 C 
HETATM   16  N7  UNL     1      22.260   5.645  50.811  1.00  0.00    -0.168 NA
ENDROOT
BRANCH   9  17
HETATM   17  N3  UNL     1      26.970   7.867  49.972  1.00  0.00    -0.185 N 
HETATM   18  H13 UNL     1      26.724   8.024  50.967  1.00  0.00     0.184 HD
BRANCH  17  19
HETATM   19  C10 UNL     1      28.049   8.384  49.248  1.00  0.00     0.085 A 
HETATM   20  C11 UNL     1      28.743   7.935  48.176  1.00  0.00     0.170 A 
HETATM   21  N4  UNL     1      29.703   8.833  47.892  1.00  0.00    -0.183 NA
HETATM   22  N5  UNL     1      29.616   9.831  48.771  1.00  0.00    -0.283 N 
HETATM   23  C12 UNL     1      30.450  11.025  48.855  1.00  0.00     0.179 C 
HETATM   24  C13 UNL     1      28.590   9.579  49.633  1.00  0.00     0.143 A 
ENDBRANCH  17  19
ENDBRANCH   9  17
BRANCH   1  25
HETATM   25  C2  UNL     1      21.881   3.196  51.042  1.00  0.00     0.107 C 
BRANCH  25  26
HETATM   26  P1  UNL     1      20.551   2.916  52.273  1.00  0.00    -0.074 P 
HETATM   27  C1  UNL     1      18.869   3.178  51.589  1.00  0.00     0.047 C 
HETATM   28  H4  UNL     1      20.660   1.643  52.935  1.00  0.00     0.064 HD
ENDBRANCH  25  26
BRANCH  25  29
HETATM   29  C3  UNL     1      21.890   2.265  50.127  1.00  0.00     0.252 C 
HETATM   30  O1  UNL     1      22.293   1.690  49.112  1.00  0.00    -0.281 OA
ENDBRANCH  25  29
ENDBRANCH   1  25
TORSDOF 5
ENDMDL
MODEL 8
REMARK VINA RESULT:      -6.3      1.815      2.407
REMARK  5 active torsions:
REMARK  status: ('A' for Active; 'I' for Inactive)
REMARK    1  A    between atoms: P1_2  and  C2_3 
REMARK    2  A    between atoms: C2_3  and  C3_4 
REMARK    3  A    between atoms: C2_3  and  N1_6 
REMARK    4  A    between atoms: C9_14  and  N3_15 
REMARK    5  A    between atoms: N3_15  and  C10_16 
ROOT
HETATM    1  N1  UNL     1      23.346   5.356  48.413  1.00  0.00    -0.264 N 
HETATM    2  C4  UNL     1      24.591   5.940  48.819  1.00  0.00     0.158 C 
HETATM    3  C5  UNL     1      24.527   6.828  49.974  1.00  0.00     0.026 C 
HETATM    4  C6  UNL     1      25.913   7.568  50.113  1.00  0.00     0.014 C 
HETATM    5  C7  UNL     1      24.252   6.365  51.341  1.00  0.00     0.183 C 
HETATM    6  O2  UNL     1      23.116   5.636  51.625  1.00  0.00    -0.333 OA
HETATM    7  C8  UNL     1      22.847   4.380  51.104  1.00  0.00     0.197 A 
HETATM    8  N2  UNL     1      23.728   3.605  51.745  1.00  0.00    -0.037 NA
HETATM    9  C9  UNL     1      23.874   2.269  51.590  1.00  0.00     0.729 A 
HETATM   10  N6  UNL     1      23.054   1.633  50.703  1.00  0.00    -0.074 NA
HETATM   11  C14 UNL     1      22.164   2.481  50.071  1.00  0.00     0.154 A 
HETATM   12  C15 UNL     1      21.994   3.884  50.213  1.00  0.00     0.060 A 
HETATM   13  C16 UNL     1      20.899   4.110  49.233  1.00  0.00     0.083 C 
HETATM   14 CL1  UNL     1      19.640   4.002  50.425  1.00  0.00    -0.081 Cl
HETATM   15  C17 UNL     1      21.488   4.243  48.046  1.00  0.00     0.132 C 
HETATM   16  N7  UNL     1      22.791   4.093  48.155  1.00  0.00    -0.168 NA
ENDROOT
BRANCH   9  17
HETATM   17  N3  UNL     1      24.777   1.381  52.220  1.00  0.00    -0.185 N 
HETATM   18  H13 UNL     1      24.108   0.595  52.333  1.00  0.00     0.184 HD
BRANCH  17  19
HETATM   19  C10 UNL     1      26.120   1.445  52.603  1.00  0.00     0.085 A 
HETATM   20  C11 UNL     1      27.165   2.199  52.189  1.00  0.00     0.170 A 
HETATM   21  N4  UNL     1      28.250   1.839  52.897  1.00  0.00    -0.183 NA
HETATM   22  N5  UNL     1      27.895   0.872  53.743  1.00  0.00    -0.283 N 
HETATM   23  C12 UNL     1      28.737   0.173  54.707  1.00  0.00     0.179 C 
HETATM   24  C13 UNL     1      26.567   0.603  53.583  1.00  0.00     0.143 A 
ENDBRANCH  17  19
ENDBRANCH   9  17
BRANCH   1  25
HETATM   25  C2  UNL     1      22.575   6.572  48.090  1.00  0.00     0.107 C 
BRANCH  25  26
HETATM   26  P1  UNL     1      23.002   7.241  46.437  1.00  0.00    -0.074 P 
HETATM   27  C1  UNL     1      23.874   8.853  46.515  1.00  0.00     0.047 C 
HETATM   28  H4  UNL     1      23.712   6.295  45.617  1.00  0.00     0.064 HD
ENDBRANCH  25  26
BRANCH  25  29
HETATM   29  C3  UNL     1      21.663   7.298  48.679  1.00  0.00     0.252 C 
HETATM   30  O1  UNL     1      21.110   7.850  49.634  1.00  0.00    -0.281 OA
ENDBRANCH  25  29
ENDBRANCH   1  25
TORSDOF 5
ENDMDL
MODEL 9
REMARK VINA RESULT:      -6.3      4.594      8.249
REMARK  5 active torsions:
REMARK  status: ('A' for Active; 'I' for Inactive)
REMARK    1  A    between atoms: P1_2  and  C2_3 
REMARK    2  A    between atoms: C2_3  and  C3_4 
REMARK    3  A    between atoms: C2_3  and  N1_6 
REMARK    4  A    between atoms: C9_14  and  N3_15 
REMARK    5  A    between atoms: N3_15  and  C10_16 
ROOT
HETATM    1  N1  UNL     1      22.782   0.643  51.774  1.00  0.00    -0.264 N 
HETATM    2  C4  UNL     1      22.649  -0.448  52.694  1.00  0.00     0.158 C 
HETATM    3  C5  UNL     1      22.210  -0.093  54.038  1.00  0.00     0.026 C 
HETATM    4  C6  UNL     1      22.369  -1.359  54.967  1.00  0.00     0.014 C 
HETATM    5  C7  UNL     1      20.858   0.388  54.351  1.00  0.00     0.183 C 
HETATM    6  O2  UNL     1      20.332   1.488  53.706  1.00  0.00    -0.333 OA
HETATM    7  C8  UNL     1      20.080   1.544  52.344  1.00  0.00     0.197 A 
HETATM    8  N2  UNL     1      19.026   0.732  52.211  1.00  0.00    -0.037 NA
HETATM    9  C9  UNL     1      18.384   0.442  51.055  1.00  0.00     0.729 A 
HETATM   10  N6  UNL     1      18.838   1.025  49.907  1.00  0.00    -0.074 NA
HETATM   11  C14 UNL     1      19.927   1.853  50.103  1.00  0.00     0.154 A 
HETATM   12  C15 UNL     1      20.619   2.170  51.303  1.00  0.00     0.060 A 
HETATM   13  C16 UNL     1      21.664   3.080  50.763  1.00  0.00     0.083 C 
HETATM   14 CL1  UNL     1      20.757   4.524  51.099  1.00  0.00    -0.081 Cl
HETATM   15  C17 UNL     1      22.649   2.295  50.333  1.00  0.00     0.132 C 
HETATM   16  N7  UNL     1      22.340   1.028  50.499  1.00  0.00    -0.168 NA
ENDROOT
BRANCH   9  17
HETATM   17  N3  UNL     1      17.273  -0.403  50.827  1.00  0.00    -0.185 N 
HETATM   18  H13 UNL     1      17.599  -0.781  49.918  1.00  0.00     0.184 HD
BRANCH  17  19
HETATM   19  C10 UNL     1      16.096  -0.696  51.522  1.00  0.00     0.085 A 
HETATM   20  C11 UNL     1      15.355  -1.821  51.652  1.00  0.00     0.170 A 
HETATM   21  N4  UNL     1      14.300  -1.540  52.438  1.00  0.00    -0.183 NA
HETATM   22  N5  UNL     1      14.374  -0.258  52.796  1.00  0.00    -0.283 N 
HETATM   23  C12 UNL     1      13.450   0.490  53.640  1.00  0.00     0.179 C 
HETATM   24  C13 UNL     1      15.488   0.297  52.238  1.00  0.00     0.143 A 
ENDBRANCH  17  19
ENDBRANCH   9  17
BRANCH   1  25
HETATM   25  C2  UNL     1      23.813   1.446  52.461  1.00  0.00     0.107 C 
BRANCH  25  26
HETATM   26  P1  UNL     1      25.457   0.636  52.422  1.00  0.00    -0.074 P 
HETATM   27  C1  UNL     1      26.071   0.170  54.087  1.00  0.00     0.047 C 
HETATM   28  H4  UNL     1      25.513  -0.475  51.509  1.00  0.00     0.064 HD
ENDBRANCH  25  26
BRANCH  25  29
HETATM   29  C3  UNL     1      23.857   2.588  53.092  1.00  0.00     0.252 C 
HETATM   30  O1  UNL     1      24.400   3.582  53.581  1.00  0.00    -0.281 OA
ENDBRANCH  25  29
ENDBRANCH   1  25
TORSDOF 5
ENDMDL
