MODEL 1
REMARK VINA RESULT:      -9.8      0.000      0.000
REMARK  4 active torsions:
REMARK  status: ('A' for Active; 'I' for Inactive)
REMARK    1  A    between atoms: C2_2  and  O1_3 
REMARK    2  A    between atoms: C4_5  and  C5_6 
REMARK    3  A    between atoms: C6_8  and  S1_9 
REMARK    4  A    between atoms: C22_25  and  N2_26 
ROOT
HETATM    1  C5  UNL     1      26.031   1.732  51.846  1.00  0.00     0.116 A 
HETATM    2  N1  UNL     1      26.723   2.781  51.326  1.00  0.00    -0.226 NA
HETATM    3  C6  UNL     1      25.906   3.559  50.593  1.00  0.00     0.120 A 
HETATM    4  C21 UNL     1      24.644   2.967  50.659  1.00  0.00     0.121 A 
HETATM    5  C22 UNL     1      23.373   3.191  50.170  1.00  0.00     0.151 A 
HETATM    6  N3  UNL     1      22.361   2.341  50.466  1.00  0.00    -0.240 NA
HETATM    7  C23 UNL     1      22.524   1.250  51.236  1.00  0.00     0.136 A 
HETATM    8  C24 UNL     1      23.796   1.016  51.731  1.00  0.00     0.118 A 
HETATM    9  N4  UNL     1      24.779   1.872  51.423  1.00  0.00    -0.303 N 
ENDROOT
BRANCH   3  10
HETATM   10  S1  UNL     1      26.111   5.046  49.656  1.00  0.00    -0.141 SA
HETATM   11  C7  UNL     1      27.458   5.129  48.674  1.00  0.00     0.053 C 
HETATM   12  C8  UNL     1      28.111   6.337  48.043  1.00  0.00    -0.023 C 
HETATM   13  C9  UNL     1      27.279   7.352  47.930  1.00  0.00    -0.032 A 
HETATM   14  C18 UNL     1      29.485   6.066  47.742  1.00  0.00     0.008 C 
HETATM   15  C10 UNL     1      26.495   8.098  46.917  1.00  0.00     0.007 A 
HETATM   16  C12 UNL     1      26.743   8.212  48.972  1.00  0.00     0.024 A 
HETATM   17  C11 UNL     1      25.989   8.898  47.876  1.00  0.00    -0.008 A 
HETATM   18  C13 UNL     1      27.895   9.078  49.452  1.00  0.00    -0.012 C 
HETATM   19  C19 UNL     1      26.004   7.670  50.104  1.00  0.00     0.033 C 
HETATM   20  C14 UNL     1      29.224   9.316  49.556  1.00  0.00    -0.023 C 
HETATM   21  C15 UNL     1      29.812   8.148  48.854  1.00  0.00     0.051 C 
HETATM   22  C16 UNL     1      31.074   7.764  48.562  1.00  0.00     0.003 C 
HETATM   23  C17 UNL     1      30.752   6.504  47.868  1.00  0.00    -0.025 C 
HETATM   24  C20 UNL     1      25.052   6.545  49.917  1.00  0.00     0.076 C 
ENDBRANCH   3  10
BRANCH   1  25
HETATM   25  C4  UNL     1      26.870   0.851  52.646  1.00  0.00     0.061 C 
HETATM   26  C3  UNL     1      28.224   1.562  52.959  1.00  0.00     0.049 C 
HETATM   27  C2  UNL     1      28.231   0.641  54.199  1.00  0.00     0.056 C 
HETATM   28  C1  UNL     1      28.698  -0.726  53.784  1.00  0.00     0.045 C 
HETATM   29  C25 UNL     1      26.691   0.812  54.134  1.00  0.00     0.049 C 
BRANCH  27  30
HETATM   30  O1  UNL     1      28.807   1.194  55.322  1.00  0.00    -0.390 OA
HETATM   31  H4  UNL     1      29.343   2.001  55.100  1.00  0.00     0.210 HD
ENDBRANCH  27  30
ENDBRANCH   1  25
BRANCH   5  32
HETATM   32  N2  UNL     1      23.201   4.352  49.351  1.00  0.00    -0.382 N 
HETATM   33  H21 UNL     1      23.748   4.763  48.546  1.00  0.00     0.157 HD
HETATM   34  H22 UNL     1      22.326   4.857  49.672  1.00  0.00     0.157 HD
ENDBRANCH   5  32
TORSDOF 4
ENDMDL
MODEL 2
REMARK VINA RESULT:      -9.6      0.974      1.096
REMARK  4 active torsions:
REMARK  status: ('A' for Active; 'I' for Inactive)
REMARK    1  A    between atoms: C2_2  and  O1_3 
REMARK    2  A    between atoms: C4_5  and  C5_6 
REMARK    3  A    between atoms: C6_8  and  S1_9 
REMARK    4  A    between atoms: C22_25  and  N2_26 
ROOT
HETATM    1  C5  UNL     1      26.013   2.015  51.650  1.00  0.00     0.116 A 
HETATM    2  N1  UNL     1      26.813   3.008  51.176  1.00  0.00    -0.226 NA
HETATM    3  C6  UNL     1      26.129   3.785  50.317  1.00  0.00     0.120 A 
HETATM    4  C21 UNL     1      24.842   3.251  50.251  1.00  0.00     0.121 A 
HETATM    5  C22 UNL     1      23.651   3.506  49.601  1.00  0.00     0.151 A 
HETATM    6  N3  UNL     1      22.571   2.716  49.804  1.00  0.00    -0.240 NA
HETATM    7  C23 UNL     1      22.587   1.655  50.633  1.00  0.00     0.136 A 
HETATM    8  C24 UNL     1      23.776   1.390  51.290  1.00  0.00     0.118 A 
HETATM    9  N4  UNL     1      24.829   2.189  51.071  1.00  0.00    -0.303 N 
ENDROOT
BRANCH   3  10
HETATM   10  S1  UNL     1      26.518   5.217  49.352  1.00  0.00    -0.141 SA
HETATM   11  C7  UNL     1      27.943   5.168  48.485  1.00  0.00     0.053 C 
HETATM   12  C8  UNL     1      28.732   6.301  47.872  1.00  0.00    -0.023 C 
HETATM   13  C9  UNL     1      27.987   7.367  47.656  1.00  0.00    -0.032 A 
HETATM   14  C18 UNL     1      30.102   5.924  47.698  1.00  0.00     0.008 C 
HETATM   15  C10 UNL     1      27.345   8.125  46.556  1.00  0.00     0.007 A 
HETATM   16  C12 UNL     1      27.432   8.302  48.620  1.00  0.00     0.024 A 
HETATM   17  C11 UNL     1      26.822   8.996  47.442  1.00  0.00    -0.008 A 
HETATM   18  C13 UNL     1      28.600   9.104  49.167  1.00  0.00    -0.012 C 
HETATM   19  C19 UNL     1      26.565   7.858  49.703  1.00  0.00     0.033 C 
HETATM   20  C14 UNL     1      29.930   9.253  49.375  1.00  0.00    -0.023 C 
HETATM   21  C15 UNL     1      30.487   8.021  48.765  1.00  0.00     0.051 C 
HETATM   22  C16 UNL     1      31.738   7.539  48.593  1.00  0.00     0.003 C 
HETATM   23  C17 UNL     1      31.383   6.278  47.916  1.00  0.00    -0.025 C 
HETATM   24  C20 UNL     1      25.552   6.795  49.473  1.00  0.00     0.076 C 
ENDBRANCH   3  10
BRANCH   1  25
HETATM   25  C4  UNL     1      26.705   1.137  52.583  1.00  0.00     0.061 C 
HETATM   26  C3  UNL     1      26.177   1.390  54.029  1.00  0.00     0.049 C 
HETATM   27  C2  UNL     1      26.614  -0.071  54.268  1.00  0.00     0.056 C 
HETATM   28  C1  UNL     1      28.101  -0.101  54.491  1.00  0.00     0.045 C 
HETATM   29  C25 UNL     1      26.211  -0.264  52.783  1.00  0.00     0.049 C 
BRANCH  27  30
HETATM   30  O1  UNL     1      25.826  -0.769  55.156  1.00  0.00    -0.390 OA
HETATM   31  H4  UNL     1      25.706  -1.715  54.875  1.00  0.00     0.210 HD
ENDBRANCH  27  30
ENDBRANCH   1  25
BRANCH   5  32
HETATM   32  N2  UNL     1      23.636   4.635  48.719  1.00  0.00    -0.382 N 
HETATM   33  H21 UNL     1      24.083   4.833  47.784  1.00  0.00     0.157 HD
HETATM   34  H22 UNL     1      23.033   5.388  49.157  1.00  0.00     0.157 HD
ENDBRANCH   5  32
TORSDOF 4
ENDMDL
MODEL 3
REMARK VINA RESULT:      -9.4      2.462      7.750
REMARK  4 active torsions:
REMARK  status: ('A' for Active; 'I' for Inactive)
REMARK    1  A    between atoms: C2_2  and  O1_3 
REMARK    2  A    between atoms: C4_5  and  C5_6 
REMARK    3  A    between atoms: C6_8  and  S1_9 
REMARK    4  A    between atoms: C22_25  and  N2_26 
ROOT
HETATM    1  C5  UNL     1      25.081   5.428  49.734  1.00  0.00     0.116 A 
HETATM    2  N1  UNL     1      25.722   4.399  50.352  1.00  0.00    -0.226 NA
HETATM    3  C6  UNL     1      24.896   3.796  51.226  1.00  0.00     0.120 A 
HETATM    4  C21 UNL     1      23.683   4.481  51.149  1.00  0.00     0.121 A 
HETATM    5  C22 UNL     1      22.432   4.431  51.732  1.00  0.00     0.151 A 
HETATM    6  N3  UNL     1      21.472   5.319  51.380  1.00  0.00    -0.240 NA
HETATM    7  C23 UNL     1      21.669   6.284  50.463  1.00  0.00     0.136 A 
HETATM    8  C24 UNL     1      22.921   6.342  49.873  1.00  0.00     0.118 A 
HETATM    9  N4  UNL     1      23.852   5.451  50.239  1.00  0.00    -0.303 N 
ENDROOT
BRANCH   3  10
HETATM   10  S1  UNL     1      25.045   2.430  52.341  1.00  0.00    -0.141 SA
HETATM   11  C7  UNL     1      26.477   2.312  53.189  1.00  0.00     0.053 C 
HETATM   12  C8  UNL     1      27.065   1.127  53.920  1.00  0.00    -0.023 C 
HETATM   13  C9  UNL     1      26.146   0.244  54.257  1.00  0.00    -0.032 A 
HETATM   14  C18 UNL     1      28.484   1.265  54.043  1.00  0.00     0.008 C 
HETATM   15  C10 UNL     1      25.406  -0.262  55.438  1.00  0.00     0.007 A 
HETATM   16  C12 UNL     1      25.407  -0.673  53.406  1.00  0.00     0.024 A 
HETATM   17  C11 UNL     1      24.712  -1.113  54.657  1.00  0.00    -0.008 A 
HETATM   18  C13 UNL     1      26.397  -1.728  52.945  1.00  0.00    -0.012 C 
HETATM   19  C19 UNL     1      24.606  -0.198  52.285  1.00  0.00     0.033 C 
HETATM   20  C14 UNL     1      27.672  -2.139  52.747  1.00  0.00    -0.023 C 
HETATM   21  C15 UNL     1      28.458  -0.970  53.213  1.00  0.00     0.051 C 
HETATM   22  C16 UNL     1      29.779  -0.707  53.323  1.00  0.00     0.003 C 
HETATM   23  C17 UNL     1      29.675   0.663  53.858  1.00  0.00    -0.025 C 
HETATM   24  C20 UNL     1      23.808   1.051  52.402  1.00  0.00     0.076 C 
ENDBRANCH   3  10
BRANCH   1  25
HETATM   25  C4  UNL     1      25.933   6.123  48.780  1.00  0.00     0.061 C 
HETATM   26  C3  UNL     1      26.593   7.357  49.470  1.00  0.00     0.049 C 
HETATM   27  C2  UNL     1      27.699   7.150  48.411  1.00  0.00     0.056 C 
HETATM   28  C1  UNL     1      27.238   7.744  47.109  1.00  0.00     0.045 C 
HETATM   29  C25 UNL     1      27.339   5.649  48.565  1.00  0.00     0.049 C 
BRANCH  27  30
HETATM   30  O1  UNL     1      28.969   7.466  48.839  1.00  0.00    -0.390 OA
HETATM   31  H4  UNL     1      29.613   6.733  48.651  1.00  0.00     0.210 HD
ENDBRANCH  27  30
ENDBRANCH   1  25
BRANCH   5  32
HETATM   32  N2  UNL     1      22.224   3.404  52.708  1.00  0.00    -0.382 N 
HETATM   33  H21 UNL     1      21.575   3.308  53.535  1.00  0.00     0.157 HD
HETATM   34  H22 UNL     1      22.889   2.607  52.496  1.00  0.00     0.157 HD
ENDBRANCH   5  32
TORSDOF 4
ENDMDL
MODEL 4
REMARK VINA RESULT:      -9.4      4.063      5.321
REMARK  4 active torsions:
REMARK  status: ('A' for Active; 'I' for Inactive)
REMARK    1  A    between atoms: C2_2  and  O1_3 
REMARK    2  A    between atoms: C4_5  and  C5_6 
REMARK    3  A    between atoms: C6_8  and  S1_9 
REMARK    4  A    between atoms: C22_25  and  N2_26 
ROOT
HETATM    1  C5  UNL     1      24.650   0.282  53.248  1.00  0.00     0.116 A 
HETATM    2  N1  UNL     1      24.632   1.437  52.528  1.00  0.00    -0.226 NA
HETATM    3  C6  UNL     1      23.379   1.918  52.453  1.00  0.00     0.120 A 
HETATM    4  C21 UNL     1      22.576   1.021  53.158  1.00  0.00     0.121 A 
HETATM    5  C22 UNL     1      21.244   0.867  53.487  1.00  0.00     0.151 A 
HETATM    6  N3  UNL     1      20.833  -0.196  54.220  1.00  0.00    -0.240 NA
HETATM    7  C23 UNL     1      21.674  -1.148  54.663  1.00  0.00     0.136 A 
HETATM    8  C24 UNL     1      23.012  -1.003  54.337  1.00  0.00     0.118 A 
HETATM    9  N4  UNL     1      23.392   0.058  53.613  1.00  0.00    -0.303 N 
ENDROOT
BRANCH   3  10
HETATM   10  S1  UNL     1      22.631   3.335  51.702  1.00  0.00    -0.141 SA
HETATM   11  C7  UNL     1      21.735   3.063  50.321  1.00  0.00     0.053 C 
HETATM   12  C8  UNL     1      21.281   4.042  49.263  1.00  0.00    -0.023 C 
HETATM   13  C9  UNL     1      21.245   5.280  49.713  1.00  0.00    -0.032 A 
HETATM   14  C18 UNL     1      21.022   3.365  48.029  1.00  0.00     0.008 C 
HETATM   15  C10 UNL     1      20.286   6.332  50.127  1.00  0.00     0.007 A 
HETATM   16  C12 UNL     1      22.350   6.168  50.032  1.00  0.00     0.024 A 
HETATM   17  C11 UNL     1      21.303   7.162  50.430  1.00  0.00    -0.008 A 
HETATM   18  C13 UNL     1      22.985   6.560  48.709  1.00  0.00    -0.012 C 
HETATM   19  C19 UNL     1      23.373   5.796  51.000  1.00  0.00     0.033 C 
HETATM   20  C14 UNL     1      23.183   6.339  47.388  1.00  0.00    -0.023 C 
HETATM   21  C15 UNL     1      22.383   5.113  47.147  1.00  0.00     0.051 C 
HETATM   22  C16 UNL     1      22.112   4.365  46.055  1.00  0.00     0.003 C 
HETATM   23  C17 UNL     1      21.262   3.349  46.703  1.00  0.00    -0.025 C 
HETATM   24  C20 UNL     1      23.009   5.068  52.243  1.00  0.00     0.076 C 
ENDBRANCH   3  10
BRANCH   1  25
HETATM   25  C4  UNL     1      25.986  -0.287  53.356  1.00  0.00     0.061 C 
HETATM   26  C3  UNL     1      26.946   0.438  52.362  1.00  0.00     0.049 C 
HETATM   27  C2  UNL     1      28.039   0.019  53.369  1.00  0.00     0.056 C 
HETATM   28  C1  UNL     1      28.390  -1.423  53.128  1.00  0.00     0.045 C 
HETATM   29  C25 UNL     1      26.916   0.212  54.421  1.00  0.00     0.049 C 
BRANCH  27  30
HETATM   30  O1  UNL     1      29.079   0.913  53.493  1.00  0.00    -0.390 OA
HETATM   31  H4  UNL     1      28.768   1.853  53.409  1.00  0.00     0.210 HD
ENDBRANCH  27  30
ENDBRANCH   1  25
BRANCH   5  32
HETATM   32  N2  UNL     1      20.350   1.880  53.015  1.00  0.00    -0.382 N 
HETATM   33  H21 UNL     1      19.315   2.053  53.138  1.00  0.00     0.157 HD
HETATM   34  H22 UNL     1      20.907   2.566  52.429  1.00  0.00     0.157 HD
ENDBRANCH   5  32
TORSDOF 4
ENDMDL
MODEL 5
REMARK VINA RESULT:      -9.3      3.204      7.499
REMARK  4 active torsions:
REMARK  status: ('A' for Active; 'I' for Inactive)
REMARK    1  A    between atoms: C2_2  and  O1_3 
REMARK    2  A    between atoms: C4_5  and  C5_6 
REMARK    3  A    between atoms: C6_8  and  S1_9 
REMARK    4  A    between atoms: C22_25  and  N2_26 
ROOT
HETATM    1  C5  UNL     1      28.567   6.865  48.346  1.00  0.00     0.116 A 
HETATM    2  N1  UNL     1      27.563   5.950  48.422  1.00  0.00    -0.226 NA
HETATM    3  C6  UNL     1      26.476   6.498  48.995  1.00  0.00     0.120 A 
HETATM    4  C21 UNL     1      26.818   7.818  49.292  1.00  0.00     0.121 A 
HETATM    5  C22 UNL     1      26.237   8.929  49.867  1.00  0.00     0.151 A 
HETATM    6  N3  UNL     1      26.931  10.086  49.988  1.00  0.00    -0.240 NA
HETATM    7  C23 UNL     1      28.202  10.223  49.568  1.00  0.00     0.136 A 
HETATM    8  C24 UNL     1      28.795   9.113  48.990  1.00  0.00     0.118 A 
HETATM    9  N4  UNL     1      28.085   7.982  48.882  1.00  0.00    -0.303 N 
ENDROOT
BRANCH   3  10
HETATM   10  S1  UNL     1      24.855   5.916  49.401  1.00  0.00    -0.141 SA
HETATM   11  C7  UNL     1      24.673   5.197  50.896  1.00  0.00     0.053 C 
HETATM   12  C8  UNL     1      23.566   4.301  51.400  1.00  0.00    -0.023 C 
HETATM   13  C9  UNL     1      22.447   4.460  50.721  1.00  0.00    -0.032 A 
HETATM   14  C18 UNL     1      24.029   3.491  52.486  1.00  0.00     0.008 C 
HETATM   15  C10 UNL     1      21.095   5.054  50.844  1.00  0.00     0.007 A 
HETATM   16  C12 UNL     1      22.138   4.044  49.364  1.00  0.00     0.024 A 
HETATM   17  C11 UNL     1      20.799   4.676  49.585  1.00  0.00    -0.008 A 
HETATM   18  C13 UNL     1      22.025   2.529  49.391  1.00  0.00    -0.012 C 
HETATM   19  C19 UNL     1      22.943   4.476  48.230  1.00  0.00     0.033 C 
HETATM   20  C14 UNL     1      22.274   1.341  49.992  1.00  0.00    -0.023 C 
HETATM   21  C15 UNL     1      23.023   1.750  51.206  1.00  0.00     0.051 C 
HETATM   22  C16 UNL     1      23.550   1.083  52.256  1.00  0.00     0.003 C 
HETATM   23  C17 UNL     1      24.111   2.239  52.977  1.00  0.00    -0.025 C 
HETATM   24  C20 UNL     1      23.474   5.863  48.165  1.00  0.00     0.076 C 
ENDBRANCH   3  10
BRANCH   1  25
HETATM   25  C4  UNL     1      29.772   6.322  47.738  1.00  0.00     0.061 C 
HETATM   26  C3  UNL     1      30.962   6.438  48.741  1.00  0.00     0.049 C 
HETATM   27  C2  UNL     1      31.523   5.230  47.961  1.00  0.00     0.056 C 
HETATM   28  C1  UNL     1      32.153   5.726  46.689  1.00  0.00     0.045 C 
HETATM   29  C25 UNL     1      30.029   4.846  47.799  1.00  0.00     0.049 C 
BRANCH  27  30
HETATM   30  O1  UNL     1      32.249   4.340  48.722  1.00  0.00    -0.390 OA
HETATM   31  H4  UNL     1      32.436   4.701  49.629  1.00  0.00     0.210 HD
ENDBRANCH  27  30
ENDBRANCH   1  25
BRANCH   5  32
HETATM   32  N2  UNL     1      24.884   8.782  50.314  1.00  0.00    -0.382 N 
HETATM   33  H21 UNL     1      24.427   8.801  51.265  1.00  0.00     0.157 HD
HETATM   34  H22 UNL     1      24.270   8.625  49.464  1.00  0.00     0.157 HD
ENDBRANCH   5  32
TORSDOF 4
ENDMDL
MODEL 6
REMARK VINA RESULT:      -9.0      3.769      6.912
REMARK  4 active torsions:
REMARK  status: ('A' for Active; 'I' for Inactive)
REMARK    1  A    between atoms: C2_2  and  O1_3 
REMARK    2  A    between atoms: C4_5  and  C5_6 
REMARK    3  A    between atoms: C6_8  and  S1_9 
REMARK    4  A    between atoms: C22_25  and  N2_26 
ROOT
HETATM    1  C5  UNL     1      26.791   6.614  48.341  1.00  0.00     0.116 A 
HETATM    2  N1  UNL     1      28.096   6.250  48.462  1.00  0.00    -0.226 NA
HETATM    3  C6  UNL     1      28.896   7.238  48.022  1.00  0.00     0.120 A 
HETATM    4  C21 UNL     1      28.049   8.267  47.607  1.00  0.00     0.121 A 
HETATM    5  C22 UNL     1      28.153   9.530  47.061  1.00  0.00     0.151 A 
HETATM    6  N3  UNL     1      27.042  10.252  46.777  1.00  0.00    -0.240 NA
HETATM    7  C23 UNL     1      25.797   9.795  47.002  1.00  0.00     0.136 A 
HETATM    8  C24 UNL     1      25.682   8.528  47.548  1.00  0.00     0.118 A 
HETATM    9  N4  UNL     1      26.797   7.836  47.820  1.00  0.00    -0.303 N 
ENDROOT
BRANCH   3  10
HETATM   10  S1  UNL     1      30.647   7.456  47.886  1.00  0.00    -0.141 SA
HETATM   11  C7  UNL     1      31.369   6.856  46.506  1.00  0.00     0.053 C 
HETATM   12  C8  UNL     1      32.826   6.556  46.239  1.00  0.00    -0.023 C 
HETATM   13  C9  UNL     1      33.628   7.232  47.036  1.00  0.00    -0.032 A 
HETATM   14  C18 UNL     1      32.956   5.592  45.189  1.00  0.00     0.008 C 
HETATM   15  C10 UNL     1      34.569   8.378  47.029  1.00  0.00     0.007 A 
HETATM   16  C12 UNL     1      33.871   7.046  48.457  1.00  0.00     0.024 A 
HETATM   17  C11 UNL     1      34.798   8.216  48.347  1.00  0.00    -0.008 A 
HETATM   18  C13 UNL     1      34.657   5.753  48.595  1.00  0.00    -0.012 C 
HETATM   19  C19 UNL     1      32.788   7.093  49.430  1.00  0.00     0.033 C 
HETATM   20  C14 UNL     1      35.068   4.566  48.089  1.00  0.00    -0.023 C 
HETATM   21  C15 UNL     1      34.419   4.548  46.754  1.00  0.00     0.051 C 
HETATM   22  C16 UNL     1      34.425   3.682  45.717  1.00  0.00     0.003 C 
HETATM   23  C17 UNL     1      33.525   4.429  44.818  1.00  0.00    -0.025 C 
HETATM   24  C20 UNL     1      31.687   8.081  49.288  1.00  0.00     0.076 C 
ENDBRANCH   3  10
BRANCH   1  25
HETATM   25  C4  UNL     1      25.878   5.576  48.798  1.00  0.00     0.061 C 
HETATM   26  C3  UNL     1      26.695   4.356  49.325  1.00  0.00     0.049 C 
HETATM   27  C2  UNL     1      25.441   4.097  50.188  1.00  0.00     0.056 C 
HETATM   28  C1  UNL     1      24.402   3.419  49.339  1.00  0.00     0.045 C 
HETATM   29  C25 UNL     1      25.322   5.643  50.189  1.00  0.00     0.049 C 
BRANCH  27  30
HETATM   30  O1  UNL     1      25.698   3.555  51.428  1.00  0.00    -0.390 OA
HETATM   31  H4  UNL     1      25.057   3.884  52.112  1.00  0.00     0.210 HD
ENDBRANCH  27  30
ENDBRANCH   1  25
BRANCH   5  32
HETATM   32  N2  UNL     1      29.479  10.015  46.822  1.00  0.00    -0.382 N 
HETATM   33  H21 UNL     1      30.236   9.753  46.135  1.00  0.00     0.157 HD
HETATM   34  H22 UNL     1      29.675  10.797  47.511  1.00  0.00     0.157 HD
ENDBRANCH   5  32
TORSDOF 4
ENDMDL
MODEL 7
REMARK VINA RESULT:      -8.9      3.042      5.765
REMARK  4 active torsions:
REMARK  status: ('A' for Active; 'I' for Inactive)
REMARK    1  A    between atoms: C2_2  and  O1_3 
REMARK    2  A    between atoms: C4_5  and  C5_6 
REMARK    3  A    between atoms: C6_8  and  S1_9 
REMARK    4  A    between atoms: C22_25  and  N2_26 
ROOT
HETATM    1  C5  UNL     1      23.784   0.247  53.365  1.00  0.00     0.116 A 
HETATM    2  N1  UNL     1      23.521   1.288  52.529  1.00  0.00    -0.226 NA
HETATM    3  C6  UNL     1      24.606   2.074  52.412  1.00  0.00     0.120 A 
HETATM    4  C21 UNL     1      25.593   1.497  53.212  1.00  0.00     0.121 A 
HETATM    5  C22 UNL     1      26.902   1.741  53.573  1.00  0.00     0.151 A 
HETATM    6  N3  UNL     1      27.550   0.910  54.423  1.00  0.00    -0.240 NA
HETATM    7  C23 UNL     1      26.974  -0.181  54.960  1.00  0.00     0.136 A 
HETATM    8  C24 UNL     1      25.660  -0.435  54.606  1.00  0.00     0.118 A 
HETATM    9  N4  UNL     1      25.043   0.403  53.762  1.00  0.00    -0.303 N 
ENDROOT
BRANCH   3  10
HETATM   10  S1  UNL     1      24.980   3.556  51.519  1.00  0.00    -0.141 SA
HETATM   11  C7  UNL     1      23.995   4.870  51.809  1.00  0.00     0.053 C 
HETATM   12  C8  UNL     1      23.806   6.127  50.991  1.00  0.00    -0.023 C 
HETATM   13  C9  UNL     1      24.835   6.367  50.203  1.00  0.00    -0.032 A 
HETATM   14  C18 UNL     1      22.538   6.727  51.275  1.00  0.00     0.008 C 
HETATM   15  C10 UNL     1      26.001   7.272  50.067  1.00  0.00     0.007 A 
HETATM   16  C12 UNL     1      25.243   5.667  48.996  1.00  0.00     0.024 A 
HETATM   17  C11 UNL     1      26.390   6.628  48.950  1.00  0.00    -0.008 A 
HETATM   18  C13 UNL     1      24.216   6.009  47.930  1.00  0.00    -0.012 C 
HETATM   19  C19 UNL     1      25.520   4.237  49.000  1.00  0.00     0.033 C 
HETATM   20  C14 UNL     1      22.990   6.466  47.581  1.00  0.00    -0.023 C 
HETATM   21  C15 UNL     1      22.376   6.767  48.898  1.00  0.00     0.051 C 
HETATM   22  C16 UNL     1      21.186   7.276  49.287  1.00  0.00     0.003 C 
HETATM   23  C17 UNL     1      21.406   7.228  50.744  1.00  0.00    -0.025 C 
HETATM   24  C20 UNL     1      26.226   3.607  50.146  1.00  0.00     0.076 C 
ENDBRANCH   3  10
BRANCH   1  25
HETATM   25  C4  UNL     1      22.639  -0.636  53.534  1.00  0.00     0.061 C 
HETATM   26  C3  UNL     1      21.702  -0.070  54.646  1.00  0.00     0.049 C 
HETATM   27  C2  UNL     1      20.602  -0.837  53.881  1.00  0.00     0.056 C 
HETATM   28  C1  UNL     1      20.675  -2.290  54.260  1.00  0.00     0.045 C 
HETATM   29  C25 UNL     1      21.451  -0.484  52.632  1.00  0.00     0.049 C 
BRANCH  27  30
HETATM   30  O1  UNL     1      19.362  -0.238  53.902  1.00  0.00    -0.390 OA
HETATM   31  H4  UNL     1      19.367   0.631  53.420  1.00  0.00     0.210 HD
ENDBRANCH  27  30
ENDBRANCH   1  25
BRANCH   5  32
HETATM   32  N2  UNL     1      27.514   2.903  53.001  1.00  0.00    -0.382 N 
HETATM   33  H21 UNL     1      27.598   3.909  53.312  1.00  0.00     0.157 HD
HETATM   34  H22 UNL     1      27.956   2.624  52.079  1.00  0.00     0.157 HD
ENDBRANCH   5  32
TORSDOF 4
ENDMDL
MODEL 8
REMARK VINA RESULT:      -8.5      5.499      8.758
REMARK  4 active torsions:
REMARK  status: ('A' for Active; 'I' for Inactive)
REMARK    1  A    between atoms: C2_2  and  O1_3 
REMARK    2  A    between atoms: C4_5  and  C5_6 
REMARK    3  A    between atoms: C6_8  and  S1_9 
REMARK    4  A    between atoms: C22_25  and  N2_26 
ROOT
HETATM    1  C5  UNL     1      16.854   3.866  50.883  1.00  0.00     0.116 A 
HETATM    2  N1  UNL     1      17.858   3.752  51.794  1.00  0.00    -0.226 NA
HETATM    3  C6  UNL     1      19.030   3.539  51.169  1.00  0.00     0.120 A 
HETATM    4  C21 UNL     1      18.743   3.519  49.804  1.00  0.00     0.121 A 
HETATM    5  C22 UNL     1      19.417   3.351  48.611  1.00  0.00     0.151 A 
HETATM    6  N3  UNL     1      18.752   3.393  47.431  1.00  0.00    -0.240 NA
HETATM    7  C23 UNL     1      17.425   3.595  47.347  1.00  0.00     0.136 A 
HETATM    8  C24 UNL     1      16.739   3.764  48.539  1.00  0.00     0.118 A 
HETATM    9  N4  UNL     1      17.422   3.718  49.691  1.00  0.00    -0.303 N 
ENDROOT
BRANCH   3  10
HETATM   10  S1  UNL     1      20.702   3.306  51.701  1.00  0.00    -0.141 SA
HETATM   11  C7  UNL     1      21.655   4.673  51.790  1.00  0.00     0.053 C 
HETATM   12  C8  UNL     1      23.160   4.790  51.851  1.00  0.00    -0.023 C 
HETATM   13  C9  UNL     1      23.728   3.688  52.297  1.00  0.00    -0.032 A 
HETATM   14  C18 UNL     1      23.583   6.077  51.389  1.00  0.00     0.008 C 
HETATM   15  C10 UNL     1      24.405   3.139  53.496  1.00  0.00     0.007 A 
HETATM   16  C12 UNL     1      23.876   2.404  51.631  1.00  0.00     0.024 A 
HETATM   17  C11 UNL     1      24.543   1.944  52.889  1.00  0.00    -0.008 A 
HETATM   18  C13 UNL     1      24.899   2.606  50.526  1.00  0.00    -0.012 C 
HETATM   19  C19 UNL     1      22.723   1.665  51.133  1.00  0.00     0.033 C 
HETATM   20  C14 UNL     1      25.593   3.425  49.700  1.00  0.00    -0.023 C 
HETATM   21  C15 UNL     1      25.085   4.766  50.082  1.00  0.00     0.051 C 
HETATM   22  C16 UNL     1      25.365   6.026  49.684  1.00  0.00     0.003 C 
HETATM   23  C17 UNL     1      24.414   6.737  50.559  1.00  0.00    -0.025 C 
HETATM   24  C20 UNL     1      21.457   1.625  51.910  1.00  0.00     0.076 C 
ENDBRANCH   3  10
BRANCH   1  25
HETATM   25  C4  UNL     1      15.558   4.091  51.507  1.00  0.00     0.061 C 
HETATM   26  C3  UNL     1      14.750   2.757  51.532  1.00  0.00     0.049 C 
HETATM   27  C2  UNL     1      14.054   3.391  52.755  1.00  0.00     0.056 C 
HETATM   28  C1  UNL     1      13.015   4.363  52.271  1.00  0.00     0.045 C 
HETATM   29  C25 UNL     1      15.440   4.043  53.001  1.00  0.00     0.049 C 
BRANCH  27  30
HETATM   30  O1  UNL     1      13.678   2.495  53.731  1.00  0.00    -0.390 OA
HETATM   31  H4  UNL     1      13.714   1.558  53.403  1.00  0.00     0.210 HD
ENDBRANCH  27  30
ENDBRANCH   1  25
BRANCH   5  32
HETATM   32  N2  UNL     1      20.830   3.136  48.701  1.00  0.00    -0.382 N 
HETATM   33  H21 UNL     1      21.591   2.993  47.984  1.00  0.00     0.157 HD
HETATM   34  H22 UNL     1      21.099   3.132  49.727  1.00  0.00     0.157 HD
ENDBRANCH   5  32
TORSDOF 4
ENDMDL
MODEL 9
REMARK VINA RESULT:      -8.4      3.883      7.457
REMARK  4 active torsions:
REMARK  status: ('A' for Active; 'I' for Inactive)
REMARK    1  A    between atoms: C2_2  and  O1_3 
REMARK    2  A    between atoms: C4_5  and  C5_6 
REMARK    3  A    between atoms: C6_8  and  S1_9 
REMARK    4  A    between atoms: C22_25  and  N2_26 
ROOT
HETATM    1  C5  UNL     1      30.342   6.889  47.856  1.00  0.00     0.116 A 
HETATM    2  N1  UNL     1      29.097   6.339  47.854  1.00  0.00    -0.226 NA
HETATM    3  C6  UNL     1      28.197   7.228  48.311  1.00  0.00     0.120 A 
HETATM    4  C21 UNL     1      28.914   8.386  48.613  1.00  0.00     0.121 A 
HETATM    5  C22 UNL     1      28.668   9.651  49.109  1.00  0.00     0.151 A 
HETATM    6  N3  UNL     1      29.681  10.536  49.273  1.00  0.00    -0.240 NA
HETATM    7  C23 UNL     1      30.960  10.247  48.972  1.00  0.00     0.136 A 
HETATM    8  C24 UNL     1      31.217   8.980  48.474  1.00  0.00     0.118 A 
HETATM    9  N4  UNL     1      30.196   8.125  48.321  1.00  0.00    -0.303 N 
ENDROOT
BRANCH   3  10
HETATM   10  S1  UNL     1      26.447   7.205  48.574  1.00  0.00    -0.141 SA
HETATM   11  C7  UNL     1      25.864   6.041  49.619  1.00  0.00     0.053 C 
HETATM   12  C8  UNL     1      24.455   5.521  49.786  1.00  0.00    -0.023 C 
HETATM   13  C9  UNL     1      23.553   6.377  49.350  1.00  0.00    -0.032 A 
HETATM   14  C18 UNL     1      24.468   4.213  50.366  1.00  0.00     0.008 C 
HETATM   15  C10 UNL     1      22.530   7.331  49.842  1.00  0.00     0.007 A 
HETATM   16  C12 UNL     1      23.233   6.747  47.981  1.00  0.00     0.024 A 
HETATM   17  C11 UNL     1      22.228   7.683  48.577  1.00  0.00    -0.008 A 
HETATM   18  C13 UNL     1      22.541   5.545  47.360  1.00  0.00    -0.012 C 
HETATM   19  C19 UNL     1      24.244   7.279  47.077  1.00  0.00     0.033 C 
HETATM   20  C14 UNL     1      22.256   4.222  47.361  1.00  0.00    -0.023 C 
HETATM   21  C15 UNL     1      22.990   3.739  48.557  1.00  0.00     0.051 C 
HETATM   22  C16 UNL     1      23.118   2.537  49.160  1.00  0.00     0.003 C 
HETATM   23  C17 UNL     1      24.014   2.949  50.256  1.00  0.00    -0.025 C 
HETATM   24  C20 UNL     1      25.273   8.231  47.571  1.00  0.00     0.076 C 
ENDBRANCH   3  10
BRANCH   1  25
HETATM   25  C4  UNL     1      31.360   5.966  47.374  1.00  0.00     0.061 C 
HETATM   26  C3  UNL     1      32.321   5.591  48.545  1.00  0.00     0.049 C 
HETATM   27  C2  UNL     1      32.539   4.296  47.733  1.00  0.00     0.056 C 
HETATM   28  C1  UNL     1      33.513   4.580  46.623  1.00  0.00     0.045 C 
HETATM   29  C25 UNL     1      31.058   4.498  47.319  1.00  0.00     0.049 C 
BRANCH  27  30
HETATM   30  O1  UNL     1      32.757   3.169  48.495  1.00  0.00    -0.390 OA
HETATM   31  H4  UNL     1      33.178   3.392  49.367  1.00  0.00     0.210 HD
ENDBRANCH  27  30
ENDBRANCH   1  25
BRANCH   5  32
HETATM   32  N2  UNL     1      27.307   9.957  49.430  1.00  0.00    -0.382 N 
HETATM   33  H21 UNL     1      26.438   9.369  49.549  1.00  0.00     0.157 HD
HETATM   34  H22 UNL     1      27.226  11.006  49.562  1.00  0.00     0.157 HD
ENDBRANCH   5  32
TORSDOF 4
ENDMDL
