MODEL 1
REMARK VINA RESULT:      -6.7      0.000      0.000
REMARK  1 active torsions:
REMARK  status: ('A' for Active; 'I' for Inactive)
REMARK    1  A    between atoms: O1_2  and  C2_3 
ROOT
HETATM    1  C2  UNL     1      23.988   5.303  50.346  1.00  0.00     0.057 C 
HETATM    2  C3  UNL     1      24.426   4.400  49.476  1.00  0.00    -0.011 C 
HETATM    3  C4  UNL     1      23.955   3.201  48.809  1.00  0.00     0.127 C 
HETATM    4  N1  UNL     1      22.806   2.571  48.865  1.00  0.00    -0.254 NA
HETATM    5  C5  UNL     1      21.766   3.097  49.722  1.00  0.00     0.230 C 
HETATM    6  N2  UNL     1      22.505   2.739  50.715  1.00  0.00    -0.240 NA
HETATM    7  C6  UNL     1      22.178   2.916  52.113  1.00  0.00     0.178 C 
HETATM    8  C7  UNL     1      21.115   3.936  52.227  1.00  0.00     0.039 C 
HETATM    9  C8  UNL     1      22.101   4.800  51.839  1.00  0.00    -0.068 C 
HETATM   10  C9  UNL     1      22.990   5.861  51.262  1.00  0.00     0.099 C 
HETATM   11  C10 UNL     1      22.942   3.955  52.804  1.00  0.00     0.102 C 
HETATM   12  O2  UNL     1      22.056   1.724  52.748  1.00  0.00    -0.351 OA
HETATM   13  C11 UNL     1      22.993   0.909  52.055  1.00  0.00     0.200 C 
HETATM   14  C12 UNL     1      24.386   1.247  52.393  1.00  0.00     0.014 C 
HETATM   15  C13 UNL     1      25.525   1.695  51.885  1.00  0.00    -0.009 A 
HETATM   16 BR1  UNL     1      27.325   2.054  52.531  1.00  0.00    -0.122 Br
HETATM   17  C14 UNL     1      26.321   2.562  50.953  1.00  0.00     0.096 A 
HETATM   18  C15 UNL     1      26.618   3.508  49.988  1.00  0.00     0.014 C 
HETATM   19  C16 UNL     1      25.887   4.506  49.088  1.00  0.00     0.049 C 
ENDROOT
BRANCH   1  20
HETATM   20  O1  UNL     1      24.999   6.287  50.573  1.00  0.00    -0.359 OA
HETATM   21  C1  UNL     1      24.530   7.617  50.669  1.00  0.00     0.209 C 
ENDBRANCH   1  20
TORSDOF 1
ENDMDL
MODEL 2
REMARK VINA RESULT:      -6.7      2.396      3.807
REMARK  1 active torsions:
REMARK  status: ('A' for Active; 'I' for Inactive)
REMARK    1  A    between atoms: O1_2  and  C2_3 
ROOT
HETATM    1  C2  UNL     1      25.531   3.743  50.513  1.00  0.00     0.057 C 
HETATM    2  C3  UNL     1      24.410   4.455  50.535  1.00  0.00    -0.011 C 
HETATM    3  C4  UNL     1      23.409   4.896  51.487  1.00  0.00     0.127 C 
HETATM    4  N1  UNL     1      23.299   4.708  52.780  1.00  0.00    -0.254 NA
HETATM    5  C5  UNL     1      24.313   3.930  53.458  1.00  0.00     0.230 C 
HETATM    6  N2  UNL     1      23.845   2.907  52.830  1.00  0.00    -0.240 NA
HETATM    7  C6  UNL     1      24.342   1.553  52.939  1.00  0.00     0.178 C 
HETATM    8  C7  UNL     1      25.703   1.592  53.514  1.00  0.00     0.039 C 
HETATM    9  C8  UNL     1      26.040   2.143  52.309  1.00  0.00    -0.068 C 
HETATM   10  C9  UNL     1      26.567   2.913  51.135  1.00  0.00     0.099 C 
HETATM   11  C10 UNL     1      25.086   1.068  51.777  1.00  0.00     0.102 C 
HETATM   12  O2  UNL     1      23.403   0.721  53.454  1.00  0.00    -0.351 OA
HETATM   13  C11 UNL     1      22.191   1.285  52.967  1.00  0.00     0.200 C 
HETATM   14  C12 UNL     1      22.000   1.042  51.528  1.00  0.00     0.014 C 
HETATM   15  C13 UNL     1      21.882   1.645  50.353  1.00  0.00    -0.009 A 
HETATM   16 BR1  UNL     1      21.595   1.110  48.505  1.00  0.00    -0.122 Br
HETATM   17  C14 UNL     1      22.216   2.729  49.371  1.00  0.00     0.096 A 
HETATM   18  C15 UNL     1      22.814   3.848  48.819  1.00  0.00     0.014 C 
HETATM   19  C16 UNL     1      23.874   4.888  49.186  1.00  0.00     0.049 C 
ENDROOT
BRANCH   1  20
HETATM   20  O1  UNL     1      26.060   3.711  49.186  1.00  0.00    -0.359 OA
HETATM   21  C1  UNL     1      27.271   4.416  49.006  1.00  0.00     0.209 C 
ENDBRANCH   1  20
TORSDOF 1
ENDMDL
MODEL 3
REMARK VINA RESULT:      -6.5      1.889      2.376
REMARK  1 active torsions:
REMARK  status: ('A' for Active; 'I' for Inactive)
REMARK    1  A    between atoms: O1_2  and  C2_3 
ROOT
HETATM    1  C2  UNL     1      21.656   4.182  50.042  1.00  0.00     0.057 C 
HETATM    2  C3  UNL     1      22.418   3.309  49.394  1.00  0.00    -0.011 C 
HETATM    3  C4  UNL     1      22.339   1.956  48.876  1.00  0.00     0.127 C 
HETATM    4  N1  UNL     1      21.364   1.079  48.885  1.00  0.00    -0.254 NA
HETATM    5  C5  UNL     1      20.108   1.443  49.505  1.00  0.00     0.230 C 
HETATM    6  N2  UNL     1      20.735   1.404  50.630  1.00  0.00    -0.240 NA
HETATM    7  C6  UNL     1      20.154   1.674  51.926  1.00  0.00     0.178 C 
HETATM    8  C7  UNL     1      18.888   2.412  51.735  1.00  0.00     0.039 C 
HETATM    9  C8  UNL     1      19.709   3.432  51.343  1.00  0.00    -0.068 C 
HETATM   10  C9  UNL     1      20.423   4.594  50.720  1.00  0.00     0.099 C 
HETATM   11  C10 UNL     1      20.546   2.947  52.531  1.00  0.00     0.102 C 
HETATM   12  O2  UNL     1      20.196   0.580  52.726  1.00  0.00    -0.351 OA
HETATM   13  C11 UNL     1      21.391  -0.066  52.301  1.00  0.00     0.200 C 
HETATM   14  C12 UNL     1      22.600   0.640  52.755  1.00  0.00     0.014 C 
HETATM   15  C13 UNL     1      23.679   1.282  52.331  1.00  0.00    -0.009 A 
HETATM   16 BR1  UNL     1      25.225   2.147  53.137  1.00  0.00    -0.122 Br
HETATM   17  C14 UNL     1      24.405   2.189  51.381  1.00  0.00     0.096 A 
HETATM   18  C15 UNL     1      24.639   3.048  50.322  1.00  0.00     0.014 C 
HETATM   19  C16 UNL     1      23.862   3.716  49.186  1.00  0.00     0.049 C 
ENDROOT
BRANCH   1  20
HETATM   20  O1  UNL     1      22.373   5.403  50.234  1.00  0.00    -0.359 OA
HETATM   21  C1  UNL     1      21.608   6.474  50.748  1.00  0.00     0.209 C 
ENDBRANCH   1  20
TORSDOF 1
ENDMDL
MODEL 4
REMARK VINA RESULT:      -6.3      8.660     10.880
REMARK  1 active torsions:
REMARK  status: ('A' for Active; 'I' for Inactive)
REMARK    1  A    between atoms: O1_2  and  C2_3 
ROOT
HETATM    1  C2  UNL     1      33.350   5.803  44.909  1.00  0.00     0.057 C 
HETATM    2  C3  UNL     1      33.536   7.052  45.324  1.00  0.00    -0.011 C 
HETATM    3  C4  UNL     1      34.021   7.758  46.494  1.00  0.00     0.127 C 
HETATM    4  N1  UNL     1      34.491   7.322  47.638  1.00  0.00    -0.254 NA
HETATM    5  C5  UNL     1      34.572   5.894  47.857  1.00  0.00     0.230 C 
HETATM    6  N2  UNL     1      33.284   5.900  47.892  1.00  0.00    -0.240 NA
HETATM    7  C6  UNL     1      32.443   4.742  48.095  1.00  0.00     0.178 C 
HETATM    8  C7  UNL     1      33.236   3.525  47.818  1.00  0.00     0.039 C 
HETATM    9  C8  UNL     1      33.176   3.956  46.521  1.00  0.00    -0.068 C 
HETATM   10  C9  UNL     1      33.369   4.349  45.087  1.00  0.00     0.099 C 
HETATM   11  C10 UNL     1      31.727   4.277  46.906  1.00  0.00     0.102 C 
HETATM   12  O2  UNL     1      31.723   4.845  49.239  1.00  0.00    -0.351 OA
HETATM   13  C11 UNL     1      31.502   6.247  49.337  1.00  0.00     0.200 C 
HETATM   14  C12 UNL     1      30.514   6.728  48.358  1.00  0.00     0.014 C 
HETATM   15  C13 UNL     1      30.352   7.528  47.314  1.00  0.00    -0.009 A 
HETATM   16 BR1  UNL     1      28.892   8.055  46.140  1.00  0.00    -0.122 Br
HETATM   17  C14 UNL     1      30.824   8.180  46.047  1.00  0.00     0.096 A 
HETATM   18  C15 UNL     1      31.634   8.508  44.974  1.00  0.00     0.014 C 
HETATM   19  C16 UNL     1      33.007   8.139  44.410  1.00  0.00     0.049 C 
ENDROOT
BRANCH   1  20
HETATM   20  O1  UNL     1      32.834   5.807  43.577  1.00  0.00    -0.359 OA
HETATM   21  C1  UNL     1      33.288   4.750  42.755  1.00  0.00     0.209 C 
ENDBRANCH   1  20
TORSDOF 1
ENDMDL
MODEL 5
REMARK VINA RESULT:      -6.3      2.915      4.000
REMARK  1 active torsions:
REMARK  status: ('A' for Active; 'I' for Inactive)
REMARK    1  A    between atoms: O1_2  and  C2_3 
ROOT
HETATM    1  C2  UNL     1      22.051   3.470  51.074  1.00  0.00     0.057 C 
HETATM    2  C3  UNL     1      22.498   2.311  50.605  1.00  0.00    -0.011 C 
HETATM    3  C4  UNL     1      22.128   1.308  49.625  1.00  0.00     0.127 C 
HETATM    4  N1  UNL     1      21.115   1.237  48.795  1.00  0.00    -0.254 NA
HETATM    5  C5  UNL     1      20.144   2.310  48.791  1.00  0.00     0.230 C 
HETATM    6  N2  UNL     1      19.781   1.888  49.953  1.00  0.00    -0.240 NA
HETATM    7  C6  UNL     1      18.735   2.464  50.769  1.00  0.00     0.178 C 
HETATM    8  C7  UNL     1      18.457   3.833  50.286  1.00  0.00     0.039 C 
HETATM    9  C8  UNL     1      19.693   4.111  50.803  1.00  0.00    -0.068 C 
HETATM   10  C9  UNL     1      21.080   4.566  51.145  1.00  0.00     0.099 C 
HETATM   11  C10 UNL     1      19.199   3.209  51.940  1.00  0.00     0.102 C 
HETATM   12  O2  UNL     1      17.720   1.587  50.966  1.00  0.00    -0.351 OA
HETATM   13  C11 UNL     1      18.394   0.334  50.976  1.00  0.00     0.200 C 
HETATM   14  C12 UNL     1      19.168   0.125  52.210  1.00  0.00     0.014 C 
HETATM   15  C13 UNL     1      20.395  -0.054  52.680  1.00  0.00    -0.009 A 
HETATM   16 BR1  UNL     1      21.221  -0.351  54.416  1.00  0.00    -0.122 Br
HETATM   17  C14 UNL     1      21.875   0.195  52.674  1.00  0.00     0.096 A 
HETATM   18  C15 UNL     1      23.107   0.715  52.320  1.00  0.00     0.014 C 
HETATM   19  C16 UNL     1      23.692   1.720  51.327  1.00  0.00     0.049 C 
ENDROOT
BRANCH   1  20
HETATM   20  O1  UNL     1      22.947   3.970  52.068  1.00  0.00    -0.359 OA
HETATM   21  C1  UNL     1      23.352   5.312  51.890  1.00  0.00     0.209 C 
ENDBRANCH   1  20
TORSDOF 1
ENDMDL
MODEL 6
REMARK VINA RESULT:      -6.3      2.284      4.467
REMARK  1 active torsions:
REMARK  status: ('A' for Active; 'I' for Inactive)
REMARK    1  A    between atoms: O1_2  and  C2_3 
ROOT
HETATM    1  C2  UNL     1      21.578   3.410  49.898  1.00  0.00     0.057 C 
HETATM    2  C3  UNL     1      21.165   3.714  51.123  1.00  0.00    -0.011 C 
HETATM    3  C4  UNL     1      21.624   4.456  52.282  1.00  0.00     0.127 C 
HETATM    4  N1  UNL     1      22.721   5.144  52.494  1.00  0.00    -0.254 NA
HETATM    5  C5  UNL     1      23.704   5.228  51.435  1.00  0.00     0.230 C 
HETATM    6  N2  UNL     1      23.930   3.977  51.645  1.00  0.00    -0.240 NA
HETATM    7  C6  UNL     1      24.890   3.165  50.931  1.00  0.00     0.178 C 
HETATM    8  C7  UNL     1      25.241   3.846  49.667  1.00  0.00     0.039 C 
HETATM    9  C8  UNL     1      23.961   3.526  49.307  1.00  0.00    -0.068 C 
HETATM   10  C9  UNL     1      22.552   3.424  48.804  1.00  0.00     0.099 C 
HETATM   11  C10 UNL     1      24.313   2.201  49.993  1.00  0.00     0.102 C 
HETATM   12  O2  UNL     1      25.863   2.706  51.756  1.00  0.00    -0.351 OA
HETATM   13  C11 UNL     1      25.172   2.551  52.990  1.00  0.00     0.200 C 
HETATM   14  C12 UNL     1      24.264   1.393  52.982  1.00  0.00     0.014 C 
HETATM   15  C13 UNL     1      22.991   1.037  53.079  1.00  0.00    -0.009 A 
HETATM   16 BR1  UNL     1      21.974  -0.622  53.068  1.00  0.00    -0.122 Br
HETATM   17  C14 UNL     1      21.524   1.250  52.840  1.00  0.00     0.096 A 
HETATM   18  C15 UNL     1      20.347   1.824  52.395  1.00  0.00     0.014 C 
HETATM   19  C16 UNL     1      19.890   3.036  51.581  1.00  0.00     0.049 C 
ENDROOT
BRANCH   1  20
HETATM   20  O1  UNL     1      20.586   2.624  49.234  1.00  0.00    -0.359 OA
HETATM   21  C1  UNL     1      20.538   2.780  47.830  1.00  0.00     0.209 C 
ENDBRANCH   1  20
TORSDOF 1
ENDMDL
MODEL 7
REMARK VINA RESULT:      -6.1      2.424      4.561
REMARK  1 active torsions:
REMARK  status: ('A' for Active; 'I' for Inactive)
REMARK    1  A    between atoms: O1_2  and  C2_3 
ROOT
HETATM    1  C2  UNL     1      22.732   2.736  51.709  1.00  0.00     0.057 C 
HETATM    2  C3  UNL     1      22.297   3.976  51.903  1.00  0.00    -0.011 C 
HETATM    3  C4  UNL     1      21.166   4.810  51.543  1.00  0.00     0.127 C 
HETATM    4  N1  UNL     1      20.092   4.558  50.834  1.00  0.00    -0.254 NA
HETATM    5  C5  UNL     1      19.927   3.235  50.271  1.00  0.00     0.230 C 
HETATM    6  N2  UNL     1      20.905   3.527  49.485  1.00  0.00    -0.240 NA
HETATM    7  C6  UNL     1      21.460   2.656  48.473  1.00  0.00     0.178 C 
HETATM    8  C7  UNL     1      21.048   1.266  48.765  1.00  0.00     0.039 C 
HETATM    9  C8  UNL     1      21.900   1.390  49.828  1.00  0.00    -0.068 C 
HETATM   10  C9  UNL     1      22.642   1.393  51.131  1.00  0.00     0.099 C 
HETATM   11  C10 UNL     1      22.776   2.097  48.787  1.00  0.00     0.102 C 
HETATM   12  O2  UNL     1      21.297   3.172  47.230  1.00  0.00    -0.351 OA
HETATM   13  C11 UNL     1      21.372   4.573  47.467  1.00  0.00     0.200 C 
HETATM   14  C12 UNL     1      22.744   5.018  47.761  1.00  0.00     0.014 C 
HETATM   15  C13 UNL     1      23.507   5.573  48.692  1.00  0.00    -0.009 A 
HETATM   16 BR1  UNL     1      25.366   6.119  48.866  1.00  0.00    -0.122 Br
HETATM   17  C14 UNL     1      23.921   5.799  50.117  1.00  0.00     0.096 A 
HETATM   18  C15 UNL     1      23.959   5.688  51.496  1.00  0.00     0.014 C 
HETATM   19  C16 UNL     1      23.255   4.912  52.611  1.00  0.00     0.049 C 
ENDROOT
BRANCH   1  20
HETATM   20  O1  UNL     1      23.972   2.545  52.394  1.00  0.00    -0.359 OA
HETATM   21  C1  UNL     1      24.142   1.271  52.981  1.00  0.00     0.209 C 
ENDBRANCH   1  20
TORSDOF 1
ENDMDL
MODEL 8
REMARK VINA RESULT:      -6.1      2.637      4.148
REMARK  1 active torsions:
REMARK  status: ('A' for Active; 'I' for Inactive)
REMARK    1  A    between atoms: O1_2  and  C2_3 
ROOT
HETATM    1  C2  UNL     1      22.371   4.733  51.663  1.00  0.00     0.057 C 
HETATM    2  C3  UNL     1      21.124   4.906  51.240  1.00  0.00    -0.011 C 
HETATM    3  C4  UNL     1      19.825   4.272  51.366  1.00  0.00     0.127 C 
HETATM    4  N1  UNL     1      19.440   3.206  52.024  1.00  0.00    -0.254 NA
HETATM    5  C5  UNL     1      20.423   2.468  52.788  1.00  0.00     0.230 C 
HETATM    6  N2  UNL     1      20.932   2.118  51.657  1.00  0.00    -0.240 NA
HETATM    7  C6  UNL     1      22.091   1.271  51.482  1.00  0.00     0.178 C 
HETATM    8  C7  UNL     1      22.847   1.233  52.751  1.00  0.00     0.039 C 
HETATM    9  C8  UNL     1      23.139   2.534  52.449  1.00  0.00    -0.068 C 
HETATM   10  C9  UNL     1      23.419   4.006  52.383  1.00  0.00     0.099 C 
HETATM   11  C10 UNL     1      23.304   1.960  51.038  1.00  0.00     0.102 C 
HETATM   12  O2  UNL     1      21.773   0.121  50.839  1.00  0.00    -0.351 OA
HETATM   13  C11 UNL     1      20.719   0.533  49.976  1.00  0.00     0.200 C 
HETATM   14  C12 UNL     1      21.206   1.342  48.846  1.00  0.00     0.014 C 
HETATM   15  C13 UNL     1      21.132   2.541  48.286  1.00  0.00    -0.009 A 
HETATM   16 BR1  UNL     1      21.866   3.422  46.714  1.00  0.00    -0.122 Br
HETATM   17  C14 UNL     1      21.017   4.036  48.346  1.00  0.00     0.096 A 
HETATM   18  C15 UNL     1      20.928   5.317  48.862  1.00  0.00     0.014 C 
HETATM   19  C16 UNL     1      20.915   6.011  50.225  1.00  0.00     0.049 C 
ENDROOT
BRANCH   1  20
HETATM   20  O1  UNL     1      23.202   5.784  51.164  1.00  0.00    -0.359 OA
HETATM   21  C1  UNL     1      24.464   5.371  50.682  1.00  0.00     0.209 C 
ENDBRANCH   1  20
TORSDOF 1
ENDMDL
MODEL 9
REMARK VINA RESULT:      -6.1      7.650     10.079
REMARK  1 active torsions:
REMARK  status: ('A' for Active; 'I' for Inactive)
REMARK    1  A    between atoms: O1_2  and  C2_3 
ROOT
HETATM    1  C2  UNL     1      30.531   7.963  49.103  1.00  0.00     0.057 C 
HETATM    2  C3  UNL     1      29.723   7.124  48.465  1.00  0.00    -0.011 C 
HETATM    3  C4  UNL     1      29.765   5.803  47.867  1.00  0.00     0.127 C 
HETATM    4  N1  UNL     1      30.734   4.924  47.770  1.00  0.00    -0.254 NA
HETATM    5  C5  UNL     1      32.027   5.251  48.332  1.00  0.00     0.230 C 
HETATM    6  N2  UNL     1      32.136   6.122  47.388  1.00  0.00    -0.240 NA
HETATM    7  C6  UNL     1      33.265   7.001  47.181  1.00  0.00     0.178 C 
HETATM    8  C7  UNL     1      34.052   7.065  48.430  1.00  0.00     0.039 C 
HETATM    9  C8  UNL     1      32.972   7.756  48.906  1.00  0.00    -0.068 C 
HETATM   10  C9  UNL     1      31.827   8.368  49.655  1.00  0.00     0.099 C 
HETATM   11  C10 UNL     1      33.030   8.406  47.519  1.00  0.00     0.102 C 
HETATM   12  O2  UNL     1      33.877   6.753  45.997  1.00  0.00    -0.351 OA
HETATM   13  C11 UNL     1      32.794   6.335  45.174  1.00  0.00     0.200 C 
HETATM   14  C12 UNL     1      31.920   7.455  44.789  1.00  0.00     0.014 C 
HETATM   15  C13 UNL     1      30.684   7.925  44.894  1.00  0.00    -0.009 A 
HETATM   16 BR1  UNL     1      29.696   9.475  44.258  1.00  0.00    -0.122 Br
HETATM   17  C14 UNL     1      29.400   8.147  45.638  1.00  0.00     0.096 A 
HETATM   18  C15 UNL     1      28.466   8.132  46.659  1.00  0.00     0.014 C 
HETATM   19  C16 UNL     1      28.353   7.662  48.110  1.00  0.00     0.049 C 
ENDROOT
BRANCH   1  20
HETATM   20  O1  UNL     1      29.815   9.149  49.458  1.00  0.00    -0.359 OA
HETATM   21  C1  UNL     1      30.537  10.353  49.305  1.00  0.00     0.209 C 
ENDBRANCH   1  20
TORSDOF 1
ENDMDL
