MODEL 1
REMARK VINA RESULT:      -7.8      0.000      0.000
REMARK  6 active torsions:
REMARK  status: ('A' for Active; 'I' for Inactive)
REMARK    1  A    between atoms: C3_4  and  C4_5 
REMARK    2  A    between atoms: C5_6  and  C6_7 
REMARK    3  A    between atoms: C6_7  and  N2_8 
REMARK    4  A    between atoms: N2_8  and  C7_9 
REMARK    5  A    between atoms: C11_14  and  C12_15 
REMARK       I    between atoms: C12_15  and  N4_17 
REMARK    6  A    between atoms: N4_17  and  C13_18 
ROOT
HETATM    1  C1  UNL     1      22.517   7.371  50.819  1.00  0.00     0.039 C 
HETATM    2  C2  UNL     1      23.619   7.008  50.527  1.00  0.00     0.023 C 
HETATM    3  N1  UNL     1      24.904   6.607  50.186  1.00  0.00    -0.211 NA
HETATM    4  C3  UNL     1      25.196   5.650  49.385  1.00  0.00     0.127 C 
ENDROOT
BRANCH   4   5
HETATM    5  C4  UNL     1      26.500   5.161  48.970  1.00  0.00     0.017 C 
HETATM    6  C5  UNL     1      26.975   3.981  49.354  1.00  0.00    -0.006 C 
BRANCH   6   7
HETATM    7  C6  UNL     1      26.456   2.900  50.197  1.00  0.00     0.148 C 
BRANCH   7   8
HETATM    8  N2  UNL     1      26.412   3.226  51.612  1.00  0.00    -0.371 N 
HETATM    9  H7  UNL     1      26.036   4.170  51.783  1.00  0.00     0.161 HD
BRANCH   8  10
HETATM   10  C7  UNL     1      26.863   2.271  52.557  1.00  0.00     0.139 A 
HETATM   11  N3  UNL     1      28.158   2.275  52.916  1.00  0.00    -0.243 NA
HETATM   12  C8  UNL     1      28.688   1.430  53.809  1.00  0.00     0.119 A 
HETATM   13  C9  UNL     1      27.859   0.500  54.395  1.00  0.00     0.020 A 
HETATM   14  C10 UNL     1      26.525   0.452  54.064  1.00  0.00     0.022 A 
HETATM   15  C11 UNL     1      26.036   1.342  53.142  1.00  0.00     0.077 A 
BRANCH  15  16
HETATM   16  C12 UNL     1      24.627   1.260  52.797  1.00  0.00     0.260 C 
HETATM   17  O1  UNL     1      23.763   2.107  52.466  1.00  0.00    -0.267 OA
HETATM   18  N4  UNL     1      23.921   0.030  52.782  1.00  0.00    -0.323 N 
HETATM   19  H11 UNL     1      24.365  -0.908  53.021  1.00  0.00     0.169 HD
BRANCH  18  20
HETATM   20  C13 UNL     1      22.558   0.309  52.395  1.00  0.00     0.037 A 
HETATM   21  C14 UNL     1      21.680   0.217  53.484  1.00  0.00     0.030 A 
HETATM   22  C15 UNL     1      20.360   0.455  53.248  1.00  0.00     0.012 A 
HETATM   23  C16 UNL     1      19.828   0.775  52.039  1.00  0.00    -0.022 A 
HETATM   24  C17 UNL     1      20.734   0.855  50.988  1.00  0.00     0.037 A 
HETATM   25  C20 UNL     1      18.468   1.077  51.503  1.00  0.00    -0.002 C 
HETATM   26  C18 UNL     1      22.087   0.629  51.141  1.00  0.00     0.059 A 
HETATM   27  N5  UNL     1      19.984   1.200  49.804  1.00  0.00    -0.388 N 
HETATM   28  C19 UNL     1      18.643   0.652  50.065  1.00  0.00     0.133 C 
HETATM   29  H15 UNL     1      20.411   1.731  48.994  1.00  0.00     0.159 HD
HETATM   30  C21 UNL     1      17.478   0.195  52.196  1.00  0.00     0.021 C 
HETATM   31  C22 UNL     1      18.220   2.533  51.665  1.00  0.00     0.021 C 
ENDBRANCH  18  20
ENDBRANCH  15  16
ENDBRANCH   8  10
ENDBRANCH   7   8
ENDBRANCH   6   7
ENDBRANCH   4   5
TORSDOF 6
ENDMDL
MODEL 2
REMARK VINA RESULT:      -7.7      4.138      9.791
REMARK  6 active torsions:
REMARK  status: ('A' for Active; 'I' for Inactive)
REMARK    1  A    between atoms: C3_4  and  C4_5 
REMARK    2  A    between atoms: C5_6  and  C6_7 
REMARK    3  A    between atoms: C6_7  and  N2_8 
REMARK    4  A    between atoms: N2_8  and  C7_9 
REMARK    5  A    between atoms: C11_14  and  C12_15 
REMARK       I    between atoms: C12_15  and  N4_17 
REMARK    6  A    between atoms: N4_17  and  C13_18 
ROOT
HETATM    1  C1  UNL     1      28.150   1.097  53.722  1.00  0.00     0.039 C 
HETATM    2  C2  UNL     1      27.794   1.776  52.803  1.00  0.00     0.023 C 
HETATM    3  N1  UNL     1      27.389   2.581  51.747  1.00  0.00    -0.211 NA
HETATM    4  C3  UNL     1      26.232   2.558  51.195  1.00  0.00     0.127 C 
ENDROOT
BRANCH   4   5
HETATM    5  C4  UNL     1      25.721   3.355  50.093  1.00  0.00     0.017 C 
HETATM    6  C5  UNL     1      24.727   4.225  50.242  1.00  0.00    -0.006 C 
BRANCH   6   7
HETATM    7  C6  UNL     1      23.905   4.646  51.380  1.00  0.00     0.148 C 
BRANCH   7   8
HETATM    8  N2  UNL     1      23.973   6.069  51.662  1.00  0.00    -0.371 N 
HETATM    9  H7  UNL     1      24.575   6.277  52.473  1.00  0.00     0.161 HD
BRANCH   8  10
HETATM   10  C7  UNL     1      23.248   6.972  50.847  1.00  0.00     0.139 A 
HETATM   11  N3  UNL     1      21.922   7.098  51.036  1.00  0.00    -0.243 NA
HETATM   12  C8  UNL     1      21.143   7.930  50.335  1.00  0.00     0.119 A 
HETATM   13  C9  UNL     1      21.732   8.704  49.360  1.00  0.00     0.020 A 
HETATM   14  C10 UNL     1      23.084   8.615  49.124  1.00  0.00     0.022 A 
HETATM   15  C11 UNL     1      23.834   7.744  49.873  1.00  0.00     0.077 A 
BRANCH  15  16
HETATM   16  C12 UNL     1      25.258   7.657  49.593  1.00  0.00     0.260 C 
HETATM   17  O1  UNL     1      26.286   7.680  50.311  1.00  0.00    -0.267 OA
HETATM   18  N4  UNL     1      25.763   7.510  48.277  1.00  0.00    -0.323 N 
HETATM   19  H11 UNL     1      25.147   7.457  47.410  1.00  0.00     0.169 HD
BRANCH  18  20
HETATM   20  C13 UNL     1      27.203   7.451  48.362  1.00  0.00     0.037 A 
HETATM   21  C14 UNL     1      27.680   6.142  48.208  1.00  0.00     0.030 A 
HETATM   22  C15 UNL     1      29.027   5.952  48.273  1.00  0.00     0.012 A 
HETATM   23  C16 UNL     1      29.945   6.933  48.474  1.00  0.00    -0.022 A 
HETATM   24  C17 UNL     1      29.429   8.216  48.621  1.00  0.00     0.037 A 
HETATM   25  C20 UNL     1      31.431   7.015  48.588  1.00  0.00    -0.002 C 
HETATM   26  C18 UNL     1      28.078   8.494  48.569  1.00  0.00     0.059 A 
HETATM   27  N5  UNL     1      30.548   9.104  48.824  1.00  0.00    -0.388 N 
HETATM   28  C19 UNL     1      31.569   8.247  49.449  1.00  0.00     0.133 C 
HETATM   29  H15 UNL     1      30.522  10.125  48.546  1.00  0.00     0.159 HD
HETATM   30  C21 UNL     1      31.918   5.805  49.319  1.00  0.00     0.021 C 
HETATM   31  C22 UNL     1      31.992   7.180  47.221  1.00  0.00     0.021 C 
ENDBRANCH  18  20
ENDBRANCH  15  16
ENDBRANCH   8  10
ENDBRANCH   7   8
ENDBRANCH   6   7
ENDBRANCH   4   5
TORSDOF 6
ENDMDL
MODEL 3
REMARK VINA RESULT:      -7.6      2.457      7.767
REMARK  6 active torsions:
REMARK  status: ('A' for Active; 'I' for Inactive)
REMARK    1  A    between atoms: C3_4  and  C4_5 
REMARK    2  A    between atoms: C5_6  and  C6_7 
REMARK    3  A    between atoms: C6_7  and  N2_8 
REMARK    4  A    between atoms: N2_8  and  C7_9 
REMARK    5  A    between atoms: C11_14  and  C12_15 
REMARK       I    between atoms: C12_15  and  N4_17 
REMARK    6  A    between atoms: N4_17  and  C13_18 
ROOT
HETATM    1  C1  UNL     1      27.118   5.106  48.701  1.00  0.00     0.039 C 
HETATM    2  C2  UNL     1      26.938   4.077  49.285  1.00  0.00     0.023 C 
HETATM    3  N1  UNL     1      26.712   2.880  49.950  1.00  0.00    -0.211 NA
HETATM    4  C3  UNL     1      26.722   2.722  51.223  1.00  0.00     0.127 C 
ENDROOT
BRANCH   4   5
HETATM    5  C4  UNL     1      26.499   1.517  52.003  1.00  0.00     0.017 C 
HETATM    6  C5  UNL     1      25.295   0.973  52.148  1.00  0.00    -0.006 C 
BRANCH   6   7
HETATM    7  C6  UNL     1      23.957   1.318  51.660  1.00  0.00     0.148 C 
BRANCH   7   8
HETATM    8  N2  UNL     1      23.380   2.489  52.297  1.00  0.00    -0.371 N 
HETATM    9  H7  UNL     1      24.075   3.016  52.847  1.00  0.00     0.161 HD
BRANCH   8  10
HETATM   10  C7  UNL     1      22.004   2.771  52.111  1.00  0.00     0.139 A 
HETATM   11  N3  UNL     1      21.094   1.882  52.547  1.00  0.00    -0.243 NA
HETATM   12  C8  UNL     1      19.772   2.053  52.438  1.00  0.00     0.119 A 
HETATM   13  C9  UNL     1      19.312   3.207  51.842  1.00  0.00     0.020 A 
HETATM   14  C10 UNL     1      20.200   4.149  51.377  1.00  0.00     0.022 A 
HETATM   15  C11 UNL     1      21.546   3.921  51.516  1.00  0.00     0.077 A 
BRANCH  15  16
HETATM   16  C12 UNL     1      22.463   4.925  51.002  1.00  0.00     0.260 C 
HETATM   17  O1  UNL     1      23.550   4.870  50.380  1.00  0.00    -0.267 OA
HETATM   18  N4  UNL     1      22.225   6.314  51.151  1.00  0.00    -0.323 N 
HETATM   19  H11 UNL     1      21.372   6.719  51.645  1.00  0.00     0.169 HD
BRANCH  18  20
HETATM   20  C13 UNL     1      23.321   7.018  50.527  1.00  0.00     0.037 A 
HETATM   21  C14 UNL     1      23.011   7.402  49.214  1.00  0.00     0.030 A 
HETATM   22  C15 UNL     1      23.967   8.072  48.514  1.00  0.00     0.012 A 
HETATM   23  C16 UNL     1      25.197   8.399  48.989  1.00  0.00    -0.022 A 
HETATM   24  C17 UNL     1      25.462   8.000  50.293  1.00  0.00     0.037 A 
HETATM   25  C20 UNL     1      26.405   9.103  48.464  1.00  0.00    -0.002 C 
HETATM   26  C18 UNL     1      24.550   7.318  51.071  1.00  0.00     0.059 A 
HETATM   27  N5  UNL     1      26.802   8.434  50.608  1.00  0.00    -0.388 N 
HETATM   28  C19 UNL     1      27.481   8.455  49.301  1.00  0.00     0.133 C 
HETATM   29  H15 UNL     1      27.112   8.657  51.595  1.00  0.00     0.159 HD
HETATM   30  C21 UNL     1      26.574   8.747  47.022  1.00  0.00     0.021 C 
HETATM   31  C22 UNL     1      26.243  10.558  48.728  1.00  0.00     0.021 C 
ENDBRANCH  18  20
ENDBRANCH  15  16
ENDBRANCH   8  10
ENDBRANCH   7   8
ENDBRANCH   6   7
ENDBRANCH   4   5
TORSDOF 6
ENDMDL
MODEL 4
REMARK VINA RESULT:      -7.3      2.150      7.636
REMARK  6 active torsions:
REMARK  status: ('A' for Active; 'I' for Inactive)
REMARK    1  A    between atoms: C3_4  and  C4_5 
REMARK    2  A    between atoms: C5_6  and  C6_7 
REMARK    3  A    between atoms: C6_7  and  N2_8 
REMARK    4  A    between atoms: N2_8  and  C7_9 
REMARK    5  A    between atoms: C11_14  and  C12_15 
REMARK       I    between atoms: C12_15  and  N4_17 
REMARK    6  A    between atoms: N4_17  and  C13_18 
ROOT
HETATM    1  C1  UNL     1      21.809  -1.731  54.515  1.00  0.00     0.039 C 
HETATM    2  C2  UNL     1      21.152  -0.884  53.983  1.00  0.00     0.023 C 
HETATM    3  N1  UNL     1      20.382   0.083  53.351  1.00  0.00    -0.211 NA
HETATM    4  C3  UNL     1      20.780   1.261  53.036  1.00  0.00     0.127 C 
ENDROOT
BRANCH   4   5
HETATM    5  C4  UNL     1      20.052   2.334  52.380  1.00  0.00     0.017 C 
HETATM    6  C5  UNL     1      19.858   2.364  51.065  1.00  0.00    -0.006 C 
BRANCH   6   7
HETATM    7  C6  UNL     1      20.235   1.479  49.960  1.00  0.00     0.148 C 
BRANCH   7   8
HETATM    8  N2  UNL     1      21.327   1.983  49.147  1.00  0.00    -0.371 N 
HETATM    9  H7  UNL     1      21.869   1.224  48.708  1.00  0.00     0.161 HD
BRANCH   8  10
HETATM   10  C7  UNL     1      21.527   3.382  49.046  1.00  0.00     0.139 A 
HETATM   11  N3  UNL     1      20.683   4.106  48.290  1.00  0.00    -0.243 NA
HETATM   12  C8  UNL     1      20.768   5.432  48.137  1.00  0.00     0.119 A 
HETATM   13  C9  UNL     1      21.781   6.099  48.791  1.00  0.00     0.020 A 
HETATM   14  C10 UNL     1      22.672   5.407  49.578  1.00  0.00     0.022 A 
HETATM   15  C11 UNL     1      22.537   4.047  49.699  1.00  0.00     0.077 A 
BRANCH  15  16
HETATM   16  C12 UNL     1      23.501   3.338  50.523  1.00  0.00     0.260 C 
HETATM   17  O1  UNL     1      23.584   2.158  50.941  1.00  0.00    -0.267 OA
HETATM   18  N4  UNL     1      24.656   3.969  51.050  1.00  0.00    -0.323 N 
HETATM   19  H11 UNL     1      24.896   4.993  50.886  1.00  0.00     0.169 HD
BRANCH  18  20
HETATM   20  C13 UNL     1      25.389   2.983  51.809  1.00  0.00     0.037 A 
HETATM   21  C14 UNL     1      26.286   2.268  51.002  1.00  0.00     0.030 A 
HETATM   22  C15 UNL     1      27.037   1.303  51.601  1.00  0.00     0.012 A 
HETATM   23  C16 UNL     1      26.985   0.980  52.920  1.00  0.00    -0.022 A 
HETATM   24  C17 UNL     1      26.083   1.713  53.682  1.00  0.00     0.037 A 
HETATM   25  C20 UNL     1      27.665   0.001  53.819  1.00  0.00    -0.002 C 
HETATM   26  C18 UNL     1      25.286   2.707  53.154  1.00  0.00     0.059 A 
HETATM   27  N5  UNL     1      26.175   1.225  55.037  1.00  0.00    -0.388 N 
HETATM   28  C19 UNL     1      26.605  -0.175  54.880  1.00  0.00     0.133 C 
HETATM   29  H15 UNL     1      25.958   1.832  55.877  1.00  0.00     0.159 HD
HETATM   30  C21 UNL     1      27.870  -1.274  53.065  1.00  0.00     0.021 C 
HETATM   31  C22 UNL     1      28.913   0.628  54.327  1.00  0.00     0.021 C 
ENDBRANCH  18  20
ENDBRANCH  15  16
ENDBRANCH   8  10
ENDBRANCH   7   8
ENDBRANCH   6   7
ENDBRANCH   4   5
TORSDOF 6
ENDMDL
MODEL 5
REMARK VINA RESULT:      -7.3      2.481      6.785
REMARK  6 active torsions:
REMARK  status: ('A' for Active; 'I' for Inactive)
REMARK    1  A    between atoms: C3_4  and  C4_5 
REMARK    2  A    between atoms: C5_6  and  C6_7 
REMARK    3  A    between atoms: C6_7  and  N2_8 
REMARK    4  A    between atoms: N2_8  and  C7_9 
REMARK    5  A    between atoms: C11_14  and  C12_15 
REMARK       I    between atoms: C12_15  and  N4_17 
REMARK    6  A    between atoms: N4_17  and  C13_18 
ROOT
HETATM    1  C1  UNL     1      18.712   5.650  46.901  1.00  0.00     0.039 C 
HETATM    2  C2  UNL     1      19.534   4.823  47.172  1.00  0.00     0.023 C 
HETATM    3  N1  UNL     1      20.497   3.867  47.466  1.00  0.00    -0.211 NA
HETATM    4  C3  UNL     1      20.269   2.722  47.997  1.00  0.00     0.127 C 
ENDROOT
BRANCH   4   5
HETATM    5  C4  UNL     1      21.204   1.664  48.340  1.00  0.00     0.017 C 
HETATM    6  C5  UNL     1      21.242   1.108  49.546  1.00  0.00    -0.006 C 
BRANCH   6   7
HETATM    7  C6  UNL     1      20.484   1.311  50.784  1.00  0.00     0.148 C 
BRANCH   7   8
HETATM    8  N2  UNL     1      21.260   1.901  51.861  1.00  0.00    -0.371 N 
HETATM    9  H7  UNL     1      21.048   2.901  51.991  1.00  0.00     0.161 HD
BRANCH   8  10
HETATM   10  C7  UNL     1      22.175   1.092  52.579  1.00  0.00     0.139 A 
HETATM   11  N3  UNL     1      21.698   0.097  53.347  1.00  0.00    -0.243 NA
HETATM   12  C8  UNL     1      22.470  -0.736  54.055  1.00  0.00     0.119 A 
HETATM   13  C9  UNL     1      23.835  -0.566  53.995  1.00  0.00     0.020 A 
HETATM   14  C10 UNL     1      24.377   0.437  53.224  1.00  0.00     0.022 A 
HETATM   15  C11 UNL     1      23.537   1.262  52.520  1.00  0.00     0.077 A 
BRANCH  15  16
HETATM   16  C12 UNL     1      24.134   2.323  51.726  1.00  0.00     0.260 C 
HETATM   17  O1  UNL     1      24.519   3.488  51.984  1.00  0.00    -0.267 OA
HETATM   18  N4  UNL     1      24.406   2.172  50.343  1.00  0.00    -0.323 N 
HETATM   19  H11 UNL     1      24.195   1.285  49.793  1.00  0.00     0.169 HD
BRANCH  18  20
HETATM   20  C13 UNL     1      24.997   3.403  49.873  1.00  0.00     0.037 A 
HETATM   21  C14 UNL     1      24.021   4.342  49.509  1.00  0.00     0.030 A 
HETATM   22  C15 UNL     1      24.451   5.547  49.044  1.00  0.00     0.012 A 
HETATM   23  C16 UNL     1      25.753   5.911  48.907  1.00  0.00    -0.022 A 
HETATM   24  C17 UNL     1      26.687   4.951  49.280  1.00  0.00     0.037 A 
HETATM   25  C20 UNL     1      26.492   7.121  48.439  1.00  0.00    -0.002 C 
HETATM   26  C18 UNL     1      26.335   3.706  49.760  1.00  0.00     0.059 A 
HETATM   27  N5  UNL     1      27.995   5.521  49.062  1.00  0.00    -0.388 N 
HETATM   28  C19 UNL     1      27.780   6.487  47.971  1.00  0.00     0.133 C 
HETATM   29  H15 UNL     1      28.844   5.230  49.623  1.00  0.00     0.159 HD
HETATM   30  C21 UNL     1      25.749   7.716  47.286  1.00  0.00     0.021 C 
HETATM   31  C22 UNL     1      26.668   8.033  49.600  1.00  0.00     0.021 C 
ENDBRANCH  18  20
ENDBRANCH  15  16
ENDBRANCH   8  10
ENDBRANCH   7   8
ENDBRANCH   6   7
ENDBRANCH   4   5
TORSDOF 6
ENDMDL
MODEL 6
REMARK VINA RESULT:      -7.2      6.521     11.583
REMARK  6 active torsions:
REMARK  status: ('A' for Active; 'I' for Inactive)
REMARK    1  A    between atoms: C3_4  and  C4_5 
REMARK    2  A    between atoms: C5_6  and  C6_7 
REMARK    3  A    between atoms: C6_7  and  N2_8 
REMARK    4  A    between atoms: N2_8  and  C7_9 
REMARK    5  A    between atoms: C11_14  and  C12_15 
REMARK       I    between atoms: C12_15  and  N4_17 
REMARK    6  A    between atoms: N4_17  and  C13_18 
ROOT
HETATM    1  C1  UNL     1      23.361   7.120  51.145  1.00  0.00     0.039 C 
HETATM    2  C2  UNL     1      24.451   7.028  50.659  1.00  0.00     0.023 C 
HETATM    3  N1  UNL     1      25.721   6.941  50.106  1.00  0.00    -0.211 NA
HETATM    4  C3  UNL     1      25.981   6.703  48.873  1.00  0.00     0.127 C 
ENDROOT
BRANCH   4   5
HETATM    5  C4  UNL     1      27.268   6.593  48.207  1.00  0.00     0.017 C 
HETATM    6  C5  UNL     1      27.814   7.603  47.539  1.00  0.00    -0.006 C 
BRANCH   6   7
HETATM    7  C6  UNL     1      27.403   8.982  47.263  1.00  0.00     0.148 C 
BRANCH   7   8
HETATM    8  N2  UNL     1      28.473   9.828  46.762  1.00  0.00    -0.371 N 
HETATM    9  H7  UNL     1      28.672   9.654  45.765  1.00  0.00     0.161 HD
BRANCH   8  10
HETATM   10  C7  UNL     1      29.097  10.748  47.639  1.00  0.00     0.139 A 
HETATM   11  N3  UNL     1      28.530  11.952  47.829  1.00  0.00    -0.243 NA
HETATM   12  C8  UNL     1      29.024  12.890  48.645  1.00  0.00     0.119 A 
HETATM   13  C9  UNL     1      30.184  12.608  49.332  1.00  0.00     0.020 A 
HETATM   14  C10 UNL     1      30.806  11.392  49.175  1.00  0.00     0.022 A 
HETATM   15  C11 UNL     1      30.255  10.468  48.325  1.00  0.00     0.077 A 
BRANCH  15  16
HETATM   16  C12 UNL     1      30.940   9.196  48.164  1.00  0.00     0.260 C 
HETATM   17  O1  UNL     1      31.383   8.568  47.173  1.00  0.00    -0.267 OA
HETATM   18  N4  UNL     1      31.253   8.360  49.266  1.00  0.00    -0.323 N 
HETATM   19  H11 UNL     1      31.010   8.598  50.275  1.00  0.00     0.169 HD
BRANCH  18  20
HETATM   20  C13 UNL     1      31.930   7.192  48.754  1.00  0.00     0.037 A 
HETATM   21  C14 UNL     1      31.043   6.128  48.542  1.00  0.00     0.030 A 
HETATM   22  C15 UNL     1      31.562   4.964  48.063  1.00  0.00     0.012 A 
HETATM   23  C16 UNL     1      32.873   4.754  47.774  1.00  0.00    -0.022 A 
HETATM   24  C17 UNL     1      33.717   5.835  47.998  1.00  0.00     0.037 A 
HETATM   25  C20 UNL     1      33.696   3.621  47.256  1.00  0.00    -0.002 C 
HETATM   26  C18 UNL     1      33.273   7.049  48.482  1.00  0.00     0.059 A 
HETATM   27  N5  UNL     1      35.050   5.418  47.636  1.00  0.00    -0.388 N 
HETATM   28  C19 UNL     1      35.037   3.962  47.862  1.00  0.00     0.133 C 
HETATM   29  H15 UNL     1      35.788   6.097  47.298  1.00  0.00     0.159 HD
HETATM   30  C21 UNL     1      33.167   2.347  47.832  1.00  0.00     0.021 C 
HETATM   31  C22 UNL     1      33.685   3.682  45.771  1.00  0.00     0.021 C 
ENDBRANCH  18  20
ENDBRANCH  15  16
ENDBRANCH   8  10
ENDBRANCH   7   8
ENDBRANCH   6   7
ENDBRANCH   4   5
TORSDOF 6
ENDMDL
MODEL 7
REMARK VINA RESULT:      -7.2      2.725      7.380
REMARK  6 active torsions:
REMARK  status: ('A' for Active; 'I' for Inactive)
REMARK    1  A    between atoms: C3_4  and  C4_5 
REMARK    2  A    between atoms: C5_6  and  C6_7 
REMARK    3  A    between atoms: C6_7  and  N2_8 
REMARK    4  A    between atoms: N2_8  and  C7_9 
REMARK    5  A    between atoms: C11_14  and  C12_15 
REMARK       I    between atoms: C12_15  and  N4_17 
REMARK    6  A    between atoms: N4_17  and  C13_18 
ROOT
HETATM    1  C1  UNL     1      18.594   3.937  44.452  1.00  0.00     0.039 C 
HETATM    2  C2  UNL     1      19.095   3.617  45.490  1.00  0.00     0.023 C 
HETATM    3  N1  UNL     1      19.658   3.233  46.700  1.00  0.00    -0.211 NA
HETATM    4  C3  UNL     1      20.204   4.023  47.550  1.00  0.00     0.127 C 
ENDROOT
BRANCH   4   5
HETATM    5  C4  UNL     1      20.816   3.716  48.832  1.00  0.00     0.017 C 
HETATM    6  C5  UNL     1      20.183   3.032  49.779  1.00  0.00    -0.006 C 
BRANCH   6   7
HETATM    7  C6  UNL     1      18.853   2.426  49.880  1.00  0.00     0.148 C 
BRANCH   7   8
HETATM    8  N2  UNL     1      18.859   0.975  49.807  1.00  0.00    -0.371 N 
HETATM    9  H7  UNL     1      19.401   0.628  49.001  1.00  0.00     0.161 HD
BRANCH   8  10
HETATM   10  C7  UNL     1      18.162   0.229  50.789  1.00  0.00     0.139 A 
HETATM   11  N3  UNL     1      16.857  -0.033  50.600  1.00  0.00    -0.243 NA
HETATM   12  C8  UNL     1      16.107  -0.740  51.453  1.00  0.00     0.119 A 
HETATM   13  C9  UNL     1      16.705  -1.228  52.595  1.00  0.00     0.020 A 
HETATM   14  C10 UNL     1      18.037  -0.989  52.837  1.00  0.00     0.022 A 
HETATM   15  C11 UNL     1      18.758  -0.258  51.928  1.00  0.00     0.077 A 
BRANCH  15  16
HETATM   16  C12 UNL     1      20.160  -0.005  52.215  1.00  0.00     0.260 C 
HETATM   17  O1  UNL     1      21.217  -0.127  51.552  1.00  0.00    -0.267 OA
HETATM   18  N4  UNL     1      20.599   0.488  53.470  1.00  0.00    -0.323 N 
HETATM   19  H11 UNL     1      19.944   0.703  54.282  1.00  0.00     0.169 HD
BRANCH  18  20
HETATM   20  C13 UNL     1      22.035   0.627  53.411  1.00  0.00     0.037 A 
HETATM   21  C14 UNL     1      22.688  -0.533  53.852  1.00  0.00     0.030 A 
HETATM   22  C15 UNL     1      24.049  -0.527  53.848  1.00  0.00     0.012 A 
HETATM   23  C16 UNL     1      24.824   0.516  53.450  1.00  0.00    -0.022 A 
HETATM   24  C17 UNL     1      24.136   1.645  53.021  1.00  0.00     0.037 A 
HETATM   25  C20 UNL     1      26.287   0.796  53.344  1.00  0.00    -0.002 C 
HETATM   26  C18 UNL     1      22.759   1.721  52.993  1.00  0.00     0.059 A 
HETATM   27  N5  UNL     1      25.123   2.629  52.647  1.00  0.00    -0.388 N 
HETATM   28  C19 UNL     1      26.287   2.299  53.487  1.00  0.00     0.133 C 
HETATM   29  H15 UNL     1      24.937   3.374  51.918  1.00  0.00     0.159 HD
HETATM   30  C21 UNL     1      26.978   0.157  54.506  1.00  0.00     0.021 C 
HETATM   31  C22 UNL     1      26.753   0.327  52.012  1.00  0.00     0.021 C 
ENDBRANCH  18  20
ENDBRANCH  15  16
ENDBRANCH   8  10
ENDBRANCH   7   8
ENDBRANCH   6   7
ENDBRANCH   4   5
TORSDOF 6
ENDMDL
MODEL 8
REMARK VINA RESULT:      -7.2      3.221      6.498
REMARK  6 active torsions:
REMARK  status: ('A' for Active; 'I' for Inactive)
REMARK    1  A    between atoms: C3_4  and  C4_5 
REMARK    2  A    between atoms: C5_6  and  C6_7 
REMARK    3  A    between atoms: C6_7  and  N2_8 
REMARK    4  A    between atoms: N2_8  and  C7_9 
REMARK    5  A    between atoms: C11_14  and  C12_15 
REMARK       I    between atoms: C12_15  and  N4_17 
REMARK    6  A    between atoms: N4_17  and  C13_18 
ROOT
HETATM    1  C1  UNL     1      24.992   8.368  44.643  1.00  0.00     0.039 C 
HETATM    2  C2  UNL     1      25.548   8.478  45.697  1.00  0.00     0.023 C 
HETATM    3  N1  UNL     1      26.190   8.584  46.923  1.00  0.00    -0.211 NA
HETATM    4  C3  UNL     1      25.959   9.483  47.808  1.00  0.00     0.127 C 
ENDROOT
BRANCH   4   5
HETATM    5  C4  UNL     1      26.576   9.673  49.110  1.00  0.00     0.017 C 
HETATM    6  C5  UNL     1      26.548   8.741  50.056  1.00  0.00    -0.006 C 
BRANCH   6   7
HETATM    7  C6  UNL     1      25.983   7.391  50.139  1.00  0.00     0.148 C 
BRANCH   7   8
HETATM    8  N2  UNL     1      24.983   7.233  51.180  1.00  0.00    -0.371 N 
HETATM    9  H7  UNL     1      25.394   7.268  52.125  1.00  0.00     0.161 HD
BRANCH   8  10
HETATM   10  C7  UNL     1      23.626   7.057  50.814  1.00  0.00     0.139 A 
HETATM   11  N3  UNL     1      22.931   8.117  50.364  1.00  0.00    -0.243 NA
HETATM   12  C8  UNL     1      21.651   8.061  49.977  1.00  0.00     0.119 A 
HETATM   13  C9  UNL     1      21.004   6.847  50.045  1.00  0.00     0.020 A 
HETATM   14  C10 UNL     1      21.667   5.731  50.499  1.00  0.00     0.022 A 
HETATM   15  C11 UNL     1      22.979   5.846  50.882  1.00  0.00     0.077 A 
BRANCH  15  16
HETATM   16  C12 UNL     1      23.652   4.655  51.373  1.00  0.00     0.260 C 
HETATM   17  O1  UNL     1      24.007   4.266  52.511  1.00  0.00    -0.267 OA
HETATM   18  N4  UNL     1      24.064   3.609  50.510  1.00  0.00    -0.323 N 
HETATM   19  H11 UNL     1      23.915   3.620  49.455  1.00  0.00     0.169 HD
BRANCH  18  20
HETATM   20  C13 UNL     1      24.688   2.589  51.320  1.00  0.00     0.037 A 
HETATM   21  C14 UNL     1      26.086   2.627  51.216  1.00  0.00     0.030 A 
HETATM   22  C15 UNL     1      26.793   1.710  51.933  1.00  0.00     0.012 A 
HETATM   23  C16 UNL     1      26.249   0.762  52.740  1.00  0.00    -0.022 A 
HETATM   24  C17 UNL     1      24.862   0.761  52.814  1.00  0.00     0.037 A 
HETATM   25  C20 UNL     1      26.761  -0.336  53.613  1.00  0.00    -0.002 C 
HETATM   26  C18 UNL     1      24.071   1.655  52.121  1.00  0.00     0.059 A 
HETATM   27  N5  UNL     1      24.483  -0.306  53.709  1.00  0.00    -0.388 N 
HETATM   28  C19 UNL     1      25.582  -1.278  53.583  1.00  0.00     0.133 C 
HETATM   29  H15 UNL     1      23.590  -0.283  54.277  1.00  0.00     0.159 HD
HETATM   30  C21 UNL     1      27.948  -0.958  52.948  1.00  0.00     0.021 C 
HETATM   31  C22 UNL     1      27.033   0.232  54.960  1.00  0.00     0.021 C 
ENDBRANCH  18  20
ENDBRANCH  15  16
ENDBRANCH   8  10
ENDBRANCH   7   8
ENDBRANCH   6   7
ENDBRANCH   4   5
TORSDOF 6
ENDMDL
MODEL 9
REMARK VINA RESULT:      -7.1      2.155      5.620
REMARK  6 active torsions:
REMARK  status: ('A' for Active; 'I' for Inactive)
REMARK    1  A    between atoms: C3_4  and  C4_5 
REMARK    2  A    between atoms: C5_6  and  C6_7 
REMARK    3  A    between atoms: C6_7  and  N2_8 
REMARK    4  A    between atoms: N2_8  and  C7_9 
REMARK    5  A    between atoms: C11_14  and  C12_15 
REMARK       I    between atoms: C12_15  and  N4_17 
REMARK    6  A    between atoms: N4_17  and  C13_18 
ROOT
HETATM    1  C1  UNL     1      26.846   1.211  52.762  1.00  0.00     0.039 C 
HETATM    2  C2  UNL     1      26.995   2.047  51.918  1.00  0.00     0.023 C 
HETATM    3  N1  UNL     1      27.177   3.030  50.955  1.00  0.00    -0.211 NA
HETATM    4  C3  UNL     1      26.296   3.407  50.103  1.00  0.00     0.127 C 
ENDROOT
BRANCH   4   5
HETATM    5  C4  UNL     1      26.394   4.419  49.064  1.00  0.00     0.017 C 
HETATM    6  C5  UNL     1      25.862   5.629  49.195  1.00  0.00    -0.006 C 
BRANCH   6   7
HETATM    7  C6  UNL     1      25.102   6.298  50.255  1.00  0.00     0.148 C 
BRANCH   7   8
HETATM    8  N2  UNL     1      23.733   6.617  49.888  1.00  0.00    -0.371 N 
HETATM    9  H7  UNL     1      23.202   7.019  50.674  1.00  0.00     0.161 HD
BRANCH   8  10
HETATM   10  C7  UNL     1      23.292   6.358  48.566  1.00  0.00     0.139 A 
HETATM   11  N3  UNL     1      23.442   7.314  47.633  1.00  0.00    -0.243 NA
HETATM   12  C8  UNL     1      23.076   7.172  46.353  1.00  0.00     0.119 A 
HETATM   13  C9  UNL     1      22.512   5.976  45.968  1.00  0.00     0.020 A 
HETATM   14  C10 UNL     1      22.336   4.964  46.882  1.00  0.00     0.022 A 
HETATM   15  C11 UNL     1      22.729   5.166  48.181  1.00  0.00     0.077 A 
BRANCH  15  16
HETATM   16  C12 UNL     1      22.517   4.087  49.131  1.00  0.00     0.260 C 
HETATM   17  O1  UNL     1      22.037   4.031  50.288  1.00  0.00    -0.267 OA
HETATM   18  N4  UNL     1      22.875   2.745  48.845  1.00  0.00    -0.323 N 
HETATM   19  H11 UNL     1      23.321   2.435  47.929  1.00  0.00     0.169 HD
BRANCH  18  20
HETATM   20  C13 UNL     1      22.525   1.942  49.993  1.00  0.00     0.037 A 
HETATM   21  C14 UNL     1      21.426   1.111  49.731  1.00  0.00     0.030 A 
HETATM   22  C15 UNL     1      20.995   0.304  50.739  1.00  0.00     0.012 A 
HETATM   23  C16 UNL     1      21.546   0.240  51.979  1.00  0.00    -0.022 A 
HETATM   24  C17 UNL     1      22.633   1.080  52.196  1.00  0.00     0.037 A 
HETATM   25  C20 UNL     1      21.290  -0.522  53.237  1.00  0.00    -0.002 C 
HETATM   26  C18 UNL     1      23.133   1.928  51.229  1.00  0.00     0.059 A 
HETATM   27  N5  UNL     1      23.071   0.868  53.555  1.00  0.00    -0.388 N 
HETATM   28  C19 UNL     1      21.848   0.443  54.256  1.00  0.00     0.133 C 
HETATM   29  H15 UNL     1      24.073   1.018  53.860  1.00  0.00     0.159 HD
HETATM   30  C21 UNL     1      19.813  -0.673  53.408  1.00  0.00     0.021 C 
HETATM   31  C22 UNL     1      22.039  -1.804  53.162  1.00  0.00     0.021 C 
ENDBRANCH  18  20
ENDBRANCH  15  16
ENDBRANCH   8  10
ENDBRANCH   7   8
ENDBRANCH   6   7
ENDBRANCH   4   5
TORSDOF 6
ENDMDL
