MODEL 1
REMARK VINA RESULT:      -7.5      0.000      0.000
REMARK  7 active torsions:
REMARK  status: ('A' for Active; 'I' for Inactive)
REMARK    1  A    between atoms: O1_2  and  C2_3 
REMARK    2  A    between atoms: C2_3  and  C3_4 
REMARK    3  A    between atoms: C4_5  and  C5_6 
REMARK    4  A    between atoms: C6_8  and  N1_9 
REMARK    5  A    between atoms: C10_15  and  C11_16 
REMARK    6  A    between atoms: C12_17  and  C13_18 
REMARK    7  A    between atoms: C13_18  and  O2_19 
ROOT
HETATM    1  N1  UNL     1      23.531   0.165  53.627  1.00  0.00    -0.239 N 
HETATM    2  N2  UNL     1      23.831  -0.661  54.738  1.00  0.00    -0.161 NA
HETATM    3  C7  UNL     1      22.887  -1.424  55.232  1.00  0.00     0.256 A 
HETATM    4  N3  UNL     1      21.521  -1.553  54.788  1.00  0.00    -0.237 NA
HETATM    5  C8  UNL     1      21.217  -0.813  53.779  1.00  0.00     0.094 A 
HETATM    6  C9  UNL     1      19.823  -0.915  53.289  1.00  0.00    -0.025 C 
HETATM    7  C10 UNL     1      19.213  -1.976  53.832  1.00  0.00     0.009 C 
HETATM    8  C14 UNL     1      18.939  -0.183  52.384  1.00  0.00     0.060 C 
HETATM    9  C15 UNL     1      19.445   1.105  51.846  1.00  0.00     0.123 C 
HETATM   10  N4  UNL     1      20.804   1.086  51.349  1.00  0.00    -0.397 N 
HETATM   11  C16 UNL     1      22.035   0.915  52.086  1.00  0.00     0.117 C 
HETATM   12  C17 UNL     1      22.199   0.090  53.136  1.00  0.00     0.102 A 
HETATM   13  H20 UNL     1      20.992   1.216  50.309  1.00  0.00     0.158 HD
ENDROOT
BRANCH   1  14
HETATM   14  C6  UNL     1      24.509   1.012  53.049  1.00  0.00     0.138 C 
HETATM   15  C5  UNL     1      25.609   0.535  52.489  1.00  0.00     0.028 C 
HETATM   16 BR1  UNL     1      26.656   1.956  51.836  1.00  0.00    -0.050 Br
BRANCH  15  17
HETATM   17  C4  UNL     1      25.812  -0.897  52.471  1.00  0.00     0.018 C 
HETATM   18  C3  UNL     1      26.932  -1.503  52.815  1.00  0.00     0.000 C 
BRANCH  18  19
HETATM   19  C2  UNL     1      28.281  -1.152  53.296  1.00  0.00     0.194 C 
BRANCH  19  20
HETATM   20  O1  UNL     1      28.227  -0.592  54.582  1.00  0.00    -0.392 OA
HETATM   21  C1  UNL     1      29.004   0.575  54.493  1.00  0.00     0.201 C 
ENDBRANCH  19  20
ENDBRANCH  18  19
ENDBRANCH  15  17
ENDBRANCH   1  14
BRANCH   7  22
HETATM   22  C11 UNL     1      17.840  -2.409  53.596  1.00  0.00    -0.001 C 
HETATM   23  C12 UNL     1      17.369  -3.661  53.516  1.00  0.00    -0.001 C 
BRANCH  23  24
HETATM   24  C13 UNL     1      15.929  -3.919  53.269  1.00  0.00     0.191 C 
BRANCH  24  25
HETATM   25  O2  UNL     1      15.248  -2.739  53.004  1.00  0.00    -0.397 OA
HETATM   26  H15 UNL     1      15.368  -2.559  52.031  1.00  0.00     0.209 HD
ENDBRANCH  24  25
ENDBRANCH  23  24
ENDBRANCH   7  22
TORSDOF 7
ENDMDL
MODEL 2
REMARK VINA RESULT:      -7.2      2.413      7.898
REMARK  7 active torsions:
REMARK  status: ('A' for Active; 'I' for Inactive)
REMARK    1  A    between atoms: O1_2  and  C2_3 
REMARK    2  A    between atoms: C2_3  and  C3_4 
REMARK    3  A    between atoms: C4_5  and  C5_6 
REMARK    4  A    between atoms: C6_8  and  N1_9 
REMARK    5  A    between atoms: C10_15  and  C11_16 
REMARK    6  A    between atoms: C12_17  and  C13_18 
REMARK    7  A    between atoms: C13_18  and  O2_19 
ROOT
HETATM    1  N1  UNL     1      21.109   1.226  53.009  1.00  0.00    -0.239 N 
HETATM    2  N2  UNL     1      20.790   0.039  53.713  1.00  0.00    -0.161 NA
HETATM    3  C7  UNL     1      21.752  -0.804  54.002  1.00  0.00     0.256 A 
HETATM    4  N3  UNL     1      23.156  -0.693  53.694  1.00  0.00    -0.237 NA
HETATM    5  C8  UNL     1      23.478   0.376  53.052  1.00  0.00     0.094 A 
HETATM    6  C9  UNL     1      24.912   0.532  52.716  1.00  0.00    -0.025 C 
HETATM    7  C10 UNL     1      25.650  -0.358  53.392  1.00  0.00     0.009 C 
HETATM    8  C14 UNL     1      25.735   1.380  51.858  1.00  0.00     0.060 C 
HETATM    9  C15 UNL     1      25.020   2.296  50.933  1.00  0.00     0.123 C 
HETATM   10  N4  UNL     1      23.926   3.045  51.514  1.00  0.00    -0.397 N 
HETATM   11  C16 UNL     1      22.657   2.557  52.007  1.00  0.00     0.117 C 
HETATM   12  C17 UNL     1      22.478   1.400  52.671  1.00  0.00     0.102 A 
HETATM   13  H20 UNL     1      23.998   4.101  51.617  1.00  0.00     0.158 HD
ENDROOT
BRANCH   1  14
HETATM   14  C6  UNL     1      20.113   2.174  52.668  1.00  0.00     0.138 C 
HETATM   15  C5  UNL     1      19.166   1.910  51.783  1.00  0.00     0.028 C 
HETATM   16 BR1  UNL     1      18.036   3.405  51.599  1.00  0.00    -0.050 Br
BRANCH  15  17
HETATM   17  C4  UNL     1      19.153   0.611  51.148  1.00  0.00     0.018 C 
HETATM   18  C3  UNL     1      18.269  -0.337  51.391  1.00  0.00     0.000 C 
BRANCH  18  19
HETATM   19  C2  UNL     1      17.082  -0.557  52.239  1.00  0.00     0.194 C 
BRANCH  19  20
HETATM   20  O1  UNL     1      17.455  -0.889  53.551  1.00  0.00    -0.392 OA
HETATM   21  C1  UNL     1      17.792  -2.250  53.491  1.00  0.00     0.201 C 
ENDBRANCH  19  20
ENDBRANCH  18  19
ENDBRANCH  15  17
ENDBRANCH   1  14
BRANCH   7  22
HETATM   22  C11 UNL     1      27.099  -0.517  53.331  1.00  0.00    -0.001 C 
HETATM   23  C12 UNL     1      28.012  -0.145  54.238  1.00  0.00    -0.001 C 
BRANCH  23  24
HETATM   24  C13 UNL     1      29.458  -0.388  54.009  1.00  0.00     0.191 C 
BRANCH  24  25
HETATM   25  O2  UNL     1      30.075   0.737  53.481  1.00  0.00    -0.397 OA
HETATM   26  H15 UNL     1      29.633   1.524  53.906  1.00  0.00     0.209 HD
ENDBRANCH  24  25
ENDBRANCH  23  24
ENDBRANCH   7  22
TORSDOF 7
ENDMDL
MODEL 3
REMARK VINA RESULT:      -7.1      3.778      7.633
REMARK  7 active torsions:
REMARK  status: ('A' for Active; 'I' for Inactive)
REMARK    1  A    between atoms: O1_2  and  C2_3 
REMARK    2  A    between atoms: C2_3  and  C3_4 
REMARK    3  A    between atoms: C4_5  and  C5_6 
REMARK    4  A    between atoms: C6_8  and  N1_9 
REMARK    5  A    between atoms: C10_15  and  C11_16 
REMARK    6  A    between atoms: C12_17  and  C13_18 
REMARK    7  A    between atoms: C13_18  and  O2_19 
ROOT
HETATM    1  N1  UNL     1      21.803   1.365  52.665  1.00  0.00    -0.239 N 
HETATM    2  N2  UNL     1      21.457   0.100  53.199  1.00  0.00    -0.161 NA
HETATM    3  C7  UNL     1      22.414  -0.720  53.559  1.00  0.00     0.256 A 
HETATM    4  N3  UNL     1      23.839  -0.511  53.487  1.00  0.00    -0.237 NA
HETATM    5  C8  UNL     1      24.187   0.631  53.005  1.00  0.00     0.094 A 
HETATM    6  C9  UNL     1      25.642   0.888  52.914  1.00  0.00    -0.025 C 
HETATM    7  C10 UNL     1      26.323  -0.027  53.615  1.00  0.00     0.009 C 
HETATM    8  C14 UNL     1      26.531   1.857  52.277  1.00  0.00     0.060 C 
HETATM    9  C15 UNL     1      25.909   2.824  51.339  1.00  0.00     0.123 C 
HETATM   10  N4  UNL     1      24.694   3.457  51.805  1.00  0.00    -0.397 N 
HETATM   11  C16 UNL     1      23.399   2.863  52.045  1.00  0.00     0.117 C 
HETATM   12  C17 UNL     1      23.194   1.638  52.564  1.00  0.00     0.102 A 
HETATM   13  H20 UNL     1      24.683   4.501  52.013  1.00  0.00     0.158 HD
ENDROOT
BRANCH   1  14
HETATM   14  C6  UNL     1      20.813   2.293  52.259  1.00  0.00     0.138 C 
HETATM   15  C5  UNL     1      20.157   2.165  51.117  1.00  0.00     0.028 C 
HETATM   16 BR1  UNL     1      18.930   3.581  50.928  1.00  0.00    -0.050 Br
BRANCH  15  17
HETATM   17  C4  UNL     1      20.466   1.040  50.262  1.00  0.00     0.018 C 
HETATM   18  C3  UNL     1      21.068   1.127  49.092  1.00  0.00     0.000 C 
BRANCH  18  19
HETATM   19  C2  UNL     1      21.629   2.164  48.206  1.00  0.00     0.194 C 
BRANCH  19  20
HETATM   20  O1  UNL     1      22.904   2.561  48.641  1.00  0.00    -0.392 OA
HETATM   21  C1  UNL     1      22.901   3.960  48.519  1.00  0.00     0.201 C 
ENDBRANCH  19  20
ENDBRANCH  18  19
ENDBRANCH  15  17
ENDBRANCH   1  14
BRANCH   7  22
HETATM   22  C11 UNL     1      27.772  -0.110  53.769  1.00  0.00    -0.001 C 
HETATM   23  C12 UNL     1      28.596  -1.076  53.342  1.00  0.00    -0.001 C 
BRANCH  23  24
HETATM   24  C13 UNL     1      30.057  -0.996  53.588  1.00  0.00     0.191 C 
BRANCH  24  25
HETATM   25  O2  UNL     1      30.518   0.305  53.437  1.00  0.00    -0.397 OA
HETATM   26  H15 UNL     1      29.775   0.817  53.011  1.00  0.00     0.209 HD
ENDBRANCH  24  25
ENDBRANCH  23  24
ENDBRANCH   7  22
TORSDOF 7
ENDMDL
MODEL 4
REMARK VINA RESULT:      -6.8      4.212      7.819
REMARK  7 active torsions:
REMARK  status: ('A' for Active; 'I' for Inactive)
REMARK    1  A    between atoms: O1_2  and  C2_3 
REMARK    2  A    between atoms: C2_3  and  C3_4 
REMARK    3  A    between atoms: C4_5  and  C5_6 
REMARK    4  A    between atoms: C6_8  and  N1_9 
REMARK    5  A    between atoms: C10_15  and  C11_16 
REMARK    6  A    between atoms: C12_17  and  C13_18 
REMARK    7  A    between atoms: C13_18  and  O2_19 
ROOT
HETATM    1  N1  UNL     1      22.662   2.945  51.797  1.00  0.00    -0.239 N 
HETATM    2  N2  UNL     1      23.596   3.812  51.178  1.00  0.00    -0.161 NA
HETATM    3  C7  UNL     1      24.857   3.458  51.135  1.00  0.00     0.256 A 
HETATM    4  N3  UNL     1      25.462   2.255  51.651  1.00  0.00    -0.237 NA
HETATM    5  C8  UNL     1      24.639   1.446  52.222  1.00  0.00     0.094 A 
HETATM    6  C9  UNL     1      25.218   0.196  52.765  1.00  0.00    -0.025 C 
HETATM    7  C10 UNL     1      26.466   0.024  52.311  1.00  0.00     0.009 C 
HETATM    8  C14 UNL     1      24.808  -0.889  53.652  1.00  0.00     0.060 C 
HETATM    9  C15 UNL     1      23.507  -0.731  54.350  1.00  0.00     0.123 C 
HETATM   10  N4  UNL     1      22.404  -0.282  53.528  1.00  0.00    -0.397 N 
HETATM   11  C16 UNL     1      22.215   1.002  52.892  1.00  0.00     0.117 C 
HETATM   12  C17 UNL     1      23.191   1.739  52.331  1.00  0.00     0.102 A 
HETATM   13  H20 UNL     1      21.587  -0.934  53.330  1.00  0.00     0.158 HD
ENDROOT
BRANCH   1  14
HETATM   14  C6  UNL     1      21.286   3.274  51.875  1.00  0.00     0.138 C 
HETATM   15  C5  UNL     1      20.466   3.110  50.850  1.00  0.00     0.028 C 
HETATM   16 BR1  UNL     1      18.729   3.653  51.334  1.00  0.00    -0.050 Br
BRANCH  15  17
HETATM   17  C4  UNL     1      20.998   2.578  49.615  1.00  0.00     0.018 C 
HETATM   18  C3  UNL     1      21.174   3.275  48.509  1.00  0.00     0.000 C 
BRANCH  18  19
HETATM   19  C2  UNL     1      20.978   4.653  48.023  1.00  0.00     0.194 C 
BRANCH  19  20
HETATM   20  O1  UNL     1      21.837   5.547  48.682  1.00  0.00    -0.392 OA
HETATM   21  C1  UNL     1      23.048   5.459  47.978  1.00  0.00     0.201 C 
ENDBRANCH  19  20
ENDBRANCH  18  19
ENDBRANCH  15  17
ENDBRANCH   1  14
BRANCH   7  22
HETATM   22  C11 UNL     1      27.362  -1.086  52.620  1.00  0.00    -0.001 C 
HETATM   23  C12 UNL     1      28.576  -1.037  53.185  1.00  0.00    -0.001 C 
BRANCH  23  24
HETATM   24  C13 UNL     1      29.355  -2.277  53.428  1.00  0.00     0.191 C 
BRANCH  24  25
HETATM   25  O2  UNL     1      28.545  -3.400  53.335  1.00  0.00    -0.397 OA
HETATM   26  H15 UNL     1      28.668  -3.758  52.412  1.00  0.00     0.209 HD
ENDBRANCH  24  25
ENDBRANCH  23  24
ENDBRANCH   7  22
TORSDOF 7
ENDMDL
MODEL 5
REMARK VINA RESULT:      -6.7      4.501      8.112
REMARK  7 active torsions:
REMARK  status: ('A' for Active; 'I' for Inactive)
REMARK    1  A    between atoms: O1_2  and  C2_3 
REMARK    2  A    between atoms: C2_3  and  C3_4 
REMARK    3  A    between atoms: C4_5  and  C5_6 
REMARK    4  A    between atoms: C6_8  and  N1_9 
REMARK    5  A    between atoms: C10_15  and  C11_16 
REMARK    6  A    between atoms: C12_17  and  C13_18 
REMARK    7  A    between atoms: C13_18  and  O2_19 
ROOT
HETATM    1  N1  UNL     1      22.156   3.373  51.641  1.00  0.00    -0.239 N 
HETATM    2  N2  UNL     1      21.311   2.348  52.131  1.00  0.00    -0.161 NA
HETATM    3  C7  UNL     1      21.842   1.203  52.485  1.00  0.00     0.256 A 
HETATM    4  N3  UNL     1      23.231   0.816  52.447  1.00  0.00    -0.237 NA
HETATM    5  C8  UNL     1      24.027   1.728  52.005  1.00  0.00     0.094 A 
HETATM    6  C9  UNL     1      25.463   1.373  51.950  1.00  0.00    -0.025 C 
HETATM    7  C10 UNL     1      25.693   0.247  52.637  1.00  0.00     0.009 C 
HETATM    8  C14 UNL     1      26.687   1.909  51.359  1.00  0.00     0.060 C 
HETATM    9  C15 UNL     1      26.539   3.064  50.438  1.00  0.00     0.123 C 
HETATM   10  N4  UNL     1      25.672   4.127  50.899  1.00  0.00    -0.397 N 
HETATM   11  C16 UNL     1      24.240   4.105  51.096  1.00  0.00     0.117 C 
HETATM   12  C17 UNL     1      23.541   3.059  51.575  1.00  0.00     0.102 A 
HETATM   13  H20 UNL     1      26.079   5.080  51.138  1.00  0.00     0.158 HD
ENDROOT
BRANCH   1  14
HETATM   14  C6  UNL     1      21.640   4.630  51.243  1.00  0.00     0.138 C 
HETATM   15  C5  UNL     1      21.048   4.809  50.073  1.00  0.00     0.028 C 
HETATM   16 BR1  UNL     1      20.498   6.602  49.907  1.00  0.00    -0.050 Br
BRANCH  15  17
HETATM   17  C4  UNL     1      20.929   3.679  49.178  1.00  0.00     0.018 C 
HETATM   18  C3  UNL     1      21.411   3.636  47.951  1.00  0.00     0.000 C 
BRANCH  18  19
HETATM   19  C2  UNL     1      22.161   4.502  47.023  1.00  0.00     0.194 C 
BRANCH  19  20
HETATM   20  O1  UNL     1      21.290   5.242  46.208  1.00  0.00    -0.392 OA
HETATM   21  C1  UNL     1      22.133   5.949  45.336  1.00  0.00     0.201 C 
ENDBRANCH  19  20
ENDBRANCH  18  19
ENDBRANCH  15  17
ENDBRANCH   1  14
BRANCH   7  22
HETATM   22  C11 UNL     1      26.979  -0.420  52.816  1.00  0.00    -0.001 C 
HETATM   23  C12 UNL     1      27.239  -1.734  52.802  1.00  0.00    -0.001 C 
BRANCH  23  24
HETATM   24  C13 UNL     1      28.619  -2.240  53.003  1.00  0.00     0.191 C 
BRANCH  24  25
HETATM   25  O2  UNL     1      28.612  -3.584  53.351  1.00  0.00    -0.397 OA
HETATM   26  H15 UNL     1      29.402  -3.994  52.900  1.00  0.00     0.209 HD
ENDBRANCH  24  25
ENDBRANCH  23  24
ENDBRANCH   7  22
TORSDOF 7
ENDMDL
MODEL 6
REMARK VINA RESULT:      -6.7      6.373      9.553
REMARK  7 active torsions:
REMARK  status: ('A' for Active; 'I' for Inactive)
REMARK    1  A    between atoms: O1_2  and  C2_3 
REMARK    2  A    between atoms: C2_3  and  C3_4 
REMARK    3  A    between atoms: C4_5  and  C5_6 
REMARK    4  A    between atoms: C6_8  and  N1_9 
REMARK    5  A    between atoms: C10_15  and  C11_16 
REMARK    6  A    between atoms: C12_17  and  C13_18 
REMARK    7  A    between atoms: C13_18  and  O2_19 
ROOT
HETATM    1  N1  UNL     1      24.842   3.325  50.706  1.00  0.00    -0.239 N 
HETATM    2  N2  UNL     1      25.999   2.916  49.998  1.00  0.00    -0.161 NA
HETATM    3  C7  UNL     1      26.734   3.825  49.406  1.00  0.00     0.256 A 
HETATM    4  N3  UNL     1      26.526   5.252  49.368  1.00  0.00    -0.237 NA
HETATM    5  C8  UNL     1      25.481   5.656  50.002  1.00  0.00     0.094 A 
HETATM    6  C9  UNL     1      25.230   7.115  49.990  1.00  0.00    -0.025 C 
HETATM    7  C10 UNL     1      26.307   7.771  49.539  1.00  0.00     0.009 C 
HETATM    8  C14 UNL     1      24.141   8.028  50.331  1.00  0.00     0.060 C 
HETATM    9  C15 UNL     1      22.837   7.414  50.687  1.00  0.00     0.123 C 
HETATM   10  N4  UNL     1      22.897   6.304  51.612  1.00  0.00    -0.397 N 
HETATM   11  C16 UNL     1      23.457   4.987  51.409  1.00  0.00     0.117 C 
HETATM   12  C17 UNL     1      24.576   4.721  50.709  1.00  0.00     0.102 A 
HETATM   13  H20 UNL     1      22.488   6.401  52.589  1.00  0.00     0.158 HD
ENDROOT
BRANCH   1  14
HETATM   14  C6  UNL     1      24.010   2.388  51.366  1.00  0.00     0.138 C 
HETATM   15  C5  UNL     1      24.331   1.867  52.539  1.00  0.00     0.028 C 
HETATM   16 BR1  UNL     1      22.984   0.673  53.093  1.00  0.00    -0.050 Br
BRANCH  15  17
HETATM   17  C4  UNL     1      25.573   2.271  53.160  1.00  0.00     0.018 C 
HETATM   18  C3  UNL     1      26.276   1.526  53.991  1.00  0.00     0.000 C 
BRANCH  18  19
HETATM   19  C2  UNL     1      26.212   0.188  54.608  1.00  0.00     0.194 C 
BRANCH  19  20
HETATM   20  O1  UNL     1      27.345  -0.573  54.280  1.00  0.00    -0.392 OA
HETATM   21  C1  UNL     1      28.425   0.158  54.799  1.00  0.00     0.201 C 
ENDBRANCH  19  20
ENDBRANCH  18  19
ENDBRANCH  15  17
ENDBRANCH   1  14
BRANCH   7  22
HETATM   22  C11 UNL     1      26.448   9.214  49.383  1.00  0.00    -0.001 C 
HETATM   23  C12 UNL     1      27.422   9.888  48.754  1.00  0.00    -0.001 C 
BRANCH  23  24
HETATM   24  C13 UNL     1      27.406  11.370  48.692  1.00  0.00     0.191 C 
BRANCH  24  25
HETATM   25  O2  UNL     1      28.364  11.915  49.535  1.00  0.00    -0.397 OA
HETATM   26  H15 UNL     1      28.259  12.906  49.474  1.00  0.00     0.209 HD
ENDBRANCH  24  25
ENDBRANCH  23  24
ENDBRANCH   7  22
TORSDOF 7
ENDMDL
MODEL 7
REMARK VINA RESULT:      -6.6      3.562      7.983
REMARK  7 active torsions:
REMARK  status: ('A' for Active; 'I' for Inactive)
REMARK    1  A    between atoms: O1_2  and  C2_3 
REMARK    2  A    between atoms: C2_3  and  C3_4 
REMARK    3  A    between atoms: C4_5  and  C5_6 
REMARK    4  A    between atoms: C6_8  and  N1_9 
REMARK    5  A    between atoms: C10_15  and  C11_16 
REMARK    6  A    between atoms: C12_17  and  C13_18 
REMARK    7  A    between atoms: C13_18  and  O2_19 
ROOT
HETATM    1  N1  UNL     1      22.109   2.980  51.796  1.00  0.00    -0.239 N 
HETATM    2  N2  UNL     1      21.272   1.974  52.339  1.00  0.00    -0.161 NA
HETATM    3  C7  UNL     1      21.812   0.852  52.748  1.00  0.00     0.256 A 
HETATM    4  N3  UNL     1      23.204   0.474  52.725  1.00  0.00    -0.237 NA
HETATM    5  C8  UNL     1      23.991   1.367  52.235  1.00  0.00     0.094 A 
HETATM    6  C9  UNL     1      25.430   1.021  52.194  1.00  0.00    -0.025 C 
HETATM    7  C10 UNL     1      25.670  -0.069  52.935  1.00  0.00     0.009 C 
HETATM    8  C14 UNL     1      26.649   1.535  51.573  1.00  0.00     0.060 C 
HETATM    9  C15 UNL     1      26.490   2.641  50.596  1.00  0.00     0.123 C 
HETATM   10  N4  UNL     1      25.617   3.720  51.006  1.00  0.00    -0.397 N 
HETATM   11  C16 UNL     1      24.186   3.698  51.209  1.00  0.00     0.117 C 
HETATM   12  C17 UNL     1      23.495   2.673  51.742  1.00  0.00     0.102 A 
HETATM   13  H20 UNL     1      26.017   4.687  51.196  1.00  0.00     0.158 HD
ENDROOT
BRANCH   1  14
HETATM   14  C6  UNL     1      21.583   4.212  51.337  1.00  0.00     0.138 C 
HETATM   15  C5  UNL     1      21.011   4.334  50.150  1.00  0.00     0.028 C 
HETATM   16 BR1  UNL     1      20.439   6.110  49.901  1.00  0.00    -0.050 Br
BRANCH  15  17
HETATM   17  C4  UNL     1      20.925   3.167  49.300  1.00  0.00     0.018 C 
HETATM   18  C3  UNL     1      19.800   2.592  48.922  1.00  0.00     0.000 C 
BRANCH  18  19
HETATM   19  C2  UNL     1      18.347   2.768  49.107  1.00  0.00     0.194 C 
BRANCH  19  20
HETATM   20  O1  UNL     1      17.800   1.704  49.842  1.00  0.00    -0.392 OA
HETATM   21  C1  UNL     1      17.725   2.184  51.159  1.00  0.00     0.201 C 
ENDBRANCH  19  20
ENDBRANCH  18  19
ENDBRANCH  15  17
ENDBRANCH   1  14
BRANCH   7  22
HETATM   22  C11 UNL     1      26.961  -0.716  53.143  1.00  0.00    -0.001 C 
HETATM   23  C12 UNL     1      27.424  -1.840  52.579  1.00  0.00    -0.001 C 
BRANCH  23  24
HETATM   24  C13 UNL     1      28.774  -2.359  52.910  1.00  0.00     0.191 C 
BRANCH  24  25
HETATM   25  O2  UNL     1      28.692  -3.585  53.556  1.00  0.00    -0.397 OA
HETATM   26  H15 UNL     1      29.179  -4.238  52.980  1.00  0.00     0.209 HD
ENDBRANCH  24  25
ENDBRANCH  23  24
ENDBRANCH   7  22
TORSDOF 7
ENDMDL
MODEL 8
REMARK VINA RESULT:      -6.6      6.558      9.076
REMARK  7 active torsions:
REMARK  status: ('A' for Active; 'I' for Inactive)
REMARK    1  A    between atoms: O1_2  and  C2_3 
REMARK    2  A    between atoms: C2_3  and  C3_4 
REMARK    3  A    between atoms: C4_5  and  C5_6 
REMARK    4  A    between atoms: C6_8  and  N1_9 
REMARK    5  A    between atoms: C10_15  and  C11_16 
REMARK    6  A    between atoms: C12_17  and  C13_18 
REMARK    7  A    between atoms: C13_18  and  O2_19 
ROOT
HETATM    1  N1  UNL     1      25.334   5.681  49.184  1.00  0.00    -0.239 N 
HETATM    2  N2  UNL     1      26.585   5.522  48.539  1.00  0.00    -0.161 NA
HETATM    3  C7  UNL     1      27.363   4.531  48.901  1.00  0.00     0.256 A 
HETATM    4  N3  UNL     1      27.119   3.529  49.909  1.00  0.00    -0.237 NA
HETATM    5  C8  UNL     1      25.989   3.647  50.515  1.00  0.00     0.094 A 
HETATM    6  C9  UNL     1      25.697   2.638  51.558  1.00  0.00    -0.025 C 
HETATM    7  C10 UNL     1      26.564   1.620  51.480  1.00  0.00     0.009 C 
HETATM    8  C14 UNL     1      24.732   2.448  52.639  1.00  0.00     0.060 C 
HETATM    9  C15 UNL     1      23.821   3.583  52.934  1.00  0.00     0.123 C 
HETATM   10  N4  UNL     1      23.203   4.205  51.783  1.00  0.00    -0.397 N 
HETATM   11  C16 UNL     1      23.822   4.980  50.732  1.00  0.00     0.117 C 
HETATM   12  C17 UNL     1      25.028   4.727  50.192  1.00  0.00     0.102 A 
HETATM   13  H20 UNL     1      22.152   4.124  51.634  1.00  0.00     0.158 HD
ENDROOT
BRANCH   1  14
HETATM   14  C6  UNL     1      24.451   6.733  48.837  1.00  0.00     0.138 C 
HETATM   15  C5  UNL     1      24.594   7.957  49.318  1.00  0.00     0.028 C 
HETATM   16 BR1  UNL     1      23.239   9.070  48.631  1.00  0.00    -0.050 Br
BRANCH  15  17
HETATM   17  C4  UNL     1      25.688   8.223  50.225  1.00  0.00     0.018 C 
HETATM   18  C3  UNL     1      26.706   9.020  49.965  1.00  0.00     0.000 C 
BRANCH  18  19
HETATM   19  C2  UNL     1      27.188   9.883  48.870  1.00  0.00     0.194 C 
BRANCH  19  20
HETATM   20  O1  UNL     1      26.653  11.176  48.975  1.00  0.00    -0.392 OA
HETATM   21  C1  UNL     1      27.639  12.014  48.430  1.00  0.00     0.201 C 
ENDBRANCH  19  20
ENDBRANCH  18  19
ENDBRANCH  15  17
ENDBRANCH   1  14
BRANCH   7  22
HETATM   22  C11 UNL     1      26.601   0.437  52.332  1.00  0.00    -0.001 C 
HETATM   23  C12 UNL     1      26.795  -0.839  51.970  1.00  0.00    -0.001 C 
BRANCH  23  24
HETATM   24  C13 UNL     1      26.802  -1.926  52.981  1.00  0.00     0.191 C 
BRANCH  24  25
HETATM   25  O2  UNL     1      27.726  -2.907  52.651  1.00  0.00    -0.397 OA
HETATM   26  H15 UNL     1      28.591  -2.436  52.494  1.00  0.00     0.209 HD
ENDBRANCH  24  25
ENDBRANCH  23  24
ENDBRANCH   7  22
TORSDOF 7
ENDMDL
MODEL 9
REMARK VINA RESULT:      -6.6      5.275      7.361
REMARK  7 active torsions:
REMARK  status: ('A' for Active; 'I' for Inactive)
REMARK    1  A    between atoms: O1_2  and  C2_3 
REMARK    2  A    between atoms: C2_3  and  C3_4 
REMARK    3  A    between atoms: C4_5  and  C5_6 
REMARK    4  A    between atoms: C6_8  and  N1_9 
REMARK    5  A    between atoms: C10_15  and  C11_16 
REMARK    6  A    between atoms: C12_17  and  C13_18 
REMARK    7  A    between atoms: C13_18  and  O2_19 
ROOT
HETATM    1  N1  UNL     1      25.092   4.108  49.474  1.00  0.00    -0.239 N 
HETATM    2  N2  UNL     1      23.774   4.390  49.040  1.00  0.00    -0.161 NA
HETATM    3  C7  UNL     1      22.774   3.742  49.587  1.00  0.00     0.256 A 
HETATM    4  N3  UNL     1      22.824   2.733  50.616  1.00  0.00    -0.237 NA
HETATM    5  C8  UNL     1      24.010   2.453  51.032  1.00  0.00     0.094 A 
HETATM    6  C9  UNL     1      24.107   1.423  52.091  1.00  0.00    -0.025 C 
HETATM    7  C10 UNL     1      22.899   1.171  52.611  1.00  0.00     0.009 C 
HETATM    8  C14 UNL     1      25.148   0.614  52.719  1.00  0.00     0.060 C 
HETATM    9  C15 UNL     1      26.505   0.680  52.120  1.00  0.00     0.123 C 
HETATM   10  N4  UNL     1      26.990   2.009  51.812  1.00  0.00    -0.397 N 
HETATM   11  C16 UNL     1      26.508   2.939  50.816  1.00  0.00     0.117 C 
HETATM   12  C17 UNL     1      25.215   3.121  50.489  1.00  0.00     0.102 A 
HETATM   13  H20 UNL     1      27.813   2.413  52.351  1.00  0.00     0.158 HD
ENDROOT
BRANCH   1  14
HETATM   14  C6  UNL     1      26.212   4.776  48.921  1.00  0.00     0.138 C 
HETATM   15  C5  UNL     1      26.475   6.045  49.188  1.00  0.00     0.028 C 
HETATM   16 BR1  UNL     1      28.035   6.575  48.276  1.00  0.00    -0.050 Br
BRANCH  15  17
HETATM   17  C4  UNL     1      25.587   6.766  50.073  1.00  0.00     0.018 C 
HETATM   18  C3  UNL     1      24.872   7.818  49.728  1.00  0.00     0.000 C 
BRANCH  18  19
HETATM   19  C2  UNL     1      24.629   8.653  48.537  1.00  0.00     0.194 C 
BRANCH  19  20
HETATM   20  O1  UNL     1      23.422   8.302  47.913  1.00  0.00    -0.392 OA
HETATM   21  C1  UNL     1      23.793   7.399  46.904  1.00  0.00     0.201 C 
ENDBRANCH  19  20
ENDBRANCH  18  19
ENDBRANCH  15  17
ENDBRANCH   1  14
BRANCH   7  22
HETATM   22  C11 UNL     1      22.586   0.222  53.673  1.00  0.00    -0.001 C 
HETATM   23  C12 UNL     1      22.144  -1.038  53.554  1.00  0.00    -0.001 C 
BRANCH  23  24
HETATM   24  C13 UNL     1      21.875  -1.868  54.755  1.00  0.00     0.191 C 
BRANCH  24  25
HETATM   25  O2  UNL     1      22.915  -1.774  55.669  1.00  0.00    -0.397 OA
HETATM   26  H15 UNL     1      22.671  -2.367  56.433  1.00  0.00     0.209 HD
ENDBRANCH  24  25
ENDBRANCH  23  24
ENDBRANCH   7  22
TORSDOF 7
ENDMDL
