MODEL 1
REMARK VINA RESULT:      -6.5      0.000      0.000
REMARK  8 active torsions:
REMARK  status: ('A' for Active; 'I' for Inactive)
REMARK    1  A    between atoms: C2_2  and  C3_3 
REMARK    2  A    between atoms: C3_3  and  O1_4 
REMARK    3  A    between atoms: O1_4  and  C4_5 
REMARK    4  A    between atoms: C4_5  and  C5_6 
REMARK    5  A    between atoms: C5_6  and  P1_8 
REMARK    6  A    between atoms: P1_8  and  O2_9 
REMARK    7  A    between atoms: O2_9  and  C7_10 
REMARK    8  A    between atoms: C7_10  and  N1_12 
ROOT
HETATM    1  C7  UNL     1      23.867   2.990  52.043  1.00  0.00     0.224 C 
HETATM    2  C8  UNL     1      23.488   4.471  52.116  1.00  0.00     0.063 C 
ENDROOT
BRANCH   1   3
HETATM    3  O2  UNL     1      24.446   2.671  50.835  1.00  0.00    -0.328 OA
BRANCH   3   4
HETATM    4  P1  UNL     1      26.174   2.674  51.050  1.00  0.00     0.113 P 
BRANCH   4   5
HETATM    5  C5  UNL     1      26.846   1.536  52.053  1.00  0.00    -0.022 C 
HETATM    6  C6  UNL     1      26.591   0.063  51.855  1.00  0.00     0.049 C 
BRANCH   5   7
HETATM    7  C4  UNL     1      27.736   1.783  53.216  1.00  0.00     0.204 C 
BRANCH   7   8
HETATM    8  O1  UNL     1      27.650   0.834  54.199  1.00  0.00    -0.387 OA
BRANCH   8   9
HETATM    9  C3  UNL     1      28.852   0.408  54.702  1.00  0.00     0.167 C 
BRANCH   9  10
HETATM   10  C2  UNL     1      29.801  -0.137  53.667  1.00  0.00     0.022 C 
HETATM   11  C1  UNL     1      29.530  -1.618  53.433  1.00  0.00     0.007 C 
ENDBRANCH   9  10
ENDBRANCH   8   9
ENDBRANCH   7   8
ENDBRANCH   5   7
ENDBRANCH   4   5
ENDBRANCH   3   4
ENDBRANCH   1   3
BRANCH   1  12
HETATM   12  N1  UNL     1      22.654   2.250  52.319  1.00  0.00    -0.353 N 
HETATM   13  C9  UNL     1      21.400   2.721  51.759  1.00  0.00     0.130 C 
HETATM   14  C10 UNL     1      20.339   2.200  52.721  1.00  0.00     0.060 C 
HETATM   15  C11 UNL     1      21.011   0.999  53.331  1.00  0.00    -0.030 A 
HETATM   16  C12 UNL     1      20.530  -0.083  54.056  1.00  0.00     0.009 A 
HETATM   17  C16 UNL     1      22.364   1.063  53.075  1.00  0.00     0.038 A 
HETATM   18  C13 UNL     1      21.450  -1.047  54.483  1.00  0.00     0.001 A 
HETATM   19  C14 UNL     1      22.811  -0.959  54.210  1.00  0.00     0.002 A 
HETATM   20  C15 UNL     1      23.292   0.130  53.483  1.00  0.00     0.030 A 
ENDBRANCH   1  12
TORSDOF 8
ENDMDL
MODEL 2
REMARK VINA RESULT:      -6.4      2.439      4.701
REMARK  8 active torsions:
REMARK  status: ('A' for Active; 'I' for Inactive)
REMARK    1  A    between atoms: C2_2  and  C3_3 
REMARK    2  A    between atoms: C3_3  and  O1_4 
REMARK    3  A    between atoms: O1_4  and  C4_5 
REMARK    4  A    between atoms: C4_5  and  C5_6 
REMARK    5  A    between atoms: C5_6  and  P1_8 
REMARK    6  A    between atoms: P1_8  and  O2_9 
REMARK    7  A    between atoms: O2_9  and  C7_10 
REMARK    8  A    between atoms: C7_10  and  N1_12 
ROOT
HETATM    1  C7  UNL     1      23.560   2.248  51.485  1.00  0.00     0.224 C 
HETATM    2  C8  UNL     1      22.286   2.124  50.647  1.00  0.00     0.063 C 
ENDROOT
BRANCH   1   3
HETATM    3  O2  UNL     1      23.330   1.959  52.810  1.00  0.00    -0.328 OA
BRANCH   3   4
HETATM    4  P1  UNL     1      24.104   0.441  53.172  1.00  0.00     0.113 P 
BRANCH   4   5
HETATM    5  C5  UNL     1      25.761   0.392  53.214  1.00  0.00    -0.022 C 
HETATM    6  C6  UNL     1      26.570   0.039  51.992  1.00  0.00     0.049 C 
BRANCH   5   7
HETATM    7  C4  UNL     1      26.635   0.669  54.383  1.00  0.00     0.204 C 
BRANCH   7   8
HETATM    8  O1  UNL     1      27.493  -0.350  54.695  1.00  0.00    -0.387 OA
BRANCH   8   9
HETATM    9  C3  UNL     1      28.809   0.015  54.814  1.00  0.00     0.167 C 
BRANCH   9  10
HETATM   10  C2  UNL     1      29.676  -0.396  53.652  1.00  0.00     0.022 C 
HETATM   11  C1  UNL     1      29.493  -1.879  53.358  1.00  0.00     0.007 C 
ENDBRANCH   9  10
ENDBRANCH   8   9
ENDBRANCH   7   8
ENDBRANCH   5   7
ENDBRANCH   4   5
ENDBRANCH   3   4
ENDBRANCH   1   3
BRANCH   1  12
HETATM   12  N1  UNL     1      24.061   3.587  51.261  1.00  0.00    -0.353 N 
HETATM   13  C9  UNL     1      23.468   4.691  51.996  1.00  0.00     0.130 C 
HETATM   14  C10 UNL     1      23.696   5.903  51.100  1.00  0.00     0.060 C 
HETATM   15  C11 UNL     1      24.906   5.499  50.302  1.00  0.00    -0.030 A 
HETATM   16  C12 UNL     1      25.804   6.216  49.523  1.00  0.00     0.009 A 
HETATM   17  C16 UNL     1      25.088   4.137  50.420  1.00  0.00     0.038 A 
HETATM   18  C13 UNL     1      26.843   5.513  48.904  1.00  0.00     0.001 A 
HETATM   19  C14 UNL     1      27.004   4.137  49.040  1.00  0.00     0.002 A 
HETATM   20  C15 UNL     1      26.100   3.418  49.823  1.00  0.00     0.030 A 
ENDBRANCH   1  12
TORSDOF 8
ENDMDL
MODEL 3
REMARK VINA RESULT:      -6.3      2.027      6.082
REMARK  8 active torsions:
REMARK  status: ('A' for Active; 'I' for Inactive)
REMARK    1  A    between atoms: C2_2  and  C3_3 
REMARK    2  A    between atoms: C3_3  and  O1_4 
REMARK    3  A    between atoms: O1_4  and  C4_5 
REMARK    4  A    between atoms: C4_5  and  C5_6 
REMARK    5  A    between atoms: C5_6  and  P1_8 
REMARK    6  A    between atoms: P1_8  and  O2_9 
REMARK    7  A    between atoms: O2_9  and  C7_10 
REMARK    8  A    between atoms: C7_10  and  N1_12 
ROOT
HETATM    1  C7  UNL     1      25.589   1.650  52.210  1.00  0.00     0.224 C 
HETATM    2  C8  UNL     1      26.096   2.500  51.043  1.00  0.00     0.063 C 
ENDROOT
BRANCH   1   3
HETATM    3  O2  UNL     1      24.743   2.362  53.030  1.00  0.00    -0.328 OA
BRANCH   3   4
HETATM    4  P1  UNL     1      23.406   2.924  52.065  1.00  0.00     0.113 P 
BRANCH   4   5
HETATM    5  C5  UNL     1      22.528   1.807  51.209  1.00  0.00    -0.022 C 
HETATM    6  C6  UNL     1      22.394   1.893  49.709  1.00  0.00     0.049 C 
BRANCH   5   7
HETATM    7  C4  UNL     1      21.794   0.636  51.755  1.00  0.00     0.204 C 
BRANCH   7   8
HETATM    8  O1  UNL     1      22.003   0.418  53.090  1.00  0.00    -0.387 OA
BRANCH   8   9
HETATM    9  C3  UNL     1      20.977  -0.215  53.742  1.00  0.00     0.167 C 
BRANCH   9  10
HETATM   10  C2  UNL     1      21.392  -1.440  54.515  1.00  0.00     0.022 C 
HETATM   11  C1  UNL     1      22.767  -1.228  55.135  1.00  0.00     0.007 C 
ENDBRANCH   9  10
ENDBRANCH   8   9
ENDBRANCH   7   8
ENDBRANCH   5   7
ENDBRANCH   4   5
ENDBRANCH   3   4
ENDBRANCH   1   3
BRANCH   1  12
HETATM   12  N1  UNL     1      26.766   1.148  52.885  1.00  0.00    -0.353 N 
HETATM   13  C9  UNL     1      27.540   2.055  53.715  1.00  0.00     0.130 C 
HETATM   14  C10 UNL     1      28.948   1.472  53.697  1.00  0.00     0.060 C 
HETATM   15  C11 UNL     1      28.696   0.015  53.413  1.00  0.00    -0.030 A 
HETATM   16  C12 UNL     1      29.486  -1.120  53.539  1.00  0.00     0.009 A 
HETATM   17  C16 UNL     1      27.410  -0.135  52.940  1.00  0.00     0.038 A 
HETATM   18  C13 UNL     1      28.928  -2.351  53.178  1.00  0.00     0.001 A 
HETATM   19  C14 UNL     1      27.626  -2.474  52.703  1.00  0.00     0.002 A 
HETATM   20  C15 UNL     1      26.834  -1.333  52.577  1.00  0.00     0.030 A 
ENDBRANCH   1  12
TORSDOF 8
ENDMDL
MODEL 4
REMARK VINA RESULT:      -6.2      1.946      6.513
REMARK  8 active torsions:
REMARK  status: ('A' for Active; 'I' for Inactive)
REMARK    1  A    between atoms: C2_2  and  C3_3 
REMARK    2  A    between atoms: C3_3  and  O1_4 
REMARK    3  A    between atoms: O1_4  and  C4_5 
REMARK    4  A    between atoms: C4_5  and  C5_6 
REMARK    5  A    between atoms: C5_6  and  P1_8 
REMARK    6  A    between atoms: P1_8  and  O2_9 
REMARK    7  A    between atoms: O2_9  and  C7_10 
REMARK    8  A    between atoms: C7_10  and  N1_12 
ROOT
HETATM    1  C7  UNL     1      25.475   1.317  52.090  1.00  0.00     0.224 C 
HETATM    2  C8  UNL     1      25.841   2.481  51.168  1.00  0.00     0.063 C 
ENDROOT
BRANCH   1   3
HETATM    3  O2  UNL     1      24.415   1.630  52.910  1.00  0.00    -0.328 OA
BRANCH   3   4
HETATM    4  P1  UNL     1      23.393   0.224  53.027  1.00  0.00     0.113 P 
BRANCH   4   5
HETATM    5  C5  UNL     1      21.848   0.419  53.601  1.00  0.00    -0.022 C 
HETATM    6  C6  UNL     1      21.366  -0.314  54.827  1.00  0.00     0.049 C 
BRANCH   5   7
HETATM    7  C4  UNL     1      20.785   1.285  53.031  1.00  0.00     0.204 C 
BRANCH   7   8
HETATM    8  O1  UNL     1      21.190   2.040  51.964  1.00  0.00    -0.387 OA
BRANCH   8   9
HETATM    9  C3  UNL     1      21.240   3.391  52.193  1.00  0.00     0.167 C 
BRANCH   9  10
HETATM   10  C2  UNL     1      22.346   4.106  51.462  1.00  0.00     0.022 C 
HETATM   11  C1  UNL     1      23.196   4.902  52.443  1.00  0.00     0.007 C 
ENDBRANCH   9  10
ENDBRANCH   8   9
ENDBRANCH   7   8
ENDBRANCH   5   7
ENDBRANCH   4   5
ENDBRANCH   3   4
ENDBRANCH   1   3
BRANCH   1  12
HETATM   12  N1  UNL     1      26.684   0.976  52.809  1.00  0.00    -0.353 N 
HETATM   13  C9  UNL     1      27.335   1.996  53.613  1.00  0.00     0.130 C 
HETATM   14  C10 UNL     1      28.798   1.571  53.646  1.00  0.00     0.060 C 
HETATM   15  C11 UNL     1      28.714   0.085  53.422  1.00  0.00    -0.030 A 
HETATM   16  C12 UNL     1      29.619  -0.950  53.612  1.00  0.00     0.009 A 
HETATM   17  C16 UNL     1      27.463  -0.225  52.932  1.00  0.00     0.038 A 
HETATM   18  C13 UNL     1      29.207  -2.249  53.295  1.00  0.00     0.001 A 
HETATM   19  C14 UNL     1      27.938  -2.534  52.802  1.00  0.00     0.002 A 
HETATM   20  C15 UNL     1      27.030  -1.493  52.611  1.00  0.00     0.030 A 
ENDBRANCH   1  12
TORSDOF 8
ENDMDL
MODEL 5
REMARK VINA RESULT:      -6.1      1.770      2.532
REMARK  8 active torsions:
REMARK  status: ('A' for Active; 'I' for Inactive)
REMARK    1  A    between atoms: C2_2  and  C3_3 
REMARK    2  A    between atoms: C3_3  and  O1_4 
REMARK    3  A    between atoms: O1_4  and  C4_5 
REMARK    4  A    between atoms: C4_5  and  C5_6 
REMARK    5  A    between atoms: C5_6  and  P1_8 
REMARK    6  A    between atoms: P1_8  and  O2_9 
REMARK    7  A    between atoms: O2_9  and  C7_10 
REMARK    8  A    between atoms: C7_10  and  N1_12 
ROOT
HETATM    1  C7  UNL     1      23.520   2.967  51.590  1.00  0.00     0.224 C 
HETATM    2  C8  UNL     1      23.837   3.966  52.704  1.00  0.00     0.063 C 
ENDROOT
BRANCH   1   3
HETATM    3  O2  UNL     1      23.230   3.601  50.403  1.00  0.00    -0.328 OA
BRANCH   3   4
HETATM    4  P1  UNL     1      24.475   4.782  50.107  1.00  0.00     0.113 P 
BRANCH   4   5
HETATM    5  C5  UNL     1      25.982   4.244  49.668  1.00  0.00    -0.022 C 
HETATM    6  C6  UNL     1      26.918   5.102  48.854  1.00  0.00     0.049 C 
BRANCH   5   7
HETATM    7  C4  UNL     1      26.591   2.928  49.989  1.00  0.00     0.204 C 
BRANCH   7   8
HETATM    8  O1  UNL     1      27.141   2.856  51.241  1.00  0.00    -0.387 OA
BRANCH   8   9
HETATM    9  C3  UNL     1      26.868   1.703  51.929  1.00  0.00     0.167 C 
BRANCH   9  10
HETATM   10  C2  UNL     1      27.249   1.742  53.387  1.00  0.00     0.022 C 
HETATM   11  C1  UNL     1      28.580   2.460  53.562  1.00  0.00     0.007 C 
ENDBRANCH   9  10
ENDBRANCH   8   9
ENDBRANCH   7   8
ENDBRANCH   5   7
ENDBRANCH   4   5
ENDBRANCH   3   4
ENDBRANCH   1   3
BRANCH   1  12
HETATM   12  N1  UNL     1      22.440   2.140  52.085  1.00  0.00    -0.353 N 
HETATM   13  C9  UNL     1      21.084   2.418  51.646  1.00  0.00     0.130 C 
HETATM   14  C10 UNL     1      20.208   1.896  52.779  1.00  0.00     0.060 C 
HETATM   15  C11 UNL     1      21.079   0.842  53.408  1.00  0.00    -0.030 A 
HETATM   16  C12 UNL     1      20.813  -0.201  54.285  1.00  0.00     0.009 A 
HETATM   17  C16 UNL     1      22.378   1.017  52.978  1.00  0.00     0.038 A 
HETATM   18  C13 UNL     1      21.880  -1.015  54.680  1.00  0.00     0.001 A 
HETATM   19  C14 UNL     1      23.182  -0.817  54.230  1.00  0.00     0.002 A 
HETATM   20  C15 UNL     1      23.447   0.232  53.350  1.00  0.00     0.030 A 
ENDBRANCH   1  12
TORSDOF 8
ENDMDL
MODEL 6
REMARK VINA RESULT:      -6.1      3.021      6.377
REMARK  8 active torsions:
REMARK  status: ('A' for Active; 'I' for Inactive)
REMARK    1  A    between atoms: C2_2  and  C3_3 
REMARK    2  A    between atoms: C3_3  and  O1_4 
REMARK    3  A    between atoms: O1_4  and  C4_5 
REMARK    4  A    between atoms: C4_5  and  C5_6 
REMARK    5  A    between atoms: C5_6  and  P1_8 
REMARK    6  A    between atoms: P1_8  and  O2_9 
REMARK    7  A    between atoms: O2_9  and  C7_10 
REMARK    8  A    between atoms: C7_10  and  N1_12 
ROOT
HETATM    1  C7  UNL     1      25.892   1.769  52.167  1.00  0.00     0.224 C 
HETATM    2  C8  UNL     1      26.488   2.414  50.914  1.00  0.00     0.063 C 
ENDROOT
BRANCH   1   3
HETATM    3  O2  UNL     1      25.193   2.679  52.927  1.00  0.00    -0.328 OA
BRANCH   3   4
HETATM    4  P1  UNL     1      23.535   2.661  52.394  1.00  0.00     0.113 P 
BRANCH   4   5
HETATM    5  C5  UNL     1      22.991   3.927  51.469  1.00  0.00    -0.022 C 
HETATM    6  C6  UNL     1      21.567   4.414  51.560  1.00  0.00     0.049 C 
BRANCH   5   7
HETATM    7  C4  UNL     1      23.773   4.713  50.481  1.00  0.00     0.204 C 
BRANCH   7   8
HETATM    8  O1  UNL     1      24.471   5.758  51.023  1.00  0.00    -0.387 OA
BRANCH   8   9
HETATM    9  C3  UNL     1      25.382   6.346  50.185  1.00  0.00     0.167 C 
BRANCH   9  10
HETATM   10  C2  UNL     1      25.625   5.592  48.903  1.00  0.00     0.022 C 
HETATM   11  C1  UNL     1      27.115   5.341  48.715  1.00  0.00     0.007 C 
ENDBRANCH   9  10
ENDBRANCH   8   9
ENDBRANCH   7   8
ENDBRANCH   5   7
ENDBRANCH   4   5
ENDBRANCH   3   4
ENDBRANCH   1   3
BRANCH   1  12
HETATM   12  N1  UNL     1      26.999   1.155  52.869  1.00  0.00    -0.353 N 
HETATM   13  C9  UNL     1      27.816   1.975  53.747  1.00  0.00     0.130 C 
HETATM   14  C10 UNL     1      29.170   1.277  53.762  1.00  0.00     0.060 C 
HETATM   15  C11 UNL     1      28.808  -0.147  53.435  1.00  0.00    -0.030 A 
HETATM   16  C12 UNL     1      29.496  -1.347  53.559  1.00  0.00     0.009 A 
HETATM   17  C16 UNL     1      27.531  -0.178  52.915  1.00  0.00     0.038 A 
HETATM   18  C13 UNL     1      28.850  -2.519  53.150  1.00  0.00     0.001 A 
HETATM   19  C14 UNL     1      27.560  -2.522  52.629  1.00  0.00     0.002 A 
HETATM   20  C15 UNL     1      26.871  -1.316  52.504  1.00  0.00     0.030 A 
ENDBRANCH   1  12
TORSDOF 8
ENDMDL
MODEL 7
REMARK VINA RESULT:      -6.1      2.875      7.506
REMARK  8 active torsions:
REMARK  status: ('A' for Active; 'I' for Inactive)
REMARK    1  A    between atoms: C2_2  and  C3_3 
REMARK    2  A    between atoms: C3_3  and  O1_4 
REMARK    3  A    between atoms: O1_4  and  C4_5 
REMARK    4  A    between atoms: C4_5  and  C5_6 
REMARK    5  A    between atoms: C5_6  and  P1_8 
REMARK    6  A    between atoms: P1_8  and  O2_9 
REMARK    7  A    between atoms: O2_9  and  C7_10 
REMARK    8  A    between atoms: C7_10  and  N1_12 
ROOT
HETATM    1  C7  UNL     1      25.049   0.863  52.471  1.00  0.00     0.224 C 
HETATM    2  C8  UNL     1      24.931   1.995  51.448  1.00  0.00     0.063 C 
ENDROOT
BRANCH   1   3
HETATM    3  O2  UNL     1      24.037   0.910  53.402  1.00  0.00    -0.328 OA
BRANCH   3   4
HETATM    4  P1  UNL     1      22.540   0.545  52.589  1.00  0.00     0.113 P 
BRANCH   4   5
HETATM    5  C5  UNL     1      21.368  -0.277  53.427  1.00  0.00    -0.022 C 
HETATM    6  C6  UNL     1      21.721  -1.317  54.459  1.00  0.00     0.049 C 
BRANCH   5   7
HETATM    7  C4  UNL     1      19.897  -0.120  53.294  1.00  0.00     0.204 C 
BRANCH   7   8
HETATM    8  O1  UNL     1      19.186  -1.258  53.563  1.00  0.00    -0.387 OA
BRANCH   8   9
HETATM    9  C3  UNL     1      17.864  -1.215  53.203  1.00  0.00     0.167 C 
BRANCH   9  10
HETATM   10  C2  UNL     1      17.612  -0.665  51.823  1.00  0.00     0.022 C 
HETATM   11  C1  UNL     1      16.126  -0.727  51.495  1.00  0.00     0.007 C 
ENDBRANCH   9  10
ENDBRANCH   8   9
ENDBRANCH   7   8
ENDBRANCH   5   7
ENDBRANCH   4   5
ENDBRANCH   3   4
ENDBRANCH   1   3
BRANCH   1  12
HETATM   12  N1  UNL     1      26.373   0.974  53.045  1.00  0.00    -0.353 N 
HETATM   13  C9  UNL     1      26.759   2.221  53.683  1.00  0.00     0.130 C 
HETATM   14  C10 UNL     1      28.277   2.254  53.552  1.00  0.00     0.060 C 
HETATM   15  C11 UNL     1      28.630   0.795  53.446  1.00  0.00    -0.030 A 
HETATM   16  C12 UNL     1      29.824   0.101  53.586  1.00  0.00     0.009 A 
HETATM   17  C16 UNL     1      27.490   0.078  53.148  1.00  0.00     0.038 A 
HETATM   18  C13 UNL     1      29.800  -1.287  53.419  1.00  0.00     0.001 A 
HETATM   19  C14 UNL     1      28.635  -1.987  53.119  1.00  0.00     0.002 A 
HETATM   20  C15 UNL     1      27.436  -1.288  52.978  1.00  0.00     0.030 A 
ENDBRANCH   1  12
TORSDOF 8
ENDMDL
MODEL 8
REMARK VINA RESULT:      -5.9      4.019      6.449
REMARK  8 active torsions:
REMARK  status: ('A' for Active; 'I' for Inactive)
REMARK    1  A    between atoms: C2_2  and  C3_3 
REMARK    2  A    between atoms: C3_3  and  O1_4 
REMARK    3  A    between atoms: O1_4  and  C4_5 
REMARK    4  A    between atoms: C4_5  and  C5_6 
REMARK    5  A    between atoms: C5_6  and  P1_8 
REMARK    6  A    between atoms: P1_8  and  O2_9 
REMARK    7  A    between atoms: O2_9  and  C7_10 
REMARK    8  A    between atoms: C7_10  and  N1_12 
ROOT
HETATM    1  C7  UNL     1      25.786   3.429  49.588  1.00  0.00     0.224 C 
HETATM    2  C8  UNL     1      24.272   3.206  49.614  1.00  0.00     0.063 C 
ENDROOT
BRANCH   1   3
HETATM    3  O2  UNL     1      26.373   3.087  50.785  1.00  0.00    -0.328 OA
BRANCH   3   4
HETATM    4  P1  UNL     1      25.122   2.506  51.850  1.00  0.00     0.113 P 
BRANCH   4   5
HETATM    5  C5  UNL     1      25.540   1.431  53.042  1.00  0.00    -0.022 C 
HETATM    6  C6  UNL     1      25.092  -0.008  52.996  1.00  0.00     0.049 C 
BRANCH   5   7
HETATM    7  C4  UNL     1      26.360   1.707  54.249  1.00  0.00     0.204 C 
BRANCH   7   8
HETATM    8  O1  UNL     1      27.710   1.700  54.022  1.00  0.00    -0.387 OA
BRANCH   8   9
HETATM    9  C3  UNL     1      28.374   0.601  54.501  1.00  0.00     0.167 C 
BRANCH   9  10
HETATM   10  C2  UNL     1      29.590   0.211  53.702  1.00  0.00     0.022 C 
HETATM   11  C1  UNL     1      29.604  -1.294  53.468  1.00  0.00     0.007 C 
ENDBRANCH   9  10
ENDBRANCH   8   9
ENDBRANCH   7   8
ENDBRANCH   5   7
ENDBRANCH   4   5
ENDBRANCH   3   4
ENDBRANCH   1   3
BRANCH   1  12
HETATM   12  N1  UNL     1      25.984   4.815  49.219  1.00  0.00    -0.353 N 
HETATM   13  C9  UNL     1      24.907   5.763  49.447  1.00  0.00     0.130 C 
HETATM   14  C10 UNL     1      25.138   6.851  48.406  1.00  0.00     0.060 C 
HETATM   15  C11 UNL     1      26.617   6.747  48.146  1.00  0.00    -0.030 A 
HETATM   16  C12 UNL     1      27.530   7.599  47.539  1.00  0.00     0.009 A 
HETATM   17  C16 UNL     1      27.076   5.542  48.635  1.00  0.00     0.038 A 
HETATM   18  C13 UNL     1      28.863   7.184  47.461  1.00  0.00     0.001 A 
HETATM   19  C14 UNL     1      29.300   5.962  47.963  1.00  0.00     0.002 A 
HETATM   20  C15 UNL     1      28.382   5.107  48.573  1.00  0.00     0.030 A 
ENDBRANCH   1  12
TORSDOF 8
ENDMDL
MODEL 9
REMARK VINA RESULT:      -5.8      1.981      5.299
REMARK  8 active torsions:
REMARK  status: ('A' for Active; 'I' for Inactive)
REMARK    1  A    between atoms: C2_2  and  C3_3 
REMARK    2  A    between atoms: C3_3  and  O1_4 
REMARK    3  A    between atoms: O1_4  and  C4_5 
REMARK    4  A    between atoms: C4_5  and  C5_6 
REMARK    5  A    between atoms: C5_6  and  P1_8 
REMARK    6  A    between atoms: P1_8  and  O2_9 
REMARK    7  A    between atoms: O2_9  and  C7_10 
REMARK    8  A    between atoms: C7_10  and  N1_12 
ROOT
HETATM    1  C7  UNL     1      25.716   0.602  52.198  1.00  0.00     0.224 C 
HETATM    2  C8  UNL     1      26.889  -0.380  52.170  1.00  0.00     0.063 C 
ENDROOT
BRANCH   1   3
HETATM    3  O2  UNL     1      26.142   1.901  52.356  1.00  0.00    -0.328 OA
BRANCH   3   4
HETATM    4  P1  UNL     1      25.538   2.832  51.013  1.00  0.00     0.113 P 
BRANCH   4   5
HETATM    5  C5  UNL     1      24.108   3.651  51.202  1.00  0.00    -0.022 C 
HETATM    6  C6  UNL     1      23.602   4.048  52.566  1.00  0.00     0.049 C 
BRANCH   5   7
HETATM    7  C4  UNL     1      23.177   4.085  50.128  1.00  0.00     0.204 C 
BRANCH   7   8
HETATM    8  O1  UNL     1      23.405   3.490  48.916  1.00  0.00    -0.387 OA
BRANCH   8   9
HETATM    9  C3  UNL     1      22.307   2.902  48.344  1.00  0.00     0.167 C 
BRANCH   9  10
HETATM   10  C2  UNL     1      21.998   1.522  48.865  1.00  0.00     0.022 C 
HETATM   11  C1  UNL     1      20.523   1.419  49.234  1.00  0.00     0.007 C 
ENDBRANCH   9  10
ENDBRANCH   8   9
ENDBRANCH   7   8
ENDBRANCH   5   7
ENDBRANCH   4   5
ENDBRANCH   3   4
ENDBRANCH   1   3
BRANCH   1  12
HETATM   12  N1  UNL     1      24.835   0.147  53.253  1.00  0.00    -0.353 N 
HETATM   13  C9  UNL     1      25.409  -0.239  54.530  1.00  0.00     0.130 C 
HETATM   14  C10 UNL     1      24.412  -1.238  55.104  1.00  0.00     0.060 C 
HETATM   15  C11 UNL     1      23.125  -0.840  54.432  1.00  0.00    -0.030 A 
HETATM   16  C12 UNL     1      21.794  -1.131  54.696  1.00  0.00     0.009 A 
HETATM   17  C16 UNL     1      23.413  -0.030  53.353  1.00  0.00     0.038 A 
HETATM   18  C13 UNL     1      20.822  -0.583  53.853  1.00  0.00     0.001 A 
HETATM   19  C14 UNL     1      21.140   0.232  52.771  1.00  0.00     0.002 A 
HETATM   20  C15 UNL     1      22.478   0.523  52.506  1.00  0.00     0.030 A 
ENDBRANCH   1  12
TORSDOF 8
ENDMDL
