MODEL 1
REMARK VINA RESULT:      -8.5      0.000      0.000
REMARK  1 active torsions:
REMARK  status: ('A' for Active; 'I' for Inactive)
REMARK    1  A    between atoms: C4_5  and  C5_6 
ROOT
HETATM    1  C5  UNL     1      24.763   3.710  50.125  1.00  0.00     0.066 C 
HETATM    2  N1  UNL     1      24.058   2.826  49.553  1.00  0.00    -0.180 NA
HETATM    3  N2  UNL     1      23.254   2.106  50.478  1.00  0.00    -0.290 N 
HETATM    4  C6  UNL     1      22.039   1.364  50.228  1.00  0.00     0.223 C 
HETATM    5  S1  UNL     1      20.564   2.072  50.948  1.00  0.00    -0.119 SA
HETATM    6  C7  UNL     1      20.507   2.063  52.702  1.00  0.00     0.066 C 
HETATM    7  C8  UNL     1      20.418   1.022  53.473  1.00  0.00     0.123 C 
HETATM    8  N3  UNL     1      20.326  -0.344  53.725  1.00  0.00    -0.273 NA
HETATM    9  C9  UNL     1      21.234  -1.209  53.831  1.00  0.00     0.116 C 
HETATM   10  C10 UNL     1      22.649  -0.970  53.709  1.00  0.00     0.015 C 
HETATM   11  C11 UNL     1      23.632  -0.122  53.497  1.00  0.00    -0.025 C 
HETATM   12  C12 UNL     1      24.885   0.613  53.291  1.00  0.00     0.029 C 
HETATM   13  C13 UNL     1      25.023   1.279  51.957  1.00  0.00     0.031 C 
HETATM   14  C14 UNL     1      23.936   2.269  51.749  1.00  0.00     0.111 C 
HETATM   15  C15 UNL     1      24.502   3.690  51.582  1.00  0.00     0.088 C 
ENDROOT
BRANCH   1  16
HETATM   16  C4  UNL     1      25.706   4.630  49.454  1.00  0.00    -0.010 A 
HETATM   17  C3  UNL     1      25.288   5.886  49.074  1.00  0.00     0.015 A 
HETATM   18  C2  UNL     1      26.140   6.791  48.437  1.00  0.00     0.024 A 
HETATM   19  C1  UNL     1      27.429   6.362  48.207  1.00  0.00     0.034 A 
HETATM   20 CL1  UNL     1      28.636   7.336  47.432  1.00  0.00    -0.084 Cl
HETATM   21  C17 UNL     1      27.859   5.108  48.583  1.00  0.00     0.024 A 
HETATM   22  C16 UNL     1      27.014   4.219  49.210  1.00  0.00     0.015 A 
ENDBRANCH   1  16
TORSDOF 1
ENDMDL
MODEL 2
REMARK VINA RESULT:      -8.3      3.653      7.754
REMARK  1 active torsions:
REMARK  status: ('A' for Active; 'I' for Inactive)
REMARK    1  A    between atoms: C4_5  and  C5_6 
ROOT
HETATM    1  C5  UNL     1      23.614   2.907  51.547  1.00  0.00     0.066 C 
HETATM    2  N1  UNL     1      23.820   4.058  52.034  1.00  0.00    -0.180 NA
HETATM    3  N2  UNL     1      24.257   4.983  51.048  1.00  0.00    -0.290 N 
HETATM    4  C6  UNL     1      24.178   6.426  51.068  1.00  0.00     0.223 C 
HETATM    5  S1  UNL     1      23.054   7.135  49.874  1.00  0.00    -0.119 SA
HETATM    6  C7  UNL     1      23.519   6.933  48.193  1.00  0.00     0.066 C 
HETATM    7  C8  UNL     1      24.538   7.474  47.597  1.00  0.00     0.123 C 
HETATM    8  N3  UNL     1      25.676   8.273  47.543  1.00  0.00    -0.273 NA
HETATM    9  C9  UNL     1      26.872   7.996  47.823  1.00  0.00     0.116 C 
HETATM   10  C10 UNL     1      27.359   6.723  48.288  1.00  0.00     0.015 C 
HETATM   11  C11 UNL     1      27.106   5.478  48.626  1.00  0.00    -0.025 C 
HETATM   12  C12 UNL     1      27.083   4.073  49.050  1.00  0.00     0.029 C 
HETATM   13  C13 UNL     1      26.239   3.782  50.252  1.00  0.00     0.031 C 
HETATM   14  C14 UNL     1      24.822   4.151  50.001  1.00  0.00     0.111 C 
HETATM   15  C15 UNL     1      23.903   2.921  50.095  1.00  0.00     0.088 C 
ENDROOT
BRANCH   1  16
HETATM   16  C4  UNL     1      23.154   1.720  52.299  1.00  0.00    -0.010 A 
HETATM   17  C3  UNL     1      24.060   0.755  52.681  1.00  0.00     0.015 A 
HETATM   18  C2  UNL     1      23.677  -0.384  53.392  1.00  0.00     0.024 A 
HETATM   19  C1  UNL     1      22.337  -0.495  53.694  1.00  0.00     0.034 A 
HETATM   20 CL1  UNL     1      21.663  -1.832  54.570  1.00  0.00    -0.084 Cl
HETATM   21  C17 UNL     1      21.421   0.463  53.317  1.00  0.00     0.024 A 
HETATM   22  C16 UNL     1      21.805   1.584  52.616  1.00  0.00     0.015 A 
ENDBRANCH   1  16
TORSDOF 1
ENDMDL
MODEL 3
REMARK VINA RESULT:      -8.0      4.515      7.902
REMARK  1 active torsions:
REMARK  status: ('A' for Active; 'I' for Inactive)
REMARK    1  A    between atoms: C4_5  and  C5_6 
ROOT
HETATM    1  C5  UNL     1      21.081   0.379  52.548  1.00  0.00     0.066 C 
HETATM    2  N1  UNL     1      21.448   1.476  53.064  1.00  0.00    -0.180 NA
HETATM    3  N2  UNL     1      22.847   1.686  52.929  1.00  0.00    -0.290 N 
HETATM    4  C6  UNL     1      23.579   2.932  52.967  1.00  0.00     0.223 C 
HETATM    5  S1  UNL     1      24.315   3.418  51.413  1.00  0.00    -0.119 SA
HETATM    6  C7  UNL     1      25.613   2.383  50.841  1.00  0.00     0.066 C 
HETATM    7  C8  UNL     1      26.784   2.231  51.381  1.00  0.00     0.123 C 
HETATM    8  N3  UNL     1      27.761   2.482  52.340  1.00  0.00    -0.273 NA
HETATM    9  C9  UNL     1      27.942   1.950  53.466  1.00  0.00     0.116 C 
HETATM   10  C10 UNL     1      27.138   0.907  54.049  1.00  0.00     0.015 C 
HETATM   11  C11 UNL     1      26.110   0.093  53.952  1.00  0.00    -0.025 C 
HETATM   12  C12 UNL     1      25.036  -0.900  54.082  1.00  0.00     0.029 C 
HETATM   13  C13 UNL     1      23.646  -0.346  54.043  1.00  0.00     0.031 C 
HETATM   14  C14 UNL     1      23.395   0.353  52.756  1.00  0.00     0.111 C 
HETATM   15  C15 UNL     1      22.253  -0.318  51.972  1.00  0.00     0.088 C 
ENDROOT
BRANCH   1  16
HETATM   16  C4  UNL     1      19.697  -0.141  52.517  1.00  0.00    -0.010 A 
HETATM   17  C3  UNL     1      19.292  -1.074  53.446  1.00  0.00     0.015 A 
HETATM   18  C2  UNL     1      17.998  -1.596  53.458  1.00  0.00     0.024 A 
HETATM   19  C1  UNL     1      17.139  -1.128  52.487  1.00  0.00     0.034 A 
HETATM   20 CL1  UNL     1      15.492  -1.651  52.335  1.00  0.00    -0.084 Cl
HETATM   21  C17 UNL     1      17.533  -0.196  51.552  1.00  0.00     0.024 A 
HETATM   22  C16 UNL     1      18.811   0.316  51.545  1.00  0.00     0.015 A 
ENDBRANCH   1  16
TORSDOF 1
ENDMDL
MODEL 4
REMARK VINA RESULT:      -7.8      1.695      2.963
REMARK  1 active torsions:
REMARK  status: ('A' for Active; 'I' for Inactive)
REMARK    1  A    between atoms: C4_5  and  C5_6 
ROOT
HETATM    1  C5  UNL     1      25.768   4.822  49.462  1.00  0.00     0.066 C 
HETATM    2  N1  UNL     1      24.978   5.160  50.394  1.00  0.00    -0.180 NA
HETATM    3  N2  UNL     1      24.261   4.049  50.913  1.00  0.00    -0.290 N 
HETATM    4  C6  UNL     1      23.628   3.909  52.205  1.00  0.00     0.223 C 
HETATM    5  S1  UNL     1      24.394   2.714  53.291  1.00  0.00    -0.119 SA
HETATM    6  C7  UNL     1      24.274   1.041  52.771  1.00  0.00     0.066 C 
HETATM    7  C8  UNL     1      23.195   0.324  52.697  1.00  0.00     0.123 C 
HETATM    8  N3  UNL     1      21.826   0.108  52.827  1.00  0.00    -0.273 NA
HETATM    9  C9  UNL     1      20.891   0.342  52.017  1.00  0.00     0.116 C 
HETATM   10  C10 UNL     1      21.032   0.918  50.705  1.00  0.00     0.015 C 
HETATM   11  C11 UNL     1      21.816   1.412  49.772  1.00  0.00    -0.025 C 
HETATM   12  C12 UNL     1      22.469   1.995  48.593  1.00  0.00     0.029 C 
HETATM   13  C13 UNL     1      23.209   3.272  48.840  1.00  0.00     0.031 C 
HETATM   14  C14 UNL     1      24.289   3.071  49.840  1.00  0.00     0.111 C 
HETATM   15  C15 UNL     1      25.672   3.362  49.232  1.00  0.00     0.088 C 
ENDROOT
BRANCH   1  16
HETATM   16  C4  UNL     1      26.658   5.733  48.711  1.00  0.00    -0.010 A 
HETATM   17  C3  UNL     1      26.153   6.894  48.169  1.00  0.00     0.015 A 
HETATM   18  C2  UNL     1      26.951   7.786  47.450  1.00  0.00     0.024 A 
HETATM   19  C1  UNL     1      28.279   7.444  47.310  1.00  0.00     0.034 A 
HETATM   20 CL1  UNL     1      29.431   8.418  46.454  1.00  0.00    -0.084 Cl
HETATM   21  C17 UNL     1      28.795   6.285  47.846  1.00  0.00     0.024 A 
HETATM   22  C16 UNL     1      28.003   5.409  48.554  1.00  0.00     0.015 A 
ENDBRANCH   1  16
TORSDOF 1
ENDMDL
MODEL 5
REMARK VINA RESULT:      -7.8      3.995      5.070
REMARK  1 active torsions:
REMARK  status: ('A' for Active; 'I' for Inactive)
REMARK    1  A    between atoms: C4_5  and  C5_6 
ROOT
HETATM    1  C5  UNL     1      24.673   1.068  52.350  1.00  0.00     0.066 C 
HETATM    2  N1  UNL     1      24.219   1.174  51.172  1.00  0.00    -0.180 NA
HETATM    3  N2  UNL     1      22.847   1.544  51.163  1.00  0.00    -0.290 N 
HETATM    4  C6  UNL     1      22.092   2.179  50.106  1.00  0.00     0.223 C 
HETATM    5  S1  UNL     1      21.562   3.849  50.460  1.00  0.00    -0.119 SA
HETATM    6  C7  UNL     1      20.373   4.003  51.743  1.00  0.00     0.066 C 
HETATM    7  C8  UNL     1      19.144   3.586  51.720  1.00  0.00     0.123 C 
HETATM    8  N3  UNL     1      18.042   2.972  51.131  1.00  0.00    -0.273 NA
HETATM    9  C9  UNL     1      17.722   1.755  51.090  1.00  0.00     0.116 C 
HETATM   10  C10 UNL     1      18.461   0.666  51.674  1.00  0.00     0.015 C 
HETATM   11  C11 UNL     1      19.508   0.254  52.354  1.00  0.00    -0.025 C 
HETATM   12  C12 UNL     1      20.574  -0.446  53.081  1.00  0.00     0.029 C 
HETATM   13  C13 UNL     1      21.945  -0.301  52.500  1.00  0.00     0.031 C 
HETATM   14  C14 UNL     1      22.353   1.127  52.463  1.00  0.00     0.111 C 
HETATM   15  C15 UNL     1      23.603   1.371  53.327  1.00  0.00     0.088 C 
ENDROOT
BRANCH   1  16
HETATM   16  C4  UNL     1      26.058   0.699  52.711  1.00  0.00    -0.010 A 
HETATM   17  C3  UNL     1      26.958   1.678  53.072  1.00  0.00     0.015 A 
HETATM   18  C2  UNL     1      28.277   1.381  53.421  1.00  0.00     0.024 A 
HETATM   19  C1  UNL     1      28.636   0.051  53.387  1.00  0.00     0.034 A 
HETATM   20 CL1  UNL     1      30.224  -0.521  53.785  1.00  0.00    -0.084 Cl
HETATM   21  C17 UNL     1      27.745  -0.937  53.027  1.00  0.00     0.024 A 
HETATM   22  C16 UNL     1      26.445  -0.639  52.684  1.00  0.00     0.015 A 
ENDBRANCH   1  16
TORSDOF 1
ENDMDL
MODEL 6
REMARK VINA RESULT:      -7.7      3.836      5.930
REMARK  1 active torsions:
REMARK  status: ('A' for Active; 'I' for Inactive)
REMARK    1  A    between atoms: C4_5  and  C5_6 
ROOT
HETATM    1  C5  UNL     1      26.169   1.803  52.244  1.00  0.00     0.066 C 
HETATM    2  N1  UNL     1      25.941   2.104  51.034  1.00  0.00    -0.180 NA
HETATM    3  N2  UNL     1      24.830   2.980  50.904  1.00  0.00    -0.290 N 
HETATM    4  C6  UNL     1      24.516   3.882  49.819  1.00  0.00     0.223 C 
HETATM    5  S1  UNL     1      24.629   5.618  50.227  1.00  0.00    -0.119 SA
HETATM    6  C7  UNL     1      23.442   6.196  51.384  1.00  0.00     0.066 C 
HETATM    7  C8  UNL     1      22.160   6.293  51.202  1.00  0.00     0.123 C 
HETATM    8  N3  UNL     1      20.989   6.170  50.459  1.00  0.00    -0.273 NA
HETATM    9  C9  UNL     1      20.233   5.176  50.301  1.00  0.00     0.116 C 
HETATM   10  C10 UNL     1      20.417   3.872  50.885  1.00  0.00     0.015 C 
HETATM   11  C11 UNL     1      21.132   3.070  51.642  1.00  0.00    -0.025 C 
HETATM   12  C12 UNL     1      21.747   1.994  52.430  1.00  0.00     0.029 C 
HETATM   13  C13 UNL     1      23.129   1.605  52.009  1.00  0.00     0.031 C 
HETATM   14  C14 UNL     1      24.056   2.761  52.113  1.00  0.00     0.111 C 
HETATM   15  C15 UNL     1      25.185   2.479  53.120  1.00  0.00     0.088 C 
ENDROOT
BRANCH   1  16
HETATM   16  C4  UNL     1      27.249   0.915  52.725  1.00  0.00    -0.010 A 
HETATM   17  C3  UNL     1      27.103  -0.452  52.641  1.00  0.00     0.015 A 
HETATM   18  C2  UNL     1      28.093  -1.332  53.082  1.00  0.00     0.024 A 
HETATM   19  C1  UNL     1      29.231  -0.761  53.608  1.00  0.00     0.034 A 
HETATM   20 CL1  UNL     1      30.573  -1.682  54.208  1.00  0.00    -0.084 Cl
HETATM   21  C17 UNL     1      29.389   0.605  53.697  1.00  0.00     0.024 A 
HETATM   22  C16 UNL     1      28.409   1.469  53.261  1.00  0.00     0.015 A 
ENDBRANCH   1  16
TORSDOF 1
ENDMDL
MODEL 7
REMARK VINA RESULT:      -7.4      3.615      6.129
REMARK  1 active torsions:
REMARK  status: ('A' for Active; 'I' for Inactive)
REMARK    1  A    between atoms: C4_5  and  C5_6 
ROOT
HETATM    1  C5  UNL     1      25.198   2.408  51.958  1.00  0.00     0.066 C 
HETATM    2  N1  UNL     1      24.548   3.211  52.692  1.00  0.00    -0.180 NA
HETATM    3  N2  UNL     1      23.555   3.916  51.960  1.00  0.00    -0.290 N 
HETATM    4  C6  UNL     1      22.358   4.558  52.454  1.00  0.00     0.223 C 
HETATM    5  S1  UNL     1      20.828   3.784  51.951  1.00  0.00    -0.119 SA
HETATM    6  C7  UNL     1      20.470   3.874  50.234  1.00  0.00     0.066 C 
HETATM    7  C8  UNL     1      20.187   4.942  49.553  1.00  0.00     0.123 C 
HETATM    8  N3  UNL     1      19.969   6.309  49.403  1.00  0.00    -0.273 NA
HETATM    9  C9  UNL     1      20.792   7.240  49.199  1.00  0.00     0.116 C 
HETATM   10  C10 UNL     1      22.218   7.096  49.067  1.00  0.00     0.015 C 
HETATM   11  C11 UNL     1      23.273   6.311  49.060  1.00  0.00    -0.025 C 
HETATM   12  C12 UNL     1      24.586   5.657  49.008  1.00  0.00     0.029 C 
HETATM   13  C13 UNL     1      24.991   4.938  50.257  1.00  0.00     0.031 C 
HETATM   14  C14 UNL     1      24.018   3.864  50.585  1.00  0.00     0.111 C 
HETATM   15  C15 UNL     1      24.691   2.481  50.569  1.00  0.00     0.088 C 
ENDROOT
BRANCH   1  16
HETATM   16  C4  UNL     1      26.297   1.526  52.405  1.00  0.00    -0.010 A 
HETATM   17  C3  UNL     1      26.175   0.159  52.279  1.00  0.00     0.015 A 
HETATM   18  C2  UNL     1      27.183  -0.717  52.686  1.00  0.00     0.024 A 
HETATM   19  C1  UNL     1      28.314  -0.142  53.223  1.00  0.00     0.034 A 
HETATM   20 CL1  UNL     1      29.677  -1.056  53.786  1.00  0.00    -0.084 Cl
HETATM   21  C17 UNL     1      28.448   1.224  53.355  1.00  0.00     0.024 A 
HETATM   22  C16 UNL     1      27.450   2.083  52.952  1.00  0.00     0.015 A 
ENDBRANCH   1  16
TORSDOF 1
ENDMDL
MODEL 8
REMARK VINA RESULT:      -7.4      3.894      5.032
REMARK  1 active torsions:
REMARK  status: ('A' for Active; 'I' for Inactive)
REMARK    1  A    between atoms: C4_5  and  C5_6 
ROOT
HETATM    1  C5  UNL     1      23.723   1.242  52.182  1.00  0.00     0.066 C 
HETATM    2  N1  UNL     1      23.235   1.198  51.013  1.00  0.00    -0.180 NA
HETATM    3  N2  UNL     1      21.829   1.405  51.016  1.00  0.00    -0.290 N 
HETATM    4  C6  UNL     1      20.984   1.861  49.935  1.00  0.00     0.223 C 
HETATM    5  S1  UNL     1      20.269   3.481  50.172  1.00  0.00    -0.119 SA
HETATM    6  C7  UNL     1      19.097   3.602  51.474  1.00  0.00     0.066 C 
HETATM    7  C8  UNL     1      17.925   3.046  51.521  1.00  0.00     0.123 C 
HETATM    8  N3  UNL     1      16.891   2.263  51.016  1.00  0.00    -0.273 NA
HETATM    9  C9  UNL     1      16.715   1.018  51.081  1.00  0.00     0.116 C 
HETATM   10  C10 UNL     1      17.588   0.072  51.726  1.00  0.00     0.015 C 
HETATM   11  C11 UNL     1      18.691  -0.159  52.405  1.00  0.00    -0.025 C 
HETATM   12  C12 UNL     1      19.846  -0.669  53.153  1.00  0.00     0.029 C 
HETATM   13  C13 UNL     1      21.179  -0.416  52.521  1.00  0.00     0.031 C 
HETATM   14  C14 UNL     1      21.415   1.042  52.359  1.00  0.00     0.111 C 
HETATM   15  C15 UNL     1      22.645   1.498  53.163  1.00  0.00     0.088 C 
ENDROOT
BRANCH   1  16
HETATM   16  C4  UNL     1      25.149   1.066  52.529  1.00  0.00    -0.010 A 
HETATM   17  C3  UNL     1      25.769  -0.143  52.298  1.00  0.00     0.015 A 
HETATM   18  C2  UNL     1      27.113  -0.359  52.609  1.00  0.00     0.024 A 
HETATM   19  C1  UNL     1      27.793   0.704  53.163  1.00  0.00     0.034 A 
HETATM   20 CL1  UNL     1      29.465   0.636  53.618  1.00  0.00    -0.084 Cl
HETATM   21  C17 UNL     1      27.184   1.917  53.400  1.00  0.00     0.024 A 
HETATM   22  C16 UNL     1      25.858   2.125  53.091  1.00  0.00     0.015 A 
ENDBRANCH   1  16
TORSDOF 1
ENDMDL
MODEL 9
REMARK VINA RESULT:      -7.2      4.245      6.306
REMARK  1 active torsions:
REMARK  status: ('A' for Active; 'I' for Inactive)
REMARK    1  A    between atoms: C4_5  and  C5_6 
ROOT
HETATM    1  C5  UNL     1      21.708   0.520  52.454  1.00  0.00     0.066 C 
HETATM    2  N1  UNL     1      21.248   0.394  51.280  1.00  0.00    -0.180 NA
HETATM    3  N2  UNL     1      19.842   0.599  51.235  1.00  0.00    -0.290 N 
HETATM    4  C6  UNL     1      19.022   0.976  50.106  1.00  0.00     0.223 C 
HETATM    5  S1  UNL     1      18.303   2.608  50.210  1.00  0.00    -0.119 SA
HETATM    6  C7  UNL     1      17.101   2.819  51.473  1.00  0.00     0.066 C 
HETATM    7  C8  UNL     1      15.928   2.267  51.532  1.00  0.00     0.123 C 
HETATM    8  N3  UNL     1      14.905   1.449  51.059  1.00  0.00    -0.273 NA
HETATM    9  C9  UNL     1      14.727   0.211  51.208  1.00  0.00     0.116 C 
HETATM   10  C10 UNL     1      15.585  -0.685  51.939  1.00  0.00     0.015 C 
HETATM   11  C11 UNL     1      16.671  -0.867  52.657  1.00  0.00    -0.025 C 
HETATM   12  C12 UNL     1      17.808  -1.321  53.467  1.00  0.00     0.029 C 
HETATM   13  C13 UNL     1      19.155  -1.112  52.850  1.00  0.00     0.031 C 
HETATM   14  C14 UNL     1      19.397   0.331  52.591  1.00  0.00     0.111 C 
HETATM   15  C15 UNL     1      20.607   0.845  53.389  1.00  0.00     0.088 C 
ENDROOT
BRANCH   1  16
HETATM   16  C4  UNL     1      23.126   0.371  52.846  1.00  0.00    -0.010 A 
HETATM   17  C3  UNL     1      24.097   1.111  52.208  1.00  0.00     0.015 A 
HETATM   18  C2  UNL     1      25.449   1.006  52.541  1.00  0.00     0.024 A 
HETATM   19  C1  UNL     1      25.765   0.119  53.547  1.00  0.00     0.034 A 
HETATM   20 CL1  UNL     1      27.384  -0.154  54.107  1.00  0.00    -0.084 Cl
HETATM   21  C17 UNL     1      24.803  -0.627  54.192  1.00  0.00     0.024 A 
HETATM   22  C16 UNL     1      23.470  -0.519  53.860  1.00  0.00     0.015 A 
ENDBRANCH   1  16
TORSDOF 1
ENDMDL
