MODEL 1
REMARK VINA RESULT:      -8.7      0.000      0.000
REMARK  2 active torsions:
REMARK  status: ('A' for Active; 'I' for Inactive)
REMARK    1  A    between atoms: O1_2  and  C2_3 
REMARK    2  A    between atoms: C4_5  and  N1_6 
REMARK       I    between atoms: N2_10  and  C8_11 
ROOT
HETATM    1  C2  UNL     1      22.318   0.034  52.755  1.00  0.00     0.096 A 
HETATM    2  C3  UNL     1      21.270   0.665  52.113  1.00  0.00     0.069 A 
HETATM    3  C4  UNL     1      21.293   1.986  51.725  1.00  0.00     0.039 A 
HETATM    4  C12 UNL     1      22.371   2.809  51.942  1.00  0.00    -0.026 A 
HETATM    5  C13 UNL     1      23.248   1.951  52.583  1.00  0.00     0.041 A 
HETATM    6  C14 UNL     1      23.514   0.702  53.072  1.00  0.00     0.065 A 
HETATM    7  N3  UNL     1      24.627   0.134  53.709  1.00  0.00    -0.334 N 
HETATM    8  C15 UNL     1      25.809   0.943  53.426  1.00  0.00     0.380 A 
HETATM    9  N4  UNL     1      26.700   0.080  53.021  1.00  0.00    -0.043 NA
HETATM   10  C16 UNL     1      27.948   0.762  53.512  1.00  0.00     0.417 A 
HETATM   11  C17 UNL     1      27.586   2.107  52.996  1.00  0.00     0.323 A 
HETATM   12  N5  UNL     1      27.140   0.842  52.972  1.00  0.00     0.100 N 
HETATM   13  N6  UNL     1      26.624   2.709  52.187  1.00  0.00    -0.317 N 
HETATM   14  C18 UNL     1      26.062   3.152  51.000  1.00  0.00     0.243 C 
HETATM   15  O3  UNL     1      27.168   2.710  50.628  1.00  0.00    -0.269 OA
HETATM   16  C19 UNL     1      25.040   3.730  50.190  1.00  0.00     0.070 C 
HETATM   17  C20 UNL     1      23.818   4.124  50.490  1.00  0.00    -0.017 C 
HETATM   18  C21 UNL     1      22.987   4.148  51.758  1.00  0.00     0.068 C 
HETATM   19  H19 UNL     1      24.312  -0.720  54.215  1.00  0.00     0.164 HD
HETATM   20  H22 UNL     1      26.154   2.984  53.098  1.00  0.00     0.165 HD
ENDROOT
BRANCH   3  21
HETATM   21  N1  UNL     1      20.323   2.800  51.062  1.00  0.00    -0.379 N 
HETATM   22  C5  UNL     1      20.318   3.112  49.622  1.00  0.00     0.124 C 
HETATM   23  C6  UNL     1      19.027   2.653  48.979  1.00  0.00     0.040 C 
HETATM   24  C7  UNL     1      18.681   1.324  49.600  1.00  0.00     0.127 C 
HETATM   25  N2  UNL     1      17.948   1.591  50.823  1.00  0.00    -0.351 N 
HETATM   26  C8  UNL     1      17.223   0.408  51.183  1.00  0.00     0.215 C 
HETATM   27  C10 UNL     1      17.921   2.836  51.598  1.00  0.00     0.145 C 
HETATM   28  C9  UNL     1      16.315   0.118  52.332  1.00  0.00     0.117 C 
HETATM   29  O2  UNL     1      17.398  -0.518  50.384  1.00  0.00    -0.274 OA
HETATM   30  C11 UNL     1      19.299   3.336  51.909  1.00  0.00     0.143 C 
ENDBRANCH   3  21
BRANCH   1  31
HETATM   31  O1  UNL     1      22.216  -1.305  53.111  1.00  0.00    -0.354 OA
HETATM   32  C1  UNL     1      21.497  -1.642  54.280  1.00  0.00     0.210 C 
ENDBRANCH   1  31
TORSDOF 2
ENDMDL
MODEL 2
REMARK VINA RESULT:      -8.6      2.155      4.303
REMARK  2 active torsions:
REMARK  status: ('A' for Active; 'I' for Inactive)
REMARK    1  A    between atoms: O1_2  and  C2_3 
REMARK    2  A    between atoms: C4_5  and  N1_6 
REMARK       I    between atoms: N2_10  and  C8_11 
ROOT
HETATM    1  C2  UNL     1      24.397   3.449  51.512  1.00  0.00     0.096 A 
HETATM    2  C3  UNL     1      23.044   3.231  51.343  1.00  0.00     0.069 A 
HETATM    3  C4  UNL     1      22.439   2.004  51.500  1.00  0.00     0.039 A 
HETATM    4  C12 UNL     1      23.133   0.870  51.845  1.00  0.00    -0.026 A 
HETATM    5  C13 UNL     1      24.424   1.356  51.945  1.00  0.00     0.041 A 
HETATM    6  C14 UNL     1      25.284   2.416  51.864  1.00  0.00     0.065 A 
HETATM    7  N3  UNL     1      26.665   2.555  52.067  1.00  0.00    -0.334 N 
HETATM    8  C15 UNL     1      27.147   1.439  52.876  1.00  0.00     0.380 A 
HETATM    9  N4  UNL     1      27.837   2.006  53.828  1.00  0.00    -0.043 NA
HETATM   10  C16 UNL     1      28.861   0.930  54.068  1.00  0.00     0.417 A 
HETATM   11  C17 UNL     1      27.884  -0.189  54.103  1.00  0.00     0.323 A 
HETATM   12  N5  UNL     1      27.912   1.150  54.025  1.00  0.00     0.100 N 
HETATM   13  N6  UNL     1      26.506  -0.393  54.121  1.00  0.00    -0.317 N 
HETATM   14  C18 UNL     1      25.254  -0.544  54.696  1.00  0.00     0.243 C 
HETATM   15  O3  UNL     1      25.999  -0.445  55.692  1.00  0.00    -0.269 OA
HETATM   16  C19 UNL     1      23.837  -0.706  54.683  1.00  0.00     0.070 C 
HETATM   17  C20 UNL     1      22.977  -0.718  53.685  1.00  0.00    -0.017 C 
HETATM   18  C21 UNL     1      23.089  -0.577  52.180  1.00  0.00     0.068 C 
HETATM   19  H19 UNL     1      26.980   3.423  51.585  1.00  0.00     0.164 HD
HETATM   20  H22 UNL     1      26.606  -0.576  53.080  1.00  0.00     0.165 HD
ENDROOT
BRANCH   3  21
HETATM   21  N1  UNL     1      21.077   1.591  51.369  1.00  0.00    -0.379 N 
HETATM   22  C5  UNL     1      20.057   1.684  52.429  1.00  0.00     0.124 C 
HETATM   23  C6  UNL     1      18.886   2.527  51.971  1.00  0.00     0.040 C 
HETATM   24  C7  UNL     1      19.461   3.680  51.190  1.00  0.00     0.127 C 
HETATM   25  N2  UNL     1      19.642   3.233  49.821  1.00  0.00    -0.351 N 
HETATM   26  C8  UNL     1      19.737   4.388  48.977  1.00  0.00     0.215 C 
HETATM   27  C10 UNL     1      19.722   1.853  49.332  1.00  0.00     0.145 C 
HETATM   28  C9  UNL     1      19.926   4.520  47.502  1.00  0.00     0.117 C 
HETATM   29  O2  UNL     1      19.645   5.446  49.608  1.00  0.00    -0.274 OA
HETATM   30  C11 UNL     1      20.729   1.044  50.093  1.00  0.00     0.143 C 
ENDBRANCH   3  21
BRANCH   1  31
HETATM   31  O1  UNL     1      24.928   4.721  51.337  1.00  0.00    -0.354 OA
HETATM   32  C1  UNL     1      25.265   5.140  50.030  1.00  0.00     0.210 C 
ENDBRANCH   1  31
TORSDOF 2
ENDMDL
MODEL 3
REMARK VINA RESULT:      -8.2      2.034      7.503
REMARK  2 active torsions:
REMARK  status: ('A' for Active; 'I' for Inactive)
REMARK    1  A    between atoms: O1_2  and  C2_3 
REMARK    2  A    between atoms: C4_5  and  N1_6 
REMARK       I    between atoms: N2_10  and  C8_11 
ROOT
HETATM    1  C2  UNL     1      20.454  -0.099  53.144  1.00  0.00     0.096 A 
HETATM    2  C3  UNL     1      21.438   0.833  52.879  1.00  0.00     0.069 A 
HETATM    3  C4  UNL     1      21.305   1.846  51.956  1.00  0.00     0.039 A 
HETATM    4  C12 UNL     1      20.169   2.027  51.206  1.00  0.00    -0.026 A 
HETATM    5  C13 UNL     1      19.373   0.989  51.655  1.00  0.00     0.041 A 
HETATM    6  C14 UNL     1      19.214  -0.090  52.480  1.00  0.00     0.065 A 
HETATM    7  N3  UNL     1      18.160  -0.988  52.699  1.00  0.00    -0.334 N 
HETATM    8  C15 UNL     1      16.914  -0.393  52.226  1.00  0.00     0.380 A 
HETATM    9  N4  UNL     1      16.086  -0.542  53.224  1.00  0.00    -0.043 NA
HETATM   10  C16 UNL     1      14.797  -0.677  52.462  1.00  0.00     0.417 A 
HETATM   11  C17 UNL     1      15.044   0.479  51.562  1.00  0.00     0.323 A 
HETATM   12  N5  UNL     1      15.587  -0.131  52.626  1.00  0.00     0.100 N 
HETATM   13  N6  UNL     1      15.942   1.534  51.413  1.00  0.00    -0.317 N 
HETATM   14  C18 UNL     1      16.448   2.807  51.620  1.00  0.00     0.243 C 
HETATM   15  O3  UNL     1      15.375   2.836  52.255  1.00  0.00    -0.269 OA
HETATM   16  C19 UNL     1      17.409   3.854  51.489  1.00  0.00     0.070 C 
HETATM   17  C20 UNL     1      18.600   3.869  50.925  1.00  0.00    -0.017 C 
HETATM   18  C21 UNL     1      19.447   2.844  50.197  1.00  0.00     0.068 C 
HETATM   19  H19 UNL     1      18.550  -1.845  53.144  1.00  0.00     0.164 HD
HETATM   20  H22 UNL     1      16.404   0.924  50.677  1.00  0.00     0.165 HD
ENDROOT
BRANCH   3  21
HETATM   21  N1  UNL     1      22.198   2.887  51.550  1.00  0.00    -0.379 N 
HETATM   22  C5  UNL     1      22.317   4.204  52.201  1.00  0.00     0.124 C 
HETATM   23  C6  UNL     1      23.732   4.434  52.686  1.00  0.00     0.040 C 
HETATM   24  C7  UNL     1      24.218   3.122  53.245  1.00  0.00     0.127 C 
HETATM   25  N2  UNL     1      24.751   2.347  52.139  1.00  0.00    -0.351 N 
HETATM   26  C8  UNL     1      25.616   1.335  52.671  1.00  0.00     0.215 C 
HETATM   27  C10 UNL     1      24.481   2.525  50.709  1.00  0.00     0.145 C 
HETATM   28  C9  UNL     1      26.419   0.271  52.000  1.00  0.00     0.117 C 
HETATM   29  O2  UNL     1      25.689   1.374  53.904  1.00  0.00    -0.274 OA
HETATM   30  C11 UNL     1      23.013   2.578  50.414  1.00  0.00     0.143 C 
ENDBRANCH   3  21
BRANCH   1  31
HETATM   31  O1  UNL     1      20.667  -1.090  54.095  1.00  0.00    -0.354 OA
HETATM   32  C1  UNL     1      21.964  -1.247  54.630  1.00  0.00     0.210 C 
ENDBRANCH   1  31
TORSDOF 2
ENDMDL
MODEL 4
REMARK VINA RESULT:      -8.0      2.589      4.750
REMARK  2 active torsions:
REMARK  status: ('A' for Active; 'I' for Inactive)
REMARK    1  A    between atoms: O1_2  and  C2_3 
REMARK    2  A    between atoms: C4_5  and  N1_6 
REMARK       I    between atoms: N2_10  and  C8_11 
ROOT
HETATM    1  C2  UNL     1      23.400   4.468  51.457  1.00  0.00     0.096 A 
HETATM    2  C3  UNL     1      22.157   4.462  50.855  1.00  0.00     0.069 A 
HETATM    3  C4  UNL     1      21.511   3.320  50.440  1.00  0.00     0.039 A 
HETATM    4  C12 UNL     1      22.048   2.064  50.587  1.00  0.00    -0.026 A 
HETATM    5  C13 UNL     1      23.258   2.351  51.194  1.00  0.00     0.041 A 
HETATM    6  C14 UNL     1      24.121   3.285  51.697  1.00  0.00     0.065 A 
HETATM    7  N3  UNL     1      25.379   3.202  52.312  1.00  0.00    -0.334 N 
HETATM    8  C15 UNL     1      25.575   1.849  52.826  1.00  0.00     0.380 A 
HETATM    9  N4  UNL     1      25.956   2.027  54.062  1.00  0.00    -0.043 NA
HETATM   10  C16 UNL     1      26.841   0.822  54.226  1.00  0.00     0.417 A 
HETATM   11  C17 UNL     1      25.879  -0.141  53.629  1.00  0.00     0.323 A 
HETATM   12  N5  UNL     1      25.953   1.149  53.990  1.00  0.00     0.100 N 
HETATM   13  N6  UNL     1      24.556  -0.186  53.195  1.00  0.00    -0.317 N 
HETATM   14  C18 UNL     1      23.187  -0.360  53.317  1.00  0.00     0.243 C 
HETATM   15  O3  UNL     1      23.599  -0.646  54.459  1.00  0.00    -0.269 OA
HETATM   16  C19 UNL     1      21.836  -0.352  52.857  1.00  0.00     0.070 C 
HETATM   17  C20 UNL     1      21.317   0.029  51.707  1.00  0.00    -0.017 C 
HETATM   18  C21 UNL     1      21.880   0.598  50.420  1.00  0.00     0.068 C 
HETATM   19  H19 UNL     1      25.840   4.132  52.238  1.00  0.00     0.164 HD
HETATM   20  H22 UNL     1      24.962  -0.061  52.221  1.00  0.00     0.165 HD
ENDROOT
BRANCH   3  21
HETATM   21  N1  UNL     1      20.245   3.118  49.808  1.00  0.00    -0.379 N 
HETATM   22  C5  UNL     1      18.961   2.955  50.514  1.00  0.00     0.124 C 
HETATM   23  C6  UNL     1      17.975   4.021  50.084  1.00  0.00     0.040 C 
HETATM   24  C7  UNL     1      18.755   5.303  49.945  1.00  0.00     0.127 C 
HETATM   25  N2  UNL     1      19.323   5.326  48.610  1.00  0.00    -0.351 N 
HETATM   26  C8  UNL     1      19.662   6.681  48.287  1.00  0.00     0.215 C 
HETATM   27  C10 UNL     1      19.539   4.190  47.709  1.00  0.00     0.145 C 
HETATM   28  C9  UNL     1      20.270   7.280  47.062  1.00  0.00     0.117 C 
HETATM   29  O2  UNL     1      19.393   7.468  49.200  1.00  0.00    -0.274 OA
HETATM   30  C11 UNL     1      20.279   3.072  48.377  1.00  0.00     0.143 C 
ENDBRANCH   3  21
BRANCH   1  31
HETATM   31  O1  UNL     1      23.982   5.667  51.849  1.00  0.00    -0.354 OA
HETATM   32  C1  UNL     1      24.331   6.608  50.855  1.00  0.00     0.210 C 
ENDBRANCH   1  31
TORSDOF 2
ENDMDL
MODEL 5
REMARK VINA RESULT:      -7.9      5.627      9.719
REMARK  2 active torsions:
REMARK  status: ('A' for Active; 'I' for Inactive)
REMARK    1  A    between atoms: O1_2  and  C2_3 
REMARK    2  A    between atoms: C4_5  and  N1_6 
REMARK       I    between atoms: N2_10  and  C8_11 
ROOT
HETATM    1  C2  UNL     1      28.009   5.654  48.429  1.00  0.00     0.096 A 
HETATM    2  C3  UNL     1      27.951   6.962  47.990  1.00  0.00     0.069 A 
HETATM    3  C4  UNL     1      26.788   7.696  47.920  1.00  0.00     0.039 A 
HETATM    4  C12 UNL     1      25.565   7.191  48.286  1.00  0.00    -0.026 A 
HETATM    5  C13 UNL     1      25.901   5.905  48.671  1.00  0.00     0.041 A 
HETATM    6  C14 UNL     1      26.865   4.952  48.847  1.00  0.00     0.065 A 
HETATM    7  N3  UNL     1      26.839   3.631  49.318  1.00  0.00    -0.334 N 
HETATM    8  C15 UNL     1      25.624   3.422  50.100  1.00  0.00     0.380 A 
HETATM    9  N4  UNL     1      26.045   2.883  51.212  1.00  0.00    -0.043 NA
HETATM   10  C16 UNL     1      24.851   2.029  51.543  1.00  0.00     0.417 A 
HETATM   11  C17 UNL     1      23.844   3.093  51.293  1.00  0.00     0.323 A 
HETATM   12  N5  UNL     1      25.175   2.927  51.341  1.00  0.00     0.100 N 
HETATM   13  N6  UNL     1      23.789   4.461  51.033  1.00  0.00    -0.317 N 
HETATM   14  C18 UNL     1      23.734   5.809  51.347  1.00  0.00     0.243 C 
HETATM   15  O3  UNL     1      23.682   5.268  52.469  1.00  0.00    -0.269 OA
HETATM   16  C19 UNL     1      23.726   7.206  51.054  1.00  0.00     0.070 C 
HETATM   17  C20 UNL     1      23.877   7.851  49.914  1.00  0.00    -0.017 C 
HETATM   18  C21 UNL     1      24.111   7.433  48.476  1.00  0.00     0.068 C 
HETATM   19  H19 UNL     1      27.700   3.149  48.983  1.00  0.00     0.164 HD
HETATM   20  H22 UNL     1      23.670   4.176  50.018  1.00  0.00     0.165 HD
ENDROOT
BRANCH   3  21
HETATM   21  N1  UNL     1      26.534   9.038  47.499  1.00  0.00    -0.379 N 
HETATM   22  C5  UNL     1      26.445  10.206  48.394  1.00  0.00     0.124 C 
HETATM   23  C6  UNL     1      27.470  11.252  48.011  1.00  0.00     0.040 C 
HETATM   24  C7  UNL     1      28.729  10.512  47.642  1.00  0.00     0.127 C 
HETATM   25  N2  UNL     1      28.623  10.141  46.243  1.00  0.00    -0.351 N 
HETATM   26  C8  UNL     1      29.939   9.864  45.747  1.00  0.00     0.215 C 
HETATM   27  C10 UNL     1      27.405  10.047  45.431  1.00  0.00     0.145 C 
HETATM   28  C9  UNL     1      30.417   9.444  44.397  1.00  0.00     0.117 C 
HETATM   29  O2  UNL     1      30.811  10.007  46.611  1.00  0.00    -0.274 OA
HETATM   30  C11 UNL     1      26.352   9.208  46.089  1.00  0.00     0.143 C 
ENDBRANCH   3  21
BRANCH   1  31
HETATM   31  O1  UNL     1      29.226   4.983  48.471  1.00  0.00    -0.354 OA
HETATM   32  C1  UNL     1      30.389   5.663  48.047  1.00  0.00     0.210 C 
ENDBRANCH   1  31
TORSDOF 2
ENDMDL
MODEL 6
REMARK VINA RESULT:      -7.8      9.128     12.992
REMARK  2 active torsions:
REMARK  status: ('A' for Active; 'I' for Inactive)
REMARK    1  A    between atoms: O1_2  and  C2_3 
REMARK    2  A    between atoms: C4_5  and  N1_6 
REMARK       I    between atoms: N2_10  and  C8_11 
ROOT
HETATM    1  C2  UNL     1      28.607   7.540  47.520  1.00  0.00     0.096 A 
HETATM    2  C3  UNL     1      29.955   7.236  47.512  1.00  0.00     0.069 A 
HETATM    3  C4  UNL     1      30.947   8.158  47.265  1.00  0.00     0.039 A 
HETATM    4  C12 UNL     1      30.687   9.480  47.001  1.00  0.00    -0.026 A 
HETATM    5  C13 UNL     1      29.305   9.508  47.066  1.00  0.00     0.041 A 
HETATM    6  C14 UNL     1      28.131   8.838  47.270  1.00  0.00     0.065 A 
HETATM    7  N3  UNL     1      26.785   9.233  47.273  1.00  0.00    -0.334 N 
HETATM    8  C15 UNL     1      26.706  10.677  47.470  1.00  0.00     0.380 A 
HETATM    9  N4  UNL     1      25.841  10.824  48.436  1.00  0.00    -0.043 NA
HETATM   10  C16 UNL     1      25.253  12.152  48.045  1.00  0.00     0.417 A 
HETATM   11  C17 UNL     1      26.559  12.815  47.794  1.00  0.00     0.323 A 
HETATM   12  N5  UNL     1      26.066  11.656  48.256  1.00  0.00     0.100 N 
HETATM   13  N6  UNL     1      27.921  12.574  47.965  1.00  0.00    -0.317 N 
HETATM   14  C18 UNL     1      29.133  12.569  48.635  1.00  0.00     0.243 C 
HETATM   15  O3  UNL     1      28.379  13.147  49.444  1.00  0.00    -0.269 OA
HETATM   16  C19 UNL     1      30.518  12.267  48.802  1.00  0.00     0.070 C 
HETATM   17  C20 UNL     1      31.349  11.578  48.046  1.00  0.00    -0.017 C 
HETATM   18  C21 UNL     1      31.227  10.837  46.729  1.00  0.00     0.068 C 
HETATM   19  H19 UNL     1      26.197   8.385  47.133  1.00  0.00     0.164 HD
HETATM   20  H22 UNL     1      27.914  12.306  46.938  1.00  0.00     0.165 HD
ENDROOT
BRANCH   3  21
HETATM   21  N1  UNL     1      32.370   8.033  47.214  1.00  0.00    -0.379 N 
HETATM   22  C5  UNL     1      33.291   8.368  48.316  1.00  0.00     0.124 C 
HETATM   23  C6  UNL     1      34.117   7.161  48.707  1.00  0.00     0.040 C 
HETATM   24  C7  UNL     1      33.197   5.969  48.650  1.00  0.00     0.127 C 
HETATM   25  N2  UNL     1      33.189   5.488  47.281  1.00  0.00    -0.351 N 
HETATM   26  C8  UNL     1      32.722   4.132  47.281  1.00  0.00     0.215 C 
HETATM   27  C10 UNL     1      33.579   6.220  46.072  1.00  0.00     0.145 C 
HETATM   28  C9  UNL     1      32.515   3.160  46.167  1.00  0.00     0.117 C 
HETATM   29  O2  UNL     1      32.449   3.724  48.414  1.00  0.00    -0.274 OA
HETATM   30  C11 UNL     1      32.894   7.549  45.973  1.00  0.00     0.143 C 
ENDBRANCH   3  21
BRANCH   1  31
HETATM   31  O1  UNL     1      27.668   6.549  47.782  1.00  0.00    -0.354 OA
HETATM   32  C1  UNL     1      28.094   5.366  48.425  1.00  0.00     0.210 C 
ENDBRANCH   1  31
TORSDOF 2
ENDMDL
MODEL 7
REMARK VINA RESULT:      -7.8      3.522      6.130
REMARK  2 active torsions:
REMARK  status: ('A' for Active; 'I' for Inactive)
REMARK    1  A    between atoms: O1_2  and  C2_3 
REMARK    2  A    between atoms: C4_5  and  N1_6 
REMARK       I    between atoms: N2_10  and  C8_11 
ROOT
HETATM    1  C2  UNL     1      24.753   4.835  49.690  1.00  0.00     0.096 A 
HETATM    2  C3  UNL     1      23.743   5.094  48.784  1.00  0.00     0.069 A 
HETATM    3  C4  UNL     1      22.798   4.167  48.404  1.00  0.00     0.039 A 
HETATM    4  C12 UNL     1      22.771   2.885  48.896  1.00  0.00    -0.026 A 
HETATM    5  C13 UNL     1      23.859   2.895  49.751  1.00  0.00     0.041 A 
HETATM    6  C14 UNL     1      24.903   3.581  50.307  1.00  0.00     0.065 A 
HETATM    7  N3  UNL     1      25.890   3.240  51.243  1.00  0.00    -0.334 N 
HETATM    8  C15 UNL     1      25.449   2.077  52.007  1.00  0.00     0.380 A 
HETATM    9  N4  UNL     1      25.627   2.423  53.253  1.00  0.00    -0.043 NA
HETATM   10  C16 UNL     1      25.931   1.074  53.846  1.00  0.00     0.417 A 
HETATM   11  C17 UNL     1      24.804   0.371  53.178  1.00  0.00     0.323 A 
HETATM   12  N5  UNL     1      25.300   1.609  53.328  1.00  0.00     0.100 N 
HETATM   13  N6  UNL     1      23.674   0.662  52.417  1.00  0.00    -0.317 N 
HETATM   14  C18 UNL     1      22.348   0.993  52.193  1.00  0.00     0.243 C 
HETATM   15  O3  UNL     1      22.393   0.885  53.435  1.00  0.00    -0.269 OA
HETATM   16  C19 UNL     1      21.218   1.335  51.391  1.00  0.00     0.070 C 
HETATM   17  C20 UNL     1      21.114   1.565  50.097  1.00  0.00    -0.017 C 
HETATM   18  C21 UNL     1      22.086   1.568  48.934  1.00  0.00     0.068 C 
HETATM   19  H19 UNL     1      26.679   3.913  51.144  1.00  0.00     0.164 HD
HETATM   20  H22 UNL     1      24.273   0.394  51.583  1.00  0.00     0.165 HD
ENDROOT
BRANCH   3  21
HETATM   21  N1  UNL     1      21.696   4.248  47.497  1.00  0.00    -0.379 N 
HETATM   22  C5  UNL     1      20.326   4.651  47.860  1.00  0.00     0.124 C 
HETATM   23  C6  UNL     1      19.892   5.858  47.055  1.00  0.00     0.040 C 
HETATM   24  C7  UNL     1      21.089   6.768  46.960  1.00  0.00     0.127 C 
HETATM   25  N2  UNL     1      21.883   6.329  45.827  1.00  0.00    -0.351 N 
HETATM   26  C8  UNL     1      22.740   7.408  45.430  1.00  0.00     0.215 C 
HETATM   27  C10 UNL     1      21.854   5.021  45.166  1.00  0.00     0.145 C 
HETATM   28  C9  UNL     1      23.754   7.513  44.339  1.00  0.00     0.117 C 
HETATM   29  O2  UNL     1      22.594   8.413  46.132  1.00  0.00    -0.274 OA
HETATM   30  C11 UNL     1      21.997   3.893  46.143  1.00  0.00     0.143 C 
ENDBRANCH   3  21
BRANCH   1  31
HETATM   31  O1  UNL     1      25.666   5.828  50.021  1.00  0.00    -0.354 OA
HETATM   32  C1  UNL     1      25.177   7.086  50.439  1.00  0.00     0.210 C 
ENDBRANCH   1  31
TORSDOF 2
ENDMDL
MODEL 8
REMARK VINA RESULT:      -7.7      7.909     10.725
REMARK  2 active torsions:
REMARK  status: ('A' for Active; 'I' for Inactive)
REMARK    1  A    between atoms: O1_2  and  C2_3 
REMARK    2  A    between atoms: C4_5  and  N1_6 
REMARK       I    between atoms: N2_10  and  C8_11 
ROOT
HETATM    1  C2  UNL     1      29.454   6.381  48.326  1.00  0.00     0.096 A 
HETATM    2  C3  UNL     1      28.590   7.407  47.998  1.00  0.00     0.069 A 
HETATM    3  C4  UNL     1      28.941   8.738  48.007  1.00  0.00     0.039 A 
HETATM    4  C12 UNL     1      30.198   9.175  48.346  1.00  0.00    -0.026 A 
HETATM    5  C13 UNL     1      30.840   7.981  48.624  1.00  0.00     0.041 A 
HETATM    6  C14 UNL     1      30.787   6.617  48.704  1.00  0.00     0.065 A 
HETATM    7  N3  UNL     1      31.731   5.634  49.039  1.00  0.00    -0.334 N 
HETATM    8  C15 UNL     1      33.074   6.186  48.888  1.00  0.00     0.380 A 
HETATM    9  N4  UNL     1      33.707   5.301  48.166  1.00  0.00    -0.043 NA
HETATM   10  C16 UNL     1      35.097   5.484  48.709  1.00  0.00     0.417 A 
HETATM   11  C17 UNL     1      35.080   6.968  48.641  1.00  0.00     0.323 A 
HETATM   12  N5  UNL     1      34.325   5.914  48.297  1.00  0.00     0.100 N 
HETATM   13  N6  UNL     1      34.288   7.998  48.138  1.00  0.00    -0.317 N 
HETATM   14  C18 UNL     1      33.833   8.900  47.189  1.00  0.00     0.243 C 
HETATM   15  O3  UNL     1      34.781   8.342  46.600  1.00  0.00    -0.269 OA
HETATM   16  C19 UNL     1      32.976   9.922  46.683  1.00  0.00     0.070 C 
HETATM   17  C20 UNL     1      31.903  10.485  47.201  1.00  0.00    -0.017 C 
HETATM   18  C21 UNL     1      31.133  10.320  48.497  1.00  0.00     0.068 C 
HETATM   19  H19 UNL     1      31.218   4.768  49.306  1.00  0.00     0.164 HD
HETATM   20  H22 UNL     1      33.924   8.086  49.131  1.00  0.00     0.165 HD
ENDROOT
BRANCH   3  21
HETATM   21  N1  UNL     1      28.198   9.921  47.705  1.00  0.00    -0.379 N 
HETATM   22  C5  UNL     1      28.126  10.562  46.379  1.00  0.00     0.124 C 
HETATM   23  C6  UNL     1      26.692  10.643  45.901  1.00  0.00     0.040 C 
HETATM   24  C7  UNL     1      26.029   9.349  46.298  1.00  0.00     0.127 C 
HETATM   25  N2  UNL     1      25.556   9.500  47.662  1.00  0.00    -0.351 N 
HETATM   26  C8  UNL     1      24.549   8.509  47.904  1.00  0.00     0.215 C 
HETATM   27  C10 UNL     1      26.000  10.478  48.660  1.00  0.00     0.145 C 
HETATM   28  C9  UNL     1      23.733   8.207  49.117  1.00  0.00     0.117 C 
HETATM   29  O2  UNL     1      24.341   7.793  46.918  1.00  0.00    -0.274 OA
HETATM   30  C11 UNL     1      27.490  10.494  48.810  1.00  0.00     0.143 C 
ENDBRANCH   3  21
BRANCH   1  31
HETATM   31  O1  UNL     1      29.020   5.062  48.288  1.00  0.00    -0.354 OA
HETATM   32  C1  UNL     1      27.682   4.779  48.645  1.00  0.00     0.210 C 
ENDBRANCH   1  31
TORSDOF 2
ENDMDL
MODEL 9
REMARK VINA RESULT:      -7.5      3.245      5.251
REMARK  2 active torsions:
REMARK  status: ('A' for Active; 'I' for Inactive)
REMARK    1  A    between atoms: O1_2  and  C2_3 
REMARK    2  A    between atoms: C4_5  and  N1_6 
REMARK       I    between atoms: N2_10  and  C8_11 
ROOT
HETATM    1  C2  UNL     1      25.059   3.287  50.675  1.00  0.00     0.096 A 
HETATM    2  C3  UNL     1      23.822   2.704  50.863  1.00  0.00     0.069 A 
HETATM    3  C4  UNL     1      22.627   3.371  50.711  1.00  0.00     0.039 A 
HETATM    4  C12 UNL     1      22.554   4.695  50.352  1.00  0.00    -0.026 A 
HETATM    5  C13 UNL     1      23.893   5.023  50.234  1.00  0.00     0.041 A 
HETATM    6  C14 UNL     1      25.202   4.636  50.306  1.00  0.00     0.065 A 
HETATM    7  N3  UNL     1      26.417   5.301  50.083  1.00  0.00    -0.334 N 
HETATM    8  C15 UNL     1      26.175   6.484  49.263  1.00  0.00     0.380 A 
HETATM    9  N4  UNL     1      27.055   6.397  48.303  1.00  0.00    -0.043 NA
HETATM   10  C16 UNL     1      27.289   7.860  48.043  1.00  0.00     0.417 A 
HETATM   11  C17 UNL     1      25.849   8.230  48.020  1.00  0.00     0.323 A 
HETATM   12  N5  UNL     1      26.631   7.142  48.102  1.00  0.00     0.100 N 
HETATM   13  N6  UNL     1      24.597   7.619  48.021  1.00  0.00    -0.317 N 
HETATM   14  C18 UNL     1      23.474   7.029  47.465  1.00  0.00     0.243 C 
HETATM   15  O3  UNL     1      24.134   7.357  46.458  1.00  0.00    -0.269 OA
HETATM   16  C19 UNL     1      22.214   6.361  47.498  1.00  0.00     0.070 C 
HETATM   17  C20 UNL     1      21.508   5.896  48.509  1.00  0.00    -0.017 C 
HETATM   18  C21 UNL     1      21.696   5.860  50.013  1.00  0.00     0.068 C 
HETATM   19  H19 UNL     1      27.173   4.769  50.563  1.00  0.00     0.164 HD
HETATM   20  H22 UNL     1      24.588   7.838  49.060  1.00  0.00     0.165 HD
ENDROOT
BRANCH   3  21
HETATM   21  N1  UNL     1      21.272   2.944  50.860  1.00  0.00    -0.379 N 
HETATM   22  C5  UNL     1      20.462   2.307  49.807  1.00  0.00     0.124 C 
HETATM   23  C6  UNL     1      19.978   0.944  50.255  1.00  0.00     0.040 C 
HETATM   24  C7  UNL     1      21.117   0.305  51.006  1.00  0.00     0.127 C 
HETATM   25  N2  UNL     1      21.039   0.757  52.383  1.00  0.00    -0.351 N 
HETATM   26  C8  UNL     1      21.784  -0.155  53.201  1.00  0.00     0.215 C 
HETATM   27  C10 UNL     1      20.337   1.935  52.901  1.00  0.00     0.145 C 
HETATM   28  C9  UNL     1      22.041  -0.179  54.672  1.00  0.00     0.117 C 
HETATM   29  O2  UNL     1      22.292  -1.073  52.548  1.00  0.00    -0.274 OA
HETATM   30  C11 UNL     1      20.699   3.181  52.151  1.00  0.00     0.143 C 
ENDBRANCH   3  21
BRANCH   1  31
HETATM   31  O1  UNL     1      26.218   2.541  50.847  1.00  0.00    -0.354 OA
HETATM   32  C1  UNL     1      26.306   1.672  51.957  1.00  0.00     0.210 C 
ENDBRANCH   1  31
TORSDOF 2
ENDMDL
