MODEL 1
REMARK VINA RESULT:      -8.7      0.000      0.000
REMARK  3 active torsions:
REMARK  status: ('A' for Active; 'I' for Inactive)
REMARK       I    between atoms: N1_1  and  C1_2 
REMARK       I    between atoms: C1_2  and  N2_4 
REMARK    1  A    between atoms: N2_4  and  C2_5 
REMARK    2  A    between atoms: C7_12  and  N5_13 
REMARK    3  A    between atoms: N5_13  and  C8_14 
ROOT
HETATM    1  C2  UNL     1      24.478   3.112  50.949  1.00  0.00     0.037 A 
HETATM    2  C3  UNL     1      23.247   2.857  50.380  1.00  0.00     0.032 A 
HETATM    3  C4  UNL     1      22.457   1.802  50.833  1.00  0.00     0.035 A 
HETATM    4  C5  UNL     1      22.902   0.989  51.868  1.00  0.00     0.072 A 
HETATM    5  N3  UNL     1      22.142  -0.044  52.321  1.00  0.00    -0.241 NA
HETATM    6  C6  UNL     1      22.580  -0.825  53.324  1.00  0.00     0.236 A 
HETATM    7  N4  UNL     1      23.796  -0.587  53.898  1.00  0.00    -0.224 NA
HETATM    8  C7  UNL     1      24.528   0.437  53.435  1.00  0.00     0.142 A 
HETATM    9  C15 UNL     1      24.150   1.282  52.414  1.00  0.00     0.041 A 
HETATM   10  C16 UNL     1      24.937   2.318  51.976  1.00  0.00     0.047 A 
ENDROOT
BRANCH   8  11
HETATM   11  N5  UNL     1      25.779   0.614  54.088  1.00  0.00    -0.340 N 
HETATM   12  H7  UNL     1      26.075   1.197  54.901  1.00  0.00     0.167 HD
BRANCH  11  13
HETATM   13  C8  UNL     1      26.934  -0.085  53.642  1.00  0.00     0.030 C 
HETATM   14  C9  UNL     1      28.151   0.343  53.931  1.00  0.00     0.006 C 
HETATM   15  C10 UNL     1      29.530  -0.096  53.655  1.00  0.00     0.056 C 
HETATM   16  C11 UNL     1      29.677  -1.550  53.509  1.00  0.00    -0.023 C 
HETATM   17  C12 UNL     1      28.825  -2.491  53.073  1.00  0.00    -0.004 C 
HETATM   18  C13 UNL     1      27.440  -2.315  52.598  1.00  0.00     0.002 C 
HETATM   19  C14 UNL     1      26.668  -1.281  52.859  1.00  0.00     0.029 C 
ENDBRANCH  11  13
ENDBRANCH   8  11
BRANCH   1  20
HETATM   20  N2  UNL     1      25.318   4.182  50.515  1.00  0.00    -0.309 N 
HETATM   21  C1  UNL     1      26.486   4.242  49.694  1.00  0.00     0.318 C 
HETATM   22  N1  UNL     1      27.060   5.519  49.482  1.00  0.00    -0.352 N 
HETATM   23  O1  UNL     1      27.039   3.244  49.149  1.00  0.00    -0.247 OA
HETATM   24  H1  UNL     1      27.277   6.338  50.097  1.00  0.00     0.160 HD
HETATM   25  H2  UNL     1      27.351   5.752  48.504  1.00  0.00     0.160 HD
HETATM   26  H3  UNL     1      24.925   5.061  50.929  1.00  0.00     0.170 HD
ENDBRANCH   1  20
TORSDOF 3
ENDMDL
MODEL 2
REMARK VINA RESULT:      -8.6      2.307      5.528
REMARK  3 active torsions:
REMARK  status: ('A' for Active; 'I' for Inactive)
REMARK       I    between atoms: N1_1  and  C1_2 
REMARK       I    between atoms: C1_2  and  N2_4 
REMARK    1  A    between atoms: N2_4  and  C2_5 
REMARK    2  A    between atoms: C7_12  and  N5_13 
REMARK    3  A    between atoms: N5_13  and  C8_14 
ROOT
HETATM    1  C2  UNL     1      26.196   1.177  53.934  1.00  0.00     0.037 A 
HETATM    2  C3  UNL     1      25.574  -0.049  54.040  1.00  0.00     0.032 A 
HETATM    3  C4  UNL     1      24.311  -0.257  53.490  1.00  0.00     0.035 A 
HETATM    4  C5  UNL     1      23.658   0.774  52.826  1.00  0.00     0.072 A 
HETATM    5  N3  UNL     1      22.424   0.587  52.284  1.00  0.00    -0.241 NA
HETATM    6  C6  UNL     1      21.801   1.591  51.643  1.00  0.00     0.236 A 
HETATM    7  N4  UNL     1      22.403   2.811  51.530  1.00  0.00    -0.224 NA
HETATM    8  C7  UNL     1      23.619   2.973  52.072  1.00  0.00     0.142 A 
HETATM    9  C15 UNL     1      24.323   1.996  52.743  1.00  0.00     0.041 A 
HETATM   10  C16 UNL     1      25.567   2.213  53.281  1.00  0.00     0.047 A 
ENDROOT
BRANCH   8  11
HETATM   11  N5  UNL     1      24.172   4.273  51.909  1.00  0.00    -0.340 N 
HETATM   12  H7  UNL     1      24.205   5.109  52.532  1.00  0.00     0.167 HD
BRANCH  11  13
HETATM   13  C8  UNL     1      24.839   4.631  50.705  1.00  0.00     0.030 C 
HETATM   14  C9  UNL     1      24.588   5.776  50.094  1.00  0.00     0.006 C 
HETATM   15  C10 UNL     1      25.062   6.463  48.880  1.00  0.00     0.056 C 
HETATM   16  C11 UNL     1      26.450   6.149  48.517  1.00  0.00    -0.023 C 
HETATM   17  C12 UNL     1      27.193   5.050  48.713  1.00  0.00    -0.004 C 
HETATM   18  C13 UNL     1      26.802   3.792  49.377  1.00  0.00     0.002 C 
HETATM   19  C14 UNL     1      25.798   3.652  50.216  1.00  0.00     0.029 C 
ENDBRANCH  11  13
ENDBRANCH   8  11
BRANCH   1  20
HETATM   20  N2  UNL     1      27.490   1.432  54.484  1.00  0.00    -0.309 N 
HETATM   21  C1  UNL     1      28.666   2.063  53.974  1.00  0.00     0.318 C 
HETATM   22  N1  UNL     1      29.787   2.130  54.838  1.00  0.00    -0.352 N 
HETATM   23  O1  UNL     1      28.776   2.560  52.817  1.00  0.00    -0.247 OA
HETATM   24  H1  UNL     1      30.257   1.455  55.484  1.00  0.00     0.160 HD
HETATM   25  H2  UNL     1      30.299   3.042  54.879  1.00  0.00     0.160 HD
HETATM   26  H3  UNL     1      27.485   1.045  55.458  1.00  0.00     0.170 HD
ENDBRANCH   1  20
TORSDOF 3
ENDMDL
MODEL 3
REMARK VINA RESULT:      -8.6      2.037      4.285
REMARK  3 active torsions:
REMARK  status: ('A' for Active; 'I' for Inactive)
REMARK       I    between atoms: N1_1  and  C1_2 
REMARK       I    between atoms: C1_2  and  N2_4 
REMARK    1  A    between atoms: N2_4  and  C2_5 
REMARK    2  A    between atoms: C7_12  and  N5_13 
REMARK    3  A    between atoms: N5_13  and  C8_14 
ROOT
HETATM    1  C2  UNL     1      22.509   1.392  52.282  1.00  0.00     0.037 A 
HETATM    2  C3  UNL     1      22.069   2.056  51.156  1.00  0.00     0.032 A 
HETATM    3  C4  UNL     1      22.969   2.719  50.323  1.00  0.00     0.035 A 
HETATM    4  C5  UNL     1      24.326   2.722  50.620  1.00  0.00     0.072 A 
HETATM    5  N3  UNL     1      25.216   3.366  49.817  1.00  0.00    -0.241 NA
HETATM    6  C6  UNL     1      26.527   3.362  50.112  1.00  0.00     0.236 A 
HETATM    7  N4  UNL     1      26.979   2.711  51.224  1.00  0.00    -0.224 NA
HETATM    8  C7  UNL     1      26.084   2.084  52.001  1.00  0.00     0.142 A 
HETATM    9  C15 UNL     1      24.726   2.040  51.767  1.00  0.00     0.041 A 
HETATM   10  C16 UNL     1      23.849   1.383  52.595  1.00  0.00     0.047 A 
ENDROOT
BRANCH   8  11
HETATM   11  N5  UNL     1      26.639   1.432  53.136  1.00  0.00    -0.340 N 
HETATM   12  H7  UNL     1      26.562   1.612  54.161  1.00  0.00     0.167 HD
BRANCH  11  13
HETATM   13  C8  UNL     1      27.481   0.296  52.981  1.00  0.00     0.030 C 
HETATM   14  C9  UNL     1      28.745   0.320  53.367  1.00  0.00     0.006 C 
HETATM   15  C10 UNL     1      29.877  -0.622  53.367  1.00  0.00     0.056 C 
HETATM   16  C11 UNL     1      29.483  -2.032  53.485  1.00  0.00    -0.023 C 
HETATM   17  C12 UNL     1      28.377  -2.682  53.092  1.00  0.00    -0.004 C 
HETATM   18  C13 UNL     1      27.195  -2.133  52.401  1.00  0.00     0.002 C 
HETATM   19  C14 UNL     1      26.846  -0.864  52.375  1.00  0.00     0.029 C 
ENDBRANCH  11  13
ENDBRANCH   8  11
BRANCH   1  20
HETATM   20  N2  UNL     1      21.621   0.700  53.162  1.00  0.00    -0.309 N 
HETATM   21  C1  UNL     1      21.537  -0.655  53.604  1.00  0.00     0.318 C 
HETATM   22  N1  UNL     1      20.490  -0.975  54.503  1.00  0.00    -0.352 N 
HETATM   23  O1  UNL     1      22.322  -1.581  53.251  1.00  0.00    -0.247 OA
HETATM   24  H1  UNL     1      19.470  -0.746  54.554  1.00  0.00     0.160 HD
HETATM   25  H2  UNL     1      20.737  -1.576  55.324  1.00  0.00     0.160 HD
HETATM   26  H3  UNL     1      20.926   1.407  53.505  1.00  0.00     0.170 HD
ENDBRANCH   1  20
TORSDOF 3
ENDMDL
MODEL 4
REMARK VINA RESULT:      -8.5      3.098      3.743
REMARK  3 active torsions:
REMARK  status: ('A' for Active; 'I' for Inactive)
REMARK       I    between atoms: N1_1  and  C1_2 
REMARK       I    between atoms: C1_2  and  N2_4 
REMARK    1  A    between atoms: N2_4  and  C2_5 
REMARK    2  A    between atoms: C7_12  and  N5_13 
REMARK    3  A    between atoms: N5_13  and  C8_14 
ROOT
HETATM    1  C2  UNL     1      21.530   0.659  52.546  1.00  0.00     0.037 A 
HETATM    2  C3  UNL     1      20.662  -0.034  53.363  1.00  0.00     0.032 A 
HETATM    3  C4  UNL     1      21.140  -0.800  54.424  1.00  0.00     0.035 A 
HETATM    4  C5  UNL     1      22.505  -0.876  54.673  1.00  0.00     0.072 A 
HETATM    5  N3  UNL     1      22.988  -1.621  55.704  1.00  0.00    -0.241 NA
HETATM    6  C6  UNL     1      24.310  -1.687  55.938  1.00  0.00     0.236 A 
HETATM    7  N4  UNL     1      25.183  -1.008  55.138  1.00  0.00    -0.224 NA
HETATM    8  C7  UNL     1      24.685  -0.281  54.127  1.00  0.00     0.142 A 
HETATM    9  C15 UNL     1      23.346  -0.161  53.822  1.00  0.00     0.041 A 
HETATM   10  C16 UNL     1      22.886   0.598  52.774  1.00  0.00     0.047 A 
ENDROOT
BRANCH   8  11
HETATM   11  N5  UNL     1      25.663   0.394  53.345  1.00  0.00    -0.340 N 
HETATM   12  H7  UNL     1      25.638   1.280  52.794  1.00  0.00     0.167 HD
BRANCH  11  13
HETATM   13  C8  UNL     1      26.974  -0.139  53.206  1.00  0.00     0.030 C 
HETATM   14  C9  UNL     1      28.038   0.545  53.590  1.00  0.00     0.006 C 
HETATM   15  C10 UNL     1      29.495   0.330  53.603  1.00  0.00     0.056 C 
HETATM   16  C11 UNL     1      29.892  -1.077  53.742  1.00  0.00    -0.023 C 
HETATM   17  C12 UNL     1      29.289  -2.213  53.360  1.00  0.00    -0.004 C 
HETATM   18  C13 UNL     1      27.999  -2.369  52.662  1.00  0.00     0.002 C 
HETATM   19  C14 UNL     1      27.041  -1.468  52.618  1.00  0.00     0.029 C 
ENDBRANCH  11  13
ENDBRANCH   8  11
BRANCH   1  20
HETATM   20  N2  UNL     1      21.082   1.456  51.448  1.00  0.00    -0.309 N 
HETATM   21  C1  UNL     1      20.261   2.620  51.350  1.00  0.00     0.318 C 
HETATM   22  N1  UNL     1      20.031   3.140  50.053  1.00  0.00    -0.352 N 
HETATM   23  O1  UNL     1      19.728   3.214  52.332  1.00  0.00    -0.247 OA
HETATM   24  H1  UNL     1      19.790   2.720  49.125  1.00  0.00     0.160 HD
HETATM   25  H2  UNL     1      20.108   4.178  49.937  1.00  0.00     0.160 HD
HETATM   26  H3  UNL     1      21.484   1.026  50.580  1.00  0.00     0.170 HD
ENDBRANCH   1  20
TORSDOF 3
ENDMDL
MODEL 5
REMARK VINA RESULT:      -8.4      2.918      5.108
REMARK  3 active torsions:
REMARK  status: ('A' for Active; 'I' for Inactive)
REMARK       I    between atoms: N1_1  and  C1_2 
REMARK       I    between atoms: C1_2  and  N2_4 
REMARK    1  A    between atoms: N2_4  and  C2_5 
REMARK    2  A    between atoms: C7_12  and  N5_13 
REMARK    3  A    between atoms: N5_13  and  C8_14 
ROOT
HETATM    1  C2  UNL     1      20.780   0.481  53.248  1.00  0.00     0.037 A 
HETATM    2  C3  UNL     1      20.441   1.731  52.774  1.00  0.00     0.032 A 
HETATM    3  C4  UNL     1      21.417   2.593  52.276  1.00  0.00     0.035 A 
HETATM    4  C5  UNL     1      22.750   2.201  52.252  1.00  0.00     0.072 A 
HETATM    5  N3  UNL     1      23.713   3.032  51.769  1.00  0.00    -0.241 NA
HETATM    6  C6  UNL     1      25.001   2.644  51.749  1.00  0.00     0.236 A 
HETATM    7  N4  UNL     1      25.353   1.410  52.215  1.00  0.00    -0.224 NA
HETATM    8  C7  UNL     1      24.387   0.609  52.687  1.00  0.00     0.142 A 
HETATM    9  C15 UNL     1      23.047   0.931  52.741  1.00  0.00     0.041 A 
HETATM   10  C16 UNL     1      22.095   0.073  53.233  1.00  0.00     0.047 A 
ENDROOT
BRANCH   8  11
HETATM   11  N5  UNL     1      24.840  -0.656  53.152  1.00  0.00    -0.340 N 
HETATM   12  H7  UNL     1      24.352  -1.561  53.326  1.00  0.00     0.167 HD
BRANCH  11  13
HETATM   13  C8  UNL     1      26.209  -0.860  53.478  1.00  0.00     0.030 C 
HETATM   14  C9  UNL     1      26.963  -1.700  52.789  1.00  0.00     0.006 C 
HETATM   15  C10 UNL     1      28.363  -2.154  52.829  1.00  0.00     0.056 C 
HETATM   16  C11 UNL     1      29.305  -1.149  53.340  1.00  0.00    -0.023 C 
HETATM   17  C12 UNL     1      29.147  -0.149  54.220  1.00  0.00    -0.004 C 
HETATM   18  C13 UNL     1      27.926   0.235  54.953  1.00  0.00     0.002 C 
HETATM   19  C14 UNL     1      26.697  -0.085  54.608  1.00  0.00     0.029 C 
ENDBRANCH  11  13
ENDBRANCH   8  11
BRANCH   1  20
HETATM   20  N2  UNL     1      19.812  -0.433  53.767  1.00  0.00    -0.309 N 
HETATM   21  C1  UNL     1      18.625  -1.016  53.228  1.00  0.00     0.318 C 
HETATM   22  N1  UNL     1      17.905  -1.902  54.066  1.00  0.00    -0.352 N 
HETATM   23  O1  UNL     1      18.175  -0.798  52.067  1.00  0.00    -0.247 OA
HETATM   24  H1  UNL     1      17.612  -1.887  55.071  1.00  0.00     0.160 HD
HETATM   25  H2  UNL     1      17.564  -2.793  53.634  1.00  0.00     0.160 HD
HETATM   26  H3  UNL     1      20.114  -0.669  54.743  1.00  0.00     0.170 HD
ENDBRANCH   1  20
TORSDOF 3
ENDMDL
MODEL 6
REMARK VINA RESULT:      -8.4      2.953      3.545
REMARK  3 active torsions:
REMARK  status: ('A' for Active; 'I' for Inactive)
REMARK       I    between atoms: N1_1  and  C1_2 
REMARK       I    between atoms: C1_2  and  N2_4 
REMARK    1  A    between atoms: N2_4  and  C2_5 
REMARK    2  A    between atoms: C7_12  and  N5_13 
REMARK    3  A    between atoms: N5_13  and  C8_14 
ROOT
HETATM    1  C2  UNL     1      21.054   0.994  51.517  1.00  0.00     0.037 A 
HETATM    2  C3  UNL     1      19.961   0.431  52.141  1.00  0.00     0.032 A 
HETATM    3  C4  UNL     1      20.118  -0.359  53.278  1.00  0.00     0.035 A 
HETATM    4  C5  UNL     1      21.385  -0.592  53.799  1.00  0.00     0.072 A 
HETATM    5  N3  UNL     1      21.554  -1.361  54.908  1.00  0.00    -0.241 NA
HETATM    6  C6  UNL     1      22.784  -1.580  55.405  1.00  0.00     0.236 A 
HETATM    7  N4  UNL     1      23.877  -1.032  54.798  1.00  0.00    -0.224 NA
HETATM    8  C7  UNL     1      23.686  -0.277  53.706  1.00  0.00     0.142 A 
HETATM    9  C15 UNL     1      22.461  -0.004  53.136  1.00  0.00     0.041 A 
HETATM   10  C16 UNL     1      22.318   0.776  52.016  1.00  0.00     0.047 A 
ENDROOT
BRANCH   8  11
HETATM   11  N5  UNL     1      24.876   0.255  53.138  1.00  0.00    -0.340 N 
HETATM   12  H7  UNL     1      25.055   1.059  52.498  1.00  0.00     0.167 HD
BRANCH  11  13
HETATM   13  C8  UNL     1      26.140  -0.332  53.422  1.00  0.00     0.030 C 
HETATM   14  C9  UNL     1      26.579  -1.380  52.745  1.00  0.00     0.006 C 
HETATM   15  C10 UNL     1      27.784  -2.226  52.754  1.00  0.00     0.056 C 
HETATM   16  C11 UNL     1      29.004  -1.527  53.180  1.00  0.00    -0.023 C 
HETATM   17  C12 UNL     1      29.190  -0.495  54.017  1.00  0.00    -0.004 C 
HETATM   18  C13 UNL     1      28.174   0.257  54.776  1.00  0.00     0.002 C 
HETATM   19  C14 UNL     1      26.890   0.303  54.495  1.00  0.00     0.029 C 
ENDBRANCH  11  13
ENDBRANCH   8  11
BRANCH   1  20
HETATM   20  N2  UNL     1      20.937   1.810  50.350  1.00  0.00    -0.309 N 
HETATM   21  C1  UNL     1      21.205   1.586  48.965  1.00  0.00     0.318 C 
HETATM   22  N1  UNL     1      20.961   2.664  48.079  1.00  0.00    -0.352 N 
HETATM   23  O1  UNL     1      21.642   0.504  48.478  1.00  0.00    -0.247 OA
HETATM   24  H1  UNL     1      21.164   3.691  48.098  1.00  0.00     0.160 HD
HETATM   25  H2  UNL     1      20.466   2.440  47.184  1.00  0.00     0.160 HD
HETATM   26  H3  UNL     1      20.576   2.742  50.668  1.00  0.00     0.170 HD
ENDBRANCH   1  20
TORSDOF 3
ENDMDL
MODEL 7
REMARK VINA RESULT:      -8.3      2.822      5.994
REMARK  3 active torsions:
REMARK  status: ('A' for Active; 'I' for Inactive)
REMARK       I    between atoms: N1_1  and  C1_2 
REMARK       I    between atoms: C1_2  and  N2_4 
REMARK    1  A    between atoms: N2_4  and  C2_5 
REMARK    2  A    between atoms: C7_12  and  N5_13 
REMARK    3  A    between atoms: N5_13  and  C8_14 
ROOT
HETATM    1  C2  UNL     1      24.283  -0.706  54.365  1.00  0.00     0.037 A 
HETATM    2  C3  UNL     1      23.349  -1.254  55.219  1.00  0.00     0.032 A 
HETATM    3  C4  UNL     1      21.987  -1.166  54.936  1.00  0.00     0.035 A 
HETATM    4  C5  UNL     1      21.551  -0.519  53.786  1.00  0.00     0.072 A 
HETATM    5  N3  UNL     1      20.225  -0.424  53.497  1.00  0.00    -0.241 NA
HETATM    6  C6  UNL     1      19.813   0.203  52.381  1.00  0.00     0.236 A 
HETATM    7  N4  UNL     1      20.725   0.752  51.526  1.00  0.00    -0.224 NA
HETATM    8  C7  UNL     1      22.027   0.646  51.831  1.00  0.00     0.142 A 
HETATM    9  C15 UNL     1      22.529   0.021  52.952  1.00  0.00     0.041 A 
HETATM   10  C16 UNL     1      23.873  -0.061  53.220  1.00  0.00     0.047 A 
ENDROOT
BRANCH   8  11
HETATM   11  N5  UNL     1      22.907   1.245  50.888  1.00  0.00    -0.340 N 
HETATM   12  H7  UNL     1      23.540   0.846  50.162  1.00  0.00     0.167 HD
BRANCH  11  13
HETATM   13  C8  UNL     1      23.041   2.659  50.818  1.00  0.00     0.030 C 
HETATM   14  C9  UNL     1      22.848   3.421  51.881  1.00  0.00     0.006 C 
HETATM   15  C10 UNL     1      22.894   4.863  52.181  1.00  0.00     0.056 C 
HETATM   16  C11 UNL     1      23.848   5.616  51.356  1.00  0.00    -0.023 C 
HETATM   17  C12 UNL     1      24.293   5.418  50.106  1.00  0.00    -0.004 C 
HETATM   18  C13 UNL     1      23.928   4.338  49.171  1.00  0.00     0.002 C 
HETATM   19  C14 UNL     1      23.399   3.181  49.508  1.00  0.00     0.029 C 
ENDBRANCH  11  13
ENDBRANCH   8  11
BRANCH   1  20
HETATM   20  N2  UNL     1      25.688  -0.774  54.616  1.00  0.00    -0.309 N 
HETATM   21  C1  UNL     1      26.707   0.215  54.769  1.00  0.00     0.318 C 
HETATM   22  N1  UNL     1      28.023  -0.248  55.015  1.00  0.00    -0.352 N 
HETATM   23  O1  UNL     1      26.520   1.463  54.698  1.00  0.00    -0.247 OA
HETATM   24  H1  UNL     1      28.621  -1.008  54.614  1.00  0.00     0.160 HD
HETATM   25  H2  UNL     1      28.567   0.245  55.761  1.00  0.00     0.160 HD
HETATM   26  H3  UNL     1      25.932  -1.792  54.689  1.00  0.00     0.170 HD
ENDBRANCH   1  20
TORSDOF 3
ENDMDL
MODEL 8
REMARK VINA RESULT:      -8.2      2.099      2.567
REMARK  3 active torsions:
REMARK  status: ('A' for Active; 'I' for Inactive)
REMARK       I    between atoms: N1_1  and  C1_2 
REMARK       I    between atoms: C1_2  and  N2_4 
REMARK    1  A    between atoms: N2_4  and  C2_5 
REMARK    2  A    between atoms: C7_12  and  N5_13 
REMARK    3  A    between atoms: N5_13  and  C8_14 
ROOT
HETATM    1  C2  UNL     1      24.836   4.895  50.115  1.00  0.00     0.037 A 
HETATM    2  C3  UNL     1      23.964   4.757  49.055  1.00  0.00     0.032 A 
HETATM    3  C4  UNL     1      23.074   3.685  48.999  1.00  0.00     0.035 A 
HETATM    4  C5  UNL     1      23.056   2.737  50.014  1.00  0.00     0.072 A 
HETATM    5  N3  UNL     1      22.194   1.685  49.973  1.00  0.00    -0.241 NA
HETATM    6  C6  UNL     1      22.183   0.773  50.960  1.00  0.00     0.236 A 
HETATM    7  N4  UNL     1      23.041   0.894  52.016  1.00  0.00    -0.224 NA
HETATM    8  C7  UNL     1      23.881   1.938  52.036  1.00  0.00     0.142 A 
HETATM    9  C15 UNL     1      23.954   2.914  51.065  1.00  0.00     0.041 A 
HETATM   10  C16 UNL     1      24.834   3.966  51.131  1.00  0.00     0.047 A 
ENDROOT
BRANCH   8  11
HETATM   11  N5  UNL     1      24.739   1.988  53.169  1.00  0.00    -0.340 N 
HETATM   12  H7  UNL     1      24.603   2.340  54.142  1.00  0.00     0.167 HD
BRANCH  11  13
HETATM   13  C8  UNL     1      26.069   1.491  53.094  1.00  0.00     0.030 C 
HETATM   14  C9  UNL     1      27.097   2.213  53.506  1.00  0.00     0.006 C 
HETATM   15  C10 UNL     1      28.558   2.041  53.582  1.00  0.00     0.056 C 
HETATM   16  C11 UNL     1      28.989   0.649  53.767  1.00  0.00    -0.023 C 
HETATM   17  C12 UNL     1      28.434  -0.511  53.385  1.00  0.00    -0.004 C 
HETATM   18  C13 UNL     1      27.178  -0.719  52.639  1.00  0.00     0.002 C 
HETATM   19  C14 UNL     1      26.198   0.153  52.537  1.00  0.00     0.029 C 
ENDBRANCH  11  13
ENDBRANCH   8  11
BRANCH   1  20
HETATM   20  N2  UNL     1      25.763   5.977  50.211  1.00  0.00    -0.309 N 
HETATM   21  C1  UNL     1      25.612   7.385  50.399  1.00  0.00     0.318 C 
HETATM   22  N1  UNL     1      26.798   8.159  50.444  1.00  0.00    -0.352 N 
HETATM   23  O1  UNL     1      24.506   7.983  50.526  1.00  0.00    -0.247 OA
HETATM   24  H1  UNL     1      27.680   8.185  49.881  1.00  0.00     0.160 HD
HETATM   25  H2  UNL     1      26.860   8.888  51.193  1.00  0.00     0.160 HD
HETATM   26  H3  UNL     1      26.721   5.562  50.114  1.00  0.00     0.170 HD
ENDBRANCH   1  20
TORSDOF 3
ENDMDL
MODEL 9
REMARK VINA RESULT:      -8.1      2.906      6.448
REMARK  3 active torsions:
REMARK  status: ('A' for Active; 'I' for Inactive)
REMARK       I    between atoms: N1_1  and  C1_2 
REMARK       I    between atoms: C1_2  and  N2_4 
REMARK    1  A    between atoms: N2_4  and  C2_5 
REMARK    2  A    between atoms: C7_12  and  N5_13 
REMARK    3  A    between atoms: N5_13  and  C8_14 
ROOT
HETATM    1  C2  UNL     1      22.684  -0.978  54.376  1.00  0.00     0.037 A 
HETATM    2  C3  UNL     1      23.296  -1.472  55.509  1.00  0.00     0.032 A 
HETATM    3  C4  UNL     1      24.651  -1.247  55.743  1.00  0.00     0.035 A 
HETATM    4  C5  UNL     1      25.407  -0.520  54.832  1.00  0.00     0.072 A 
HETATM    5  N3  UNL     1      26.731  -0.293  55.046  1.00  0.00    -0.241 NA
HETATM    6  C6  UNL     1      27.455   0.413  54.160  1.00  0.00     0.236 A 
HETATM    7  N4  UNL     1      26.865   0.909  53.032  1.00  0.00    -0.224 NA
HETATM    8  C7  UNL     1      25.559   0.672  52.842  1.00  0.00     0.142 A 
HETATM    9  C15 UNL     1      24.749  -0.040  53.701  1.00  0.00     0.041 A 
HETATM   10  C16 UNL     1      23.415  -0.255  53.460  1.00  0.00     0.047 A 
ENDROOT
BRANCH   8  11
HETATM   11  N5  UNL     1      25.025   1.223  51.644  1.00  0.00    -0.340 N 
HETATM   12  H7  UNL     1      24.648   0.788  50.774  1.00  0.00     0.167 HD
BRANCH  11  13
HETATM   13  C8  UNL     1      24.931   2.631  51.473  1.00  0.00     0.030 C 
HETATM   14  C9  UNL     1      25.540   3.245  50.472  1.00  0.00     0.006 C 
HETATM   15  C10 UNL     1      25.668   4.631  49.991  1.00  0.00     0.056 C 
HETATM   16  C11 UNL     1      24.505   5.478  50.289  1.00  0.00    -0.023 C 
HETATM   17  C12 UNL     1      23.616   5.446  51.293  1.00  0.00    -0.004 C 
HETATM   18  C13 UNL     1      23.558   4.508  52.429  1.00  0.00     0.002 C 
HETATM   19  C14 UNL     1      24.129   3.323  52.470  1.00  0.00     0.029 C 
ENDBRANCH  11  13
ENDBRANCH   8  11
BRANCH   1  20
HETATM   20  N2  UNL     1      21.299  -1.186  54.097  1.00  0.00    -0.309 N 
HETATM   21  C1  UNL     1      20.219  -0.307  53.776  1.00  0.00     0.318 C 
HETATM   22  N1  UNL     1      18.949  -0.898  53.562  1.00  0.00    -0.352 N 
HETATM   23  O1  UNL     1      20.316   0.949  53.673  1.00  0.00    -0.247 OA
HETATM   24  H1  UNL     1      18.390  -1.635  54.051  1.00  0.00     0.160 HD
HETATM   25  H2  UNL     1      18.401  -0.556  52.739  1.00  0.00     0.160 HD
HETATM   26  H3  UNL     1      21.129  -2.219  54.164  1.00  0.00     0.170 HD
ENDBRANCH   1  20
TORSDOF 3
ENDMDL
