MODEL 1
REMARK VINA RESULT:      -8.2      0.000      0.000
REMARK  2 active torsions:
REMARK  status: ('A' for Active; 'I' for Inactive)
REMARK    1  A    between atoms: C13_14  and  C14_15 
REMARK    2  A    between atoms: C14_15  and  O2_17 
ROOT
HETATM    1  C1  UNL     1      21.128   0.011  49.708  1.00  0.00     0.070 C 
HETATM    2  C2  UNL     1      21.828   1.322  49.482  1.00  0.00     0.023 C 
HETATM    3  C3  UNL     1      22.056   2.074  48.433  1.00  0.00     0.026 C 
HETATM    4  C4  UNL     1      22.671   3.315  47.976  1.00  0.00    -0.001 C 
HETATM    5  C5  UNL     1      23.328   4.284  48.580  1.00  0.00    -0.005 C 
HETATM    6  C6  UNL     1      23.931   4.995  49.696  1.00  0.00     0.132 C 
HETATM    7 BR1  UNL     1      25.869   4.977  49.534  1.00  0.00    -0.080 Br
HETATM    8  C7  UNL     1      23.546   4.454  51.052  1.00  0.00     0.050 C 
HETATM    9  C8  UNL     1      24.373   3.900  51.956  1.00  0.00     0.006 C 
HETATM   10  C9  UNL     1      24.452   3.279  53.305  1.00  0.00     0.068 C 
HETATM   11  C10 UNL     1      24.951   1.897  53.107  1.00  0.00    -0.047 A 
HETATM   12  C11 UNL     1      26.301   1.786  52.862  1.00  0.00     0.009 A 
HETATM   13  C12 UNL     1      26.964   0.597  52.646  1.00  0.00     0.019 A 
HETATM   14  C13 UNL     1      26.207  -0.556  52.681  1.00  0.00     0.038 A 
HETATM   15  C15 UNL     1      24.860  -0.447  52.925  1.00  0.00     0.027 A 
HETATM   16  C16 UNL     1      24.188   0.753  53.144  1.00  0.00    -0.036 A 
HETATM   17  C17 UNL     1      22.748   0.616  53.389  1.00  0.00     0.151 C 
HETATM   18  N1  UNL     1      21.957   1.780  53.198  1.00  0.00    -0.213 NA
HETATM   19  N2  UNL     1      21.913   2.307  51.938  1.00  0.00    -0.212 N 
HETATM   20  C18 UNL     1      21.442   3.615  51.659  1.00  0.00     0.247 C 
HETATM   21  N3  UNL     1      22.150   4.612  51.256  1.00  0.00    -0.244 NA
HETATM   22  N4  UNL     1      22.293   1.701  50.769  1.00  0.00    -0.288 N 
HETATM   23  H17 UNL     1      20.995   1.699  53.580  1.00  0.00     0.149 HD
HETATM   24  H19 UNL     1      23.267   1.401  50.830  1.00  0.00     0.188 HD
ENDROOT
BRANCH  14  25
HETATM   25  C14 UNL     1      26.851  -1.847  52.459  1.00  0.00     0.176 C 
HETATM   26  O1  UNL     1      26.430  -2.672  51.602  1.00  0.00    -0.646 OA
BRANCH  25  27
HETATM   27  O2  UNL     1      27.965  -2.206  53.202  1.00  0.00    -0.773 OA
HETATM   28  H13 UNL     1      28.382  -1.605  53.930  1.00  0.00     0.167 HD
ENDBRANCH  25  27
ENDBRANCH  14  25
TORSDOF 2
ENDMDL
MODEL 2
REMARK VINA RESULT:      -7.3      9.807     11.685
REMARK  2 active torsions:
REMARK  status: ('A' for Active; 'I' for Inactive)
REMARK    1  A    between atoms: C13_14  and  C14_15 
REMARK    2  A    between atoms: C14_15  and  O2_17 
ROOT
HETATM    1  C1  UNL     1      33.568   8.881  44.640  1.00  0.00     0.070 C 
HETATM    2  C2  UNL     1      33.702   7.423  44.978  1.00  0.00     0.023 C 
HETATM    3  C3  UNL     1      34.087   6.358  44.318  1.00  0.00     0.026 C 
HETATM    4  C4  UNL     1      34.296   4.918  44.412  1.00  0.00    -0.001 C 
HETATM    5  C5  UNL     1      34.142   4.034  45.377  1.00  0.00    -0.005 C 
HETATM    6  C6  UNL     1      33.807   3.556  46.710  1.00  0.00     0.132 C 
HETATM    7 BR1  UNL     1      32.205   2.456  46.645  1.00  0.00    -0.080 Br
HETATM    8  C7  UNL     1      33.609   4.655  47.727  1.00  0.00     0.050 C 
HETATM    9  C8  UNL     1      32.470   4.943  48.380  1.00  0.00     0.006 C 
HETATM   10  C9  UNL     1      31.843   5.846  49.381  1.00  0.00     0.068 C 
HETATM   11  C10 UNL     1      30.744   6.555  48.682  1.00  0.00    -0.047 A 
HETATM   12  C11 UNL     1      29.600   5.817  48.477  1.00  0.00     0.009 A 
HETATM   13  C12 UNL     1      28.468   6.284  47.845  1.00  0.00     0.019 A 
HETATM   14  C13 UNL     1      28.498   7.586  47.391  1.00  0.00     0.038 A 
HETATM   15  C15 UNL     1      29.638   8.324  47.595  1.00  0.00     0.027 A 
HETATM   16  C16 UNL     1      30.783   7.855  48.234  1.00  0.00    -0.036 A 
HETATM   17  C17 UNL     1      31.873   8.831  48.337  1.00  0.00     0.151 C 
HETATM   18  N1  UNL     1      33.172   8.310  48.579  1.00  0.00    -0.213 NA
HETATM   19  N2  UNL     1      33.706   7.490  47.625  1.00  0.00    -0.212 N 
HETATM   20  C18 UNL     1      34.827   6.654  47.857  1.00  0.00     0.247 C 
HETATM   21  N3  UNL     1      34.823   5.368  47.910  1.00  0.00    -0.244 NA
HETATM   22  N4  UNL     1      33.282   7.333  46.331  1.00  0.00    -0.288 N 
HETATM   23  H17 UNL     1      33.867   9.031  48.853  1.00  0.00     0.149 HD
HETATM   24  H19 UNL     1      32.300   7.051  46.316  1.00  0.00     0.188 HD
ENDROOT
BRANCH  14  25
HETATM   25  C14 UNL     1      27.329   8.139  46.713  1.00  0.00     0.176 C 
HETATM   26  O1  UNL     1      27.429   8.938  45.741  1.00  0.00    -0.646 OA
BRANCH  25  27
HETATM   27  O2  UNL     1      26.053   7.793  47.130  1.00  0.00    -0.773 OA
HETATM   28  H13 UNL     1      25.787   7.688  48.122  1.00  0.00     0.167 HD
ENDBRANCH  25  27
ENDBRANCH  14  25
TORSDOF 2
ENDMDL
MODEL 3
REMARK VINA RESULT:      -7.3      3.412      5.479
REMARK  2 active torsions:
REMARK  status: ('A' for Active; 'I' for Inactive)
REMARK    1  A    between atoms: C13_14  and  C14_15 
REMARK    2  A    between atoms: C14_15  and  O2_17 
ROOT
HETATM    1  C1  UNL     1      23.919   1.546  52.565  1.00  0.00     0.070 C 
HETATM    2  C2  UNL     1      22.818   1.676  51.551  1.00  0.00     0.023 C 
HETATM    3  C3  UNL     1      22.146   0.829  50.811  1.00  0.00     0.026 C 
HETATM    4  C4  UNL     1      21.092   0.708  49.810  1.00  0.00    -0.001 C 
HETATM    5  C5  UNL     1      20.310   1.574  49.198  1.00  0.00    -0.005 C 
HETATM    6  C6  UNL     1      19.766   2.883  48.870  1.00  0.00     0.132 C 
HETATM    7 BR1  UNL     1      20.254   3.377  47.054  1.00  0.00    -0.080 Br
HETATM    8  C7  UNL     1      20.195   3.982  49.812  1.00  0.00     0.050 C 
HETATM    9  C8  UNL     1      20.932   5.062  49.497  1.00  0.00     0.006 C 
HETATM   10  C9  UNL     1      21.550   6.303  50.032  1.00  0.00     0.068 C 
HETATM   11  C10 UNL     1      23.013   6.171  49.825  1.00  0.00    -0.047 A 
HETATM   12  C11 UNL     1      23.450   6.383  48.536  1.00  0.00     0.009 A 
HETATM   13  C12 UNL     1      24.763   6.304  48.130  1.00  0.00     0.019 A 
HETATM   14  C13 UNL     1      25.698   5.989  49.095  1.00  0.00     0.038 A 
HETATM   15  C15 UNL     1      25.265   5.777  50.381  1.00  0.00     0.027 A 
HETATM   16  C16 UNL     1      23.937   5.857  50.794  1.00  0.00    -0.036 A 
HETATM   17  C17 UNL     1      23.720   5.594  52.221  1.00  0.00     0.151 C 
HETATM   18  N1  UNL     1      22.399   5.245  52.609  1.00  0.00    -0.213 NA
HETATM   19  N2  UNL     1      21.879   4.091  52.095  1.00  0.00    -0.212 N 
HETATM   20  C18 UNL     1      20.497   3.779  52.129  1.00  0.00     0.247 C 
HETATM   21  N3  UNL     1      19.702   3.719  51.118  1.00  0.00    -0.244 NA
HETATM   22  N4  UNL     1      22.561   3.070  51.485  1.00  0.00    -0.288 N 
HETATM   23  H17 UNL     1      22.244   5.276  53.635  1.00  0.00     0.149 HD
HETATM   24  H19 UNL     1      23.089   3.430  50.687  1.00  0.00     0.188 HD
ENDROOT
BRANCH  14  25
HETATM   25  C14 UNL     1      27.108   5.891  48.727  1.00  0.00     0.176 C 
HETATM   26  O1  UNL     1      27.627   6.630  47.846  1.00  0.00    -0.646 OA
BRANCH  25  27
HETATM   27  O2  UNL     1      27.926   4.962  49.350  1.00  0.00    -0.773 OA
HETATM   28  H13 UNL     1      28.218   4.075  48.912  1.00  0.00     0.167 HD
ENDBRANCH  25  27
ENDBRANCH  14  25
TORSDOF 2
ENDMDL
MODEL 4
REMARK VINA RESULT:      -7.2      8.638     10.016
REMARK  2 active torsions:
REMARK  status: ('A' for Active; 'I' for Inactive)
REMARK    1  A    between atoms: C13_14  and  C14_15 
REMARK    2  A    between atoms: C14_15  and  O2_17 
ROOT
HETATM    1  C1  UNL     1      27.490   6.648  48.575  1.00  0.00     0.070 C 
HETATM    2  C2  UNL     1      28.068   7.575  47.543  1.00  0.00     0.023 C 
HETATM    3  C3  UNL     1      27.586   8.202  46.498  1.00  0.00     0.026 C 
HETATM    4  C4  UNL     1      27.917   9.106  45.402  1.00  0.00    -0.001 C 
HETATM    5  C5  UNL     1      29.023   9.714  45.022  1.00  0.00    -0.005 C 
HETATM    6  C6  UNL     1      30.426  10.091  45.080  1.00  0.00     0.132 C 
HETATM    7 BR1  UNL     1      31.394   9.303  43.588  1.00  0.00    -0.080 Br
HETATM    8  C7  UNL     1      31.115   9.711  46.369  1.00  0.00     0.050 C 
HETATM    9  C8  UNL     1      32.136   8.847  46.505  1.00  0.00     0.006 C 
HETATM   10  C9  UNL     1      33.060   8.209  47.479  1.00  0.00     0.068 C 
HETATM   11  C10 UNL     1      32.814   6.748  47.402  1.00  0.00    -0.047 A 
HETATM   12  C11 UNL     1      33.358   6.112  46.309  1.00  0.00     0.009 A 
HETATM   13  C12 UNL     1      33.242   4.765  46.047  1.00  0.00     0.019 A 
HETATM   14  C13 UNL     1      32.527   4.011  46.954  1.00  0.00     0.038 A 
HETATM   15  C15 UNL     1      31.983   4.643  48.045  1.00  0.00     0.027 A 
HETATM   16  C16 UNL     1      32.099   6.005  48.313  1.00  0.00    -0.036 A 
HETATM   17  C17 UNL     1      31.435   6.449  49.544  1.00  0.00     0.151 C 
HETATM   18  N1  UNL     1      31.154   7.837  49.650  1.00  0.00    -0.213 NA
HETATM   19  N2  UNL     1      30.294   8.373  48.734  1.00  0.00    -0.212 N 
HETATM   20  C18 UNL     1      30.165   9.767  48.512  1.00  0.00     0.247 C 
HETATM   21  N3  UNL     1      30.525  10.409  47.455  1.00  0.00    -0.244 NA
HETATM   22  N4  UNL     1      29.435   7.700  47.905  1.00  0.00    -0.288 N 
HETATM   23  H17 UNL     1      30.884   8.136  50.606  1.00  0.00     0.149 HD
HETATM   24  H19 UNL     1      29.954   7.033  47.330  1.00  0.00     0.188 HD
ENDROOT
BRANCH  14  25
HETATM   25  C14 UNL     1      32.369   2.576  46.732  1.00  0.00     0.176 C 
HETATM   26  O1  UNL     1      33.221   1.735  47.131  1.00  0.00    -0.646 OA
BRANCH  25  27
HETATM   27  O2  UNL     1      31.255   2.094  46.064  1.00  0.00    -0.773 OA
HETATM   28  H13 UNL     1      30.298   2.133  46.448  1.00  0.00     0.167 HD
ENDBRANCH  25  27
ENDBRANCH  14  25
TORSDOF 2
ENDMDL
MODEL 5
REMARK VINA RESULT:      -7.1      3.249      5.014
REMARK  2 active torsions:
REMARK  status: ('A' for Active; 'I' for Inactive)
REMARK    1  A    between atoms: C13_14  and  C14_15 
REMARK    2  A    between atoms: C14_15  and  O2_17 
ROOT
HETATM    1  C1  UNL     1      23.701   5.575  52.411  1.00  0.00     0.070 C 
HETATM    2  C2  UNL     1      22.570   5.528  51.423  1.00  0.00     0.023 C 
HETATM    3  C3  UNL     1      21.605   6.351  51.091  1.00  0.00     0.026 C 
HETATM    4  C4  UNL     1      20.451   6.533  50.217  1.00  0.00    -0.001 C 
HETATM    5  C5  UNL     1      19.884   5.790  49.288  1.00  0.00    -0.005 C 
HETATM    6  C6  UNL     1      19.704   4.626  48.434  1.00  0.00     0.132 C 
HETATM    7 BR1  UNL     1      18.091   3.666  48.941  1.00  0.00    -0.080 Br
HETATM    8  C7  UNL     1      20.871   3.668  48.444  1.00  0.00     0.050 C 
HETATM    9  C8  UNL     1      20.856   2.395  48.876  1.00  0.00     0.006 C 
HETATM   10  C9  UNL     1      21.678   1.171  49.067  1.00  0.00     0.068 C 
HETATM   11  C10 UNL     1      21.673   0.880  50.521  1.00  0.00    -0.047 A 
HETATM   12  C11 UNL     1      20.518   0.306  51.005  1.00  0.00     0.009 A 
HETATM   13  C12 UNL     1      20.306  -0.037  52.322  1.00  0.00     0.019 A 
HETATM   14  C13 UNL     1      21.333   0.216  53.208  1.00  0.00     0.038 A 
HETATM   15  C15 UNL     1      22.485   0.788  52.728  1.00  0.00     0.027 A 
HETATM   16  C16 UNL     1      22.703   1.137  51.396  1.00  0.00    -0.036 A 
HETATM   17  C17 UNL     1      24.016   1.730  51.122  1.00  0.00     0.151 C 
HETATM   18  N1  UNL     1      24.138   2.476  49.920  1.00  0.00    -0.213 NA
HETATM   19  N2  UNL     1      23.365   3.596  49.797  1.00  0.00    -0.212 N 
HETATM   20  C18 UNL     1      23.138   4.252  48.561  1.00  0.00     0.247 C 
HETATM   21  N3  UNL     1      22.025   4.307  47.918  1.00  0.00    -0.244 NA
HETATM   22  N4  UNL     1      22.701   4.263  50.794  1.00  0.00    -0.288 N 
HETATM   23  H17 UNL     1      25.120   2.695  49.663  1.00  0.00     0.149 HD
HETATM   24  H19 UNL     1      22.063   3.626  51.276  1.00  0.00     0.188 HD
ENDROOT
BRANCH  14  25
HETATM   25  C14 UNL     1      21.169  -0.126  54.618  1.00  0.00     0.176 C 
HETATM   26  O1  UNL     1      21.660  -1.176  55.118  1.00  0.00    -0.646 OA
BRANCH  25  27
HETATM   27  O2  UNL     1      20.454   0.712  55.460  1.00  0.00    -0.773 OA
HETATM   28  H13 UNL     1      20.865   1.176  56.285  1.00  0.00     0.167 HD
ENDBRANCH  25  27
ENDBRANCH  14  25
TORSDOF 2
ENDMDL
MODEL 6
REMARK VINA RESULT:      -7.0      9.436     11.311
REMARK  2 active torsions:
REMARK  status: ('A' for Active; 'I' for Inactive)
REMARK    1  A    between atoms: C13_14  and  C14_15 
REMARK    2  A    between atoms: C14_15  and  O2_17 
ROOT
HETATM    1  C1  UNL     1      28.677   6.370  47.851  1.00  0.00     0.070 C 
HETATM    2  C2  UNL     1      28.118   7.685  47.388  1.00  0.00     0.023 C 
HETATM    3  C3  UNL     1      27.160   8.038  46.565  1.00  0.00     0.026 C 
HETATM    4  C4  UNL     1      26.461   9.176  45.980  1.00  0.00    -0.001 C 
HETATM    5  C5  UNL     1      26.578  10.483  46.107  1.00  0.00    -0.005 C 
HETATM    6  C6  UNL     1      27.127  11.732  46.610  1.00  0.00     0.132 C 
HETATM    7 BR1  UNL     1      28.067  12.671  45.190  1.00  0.00    -0.080 Br
HETATM    8  C7  UNL     1      28.056  11.566  47.789  1.00  0.00     0.050 C 
HETATM    9  C8  UNL     1      29.365  11.868  47.824  1.00  0.00     0.006 C 
HETATM   10  C9  UNL     1      30.584  11.879  48.676  1.00  0.00     0.068 C 
HETATM   11  C10 UNL     1      31.570  10.989  48.018  1.00  0.00    -0.047 A 
HETATM   12  C11 UNL     1      32.207  11.521  46.919  1.00  0.00     0.009 A 
HETATM   13  C12 UNL     1      33.150  10.861  46.163  1.00  0.00     0.019 A 
HETATM   14  C13 UNL     1      33.471   9.575  46.546  1.00  0.00     0.038 A 
HETATM   15  C15 UNL     1      32.837   9.042  47.642  1.00  0.00     0.027 A 
HETATM   16  C16 UNL     1      31.883   9.707  48.408  1.00  0.00    -0.036 A 
HETATM   17  C17 UNL     1      31.350   8.933  49.535  1.00  0.00     0.151 C 
HETATM   18  N1  UNL     1      30.111   9.369  50.076  1.00  0.00    -0.213 NA
HETATM   19  N2  UNL     1      29.021   9.333  49.253  1.00  0.00    -0.212 N 
HETATM   20  C18 UNL     1      27.812  10.018  49.534  1.00  0.00     0.247 C 
HETATM   21  N3  UNL     1      27.342  11.032  48.894  1.00  0.00    -0.244 NA
HETATM   22  N4  UNL     1      28.896   8.660  48.065  1.00  0.00    -0.288 N 
HETATM   23  H17 UNL     1      29.878   8.934  50.989  1.00  0.00     0.149 HD
HETATM   24  H19 UNL     1      29.630   8.953  47.418  1.00  0.00     0.188 HD
ENDROOT
BRANCH  14  25
HETATM   25  C14 UNL     1      34.465   8.823  45.785  1.00  0.00     0.176 C 
HETATM   26  O1  UNL     1      34.153   7.841  45.057  1.00  0.00    -0.646 OA
BRANCH  25  27
HETATM   27  O2  UNL     1      35.803   9.178  45.847  1.00  0.00    -0.773 OA
HETATM   28  H13 UNL     1      36.435   8.890  46.610  1.00  0.00     0.167 HD
ENDBRANCH  25  27
ENDBRANCH  14  25
TORSDOF 2
ENDMDL
MODEL 7
REMARK VINA RESULT:      -7.0      9.134     10.660
REMARK  2 active torsions:
REMARK  status: ('A' for Active; 'I' for Inactive)
REMARK    1  A    between atoms: C13_14  and  C14_15 
REMARK    2  A    between atoms: C14_15  and  O2_17 
ROOT
HETATM    1  C1  UNL     1      28.247   5.698  48.347  1.00  0.00     0.070 C 
HETATM    2  C2  UNL     1      28.197   7.069  47.733  1.00  0.00     0.023 C 
HETATM    3  C3  UNL     1      27.317   7.723  47.014  1.00  0.00     0.026 C 
HETATM    4  C4  UNL     1      27.044   8.985  46.337  1.00  0.00    -0.001 C 
HETATM    5  C5  UNL     1      27.718  10.109  46.194  1.00  0.00    -0.005 C 
HETATM    6  C6  UNL     1      28.832  11.028  46.362  1.00  0.00     0.132 C 
HETATM    7 BR1  UNL     1      29.740  11.298  44.663  1.00  0.00    -0.080 Br
HETATM    8  C7  UNL     1      29.843  10.590  47.395  1.00  0.00     0.050 C 
HETATM    9  C8  UNL     1      31.131  10.281  47.171  1.00  0.00     0.006 C 
HETATM   10  C9  UNL     1      32.399   9.838  47.810  1.00  0.00     0.068 C 
HETATM   11  C10 UNL     1      32.755   8.538  47.190  1.00  0.00    -0.047 A 
HETATM   12  C11 UNL     1      33.296   8.614  45.926  1.00  0.00     0.009 A 
HETATM   13  C12 UNL     1      33.688   7.529  45.174  1.00  0.00     0.019 A 
HETATM   14  C13 UNL     1      33.521   6.282  45.741  1.00  0.00     0.038 A 
HETATM   15  C15 UNL     1      32.982   6.204  47.002  1.00  0.00     0.027 A 
HETATM   16  C16 UNL     1      32.585   7.300  47.765  1.00  0.00    -0.036 A 
HETATM   17  C17 UNL     1      32.040   6.966  49.085  1.00  0.00     0.151 C 
HETATM   18  N1  UNL     1      31.247   7.960  49.716  1.00  0.00    -0.213 NA
HETATM   19  N2  UNL     1      30.089   8.327  49.091  1.00  0.00    -0.212 N 
HETATM   20  C18 UNL     1      29.369   9.504  49.418  1.00  0.00     0.247 C 
HETATM   21  N3  UNL     1      29.234  10.548  48.677  1.00  0.00    -0.244 NA
HETATM   22  N4  UNL     1      29.438   7.660  48.086  1.00  0.00    -0.288 N 
HETATM   23  H17 UNL     1      31.062   7.772  50.720  1.00  0.00     0.149 HD
HETATM   24  H19 UNL     1      30.065   7.527  47.291  1.00  0.00     0.188 HD
ENDROOT
BRANCH  14  25
HETATM   25  C14 UNL     1      33.919   5.092  44.994  1.00  0.00     0.176 C 
HETATM   26  O1  UNL     1      33.134   4.501  44.202  1.00  0.00    -0.646 OA
BRANCH  25  27
HETATM   27  O2  UNL     1      35.195   4.572  45.142  1.00  0.00    -0.773 OA
HETATM   28  H13 UNL     1      35.776   4.255  44.350  1.00  0.00     0.167 HD
ENDBRANCH  25  27
ENDBRANCH  14  25
TORSDOF 2
ENDMDL
MODEL 8
REMARK VINA RESULT:      -6.9      5.495      8.564
REMARK  2 active torsions:
REMARK  status: ('A' for Active; 'I' for Inactive)
REMARK    1  A    between atoms: C13_14  and  C14_15 
REMARK    2  A    between atoms: C14_15  and  O2_17 
ROOT
HETATM    1  C1  UNL     1      28.193   6.881  48.229  1.00  0.00     0.070 C 
HETATM    2  C2  UNL     1      27.195   5.844  48.661  1.00  0.00     0.023 C 
HETATM    3  C3  UNL     1      27.263   4.568  48.952  1.00  0.00     0.026 C 
HETATM    4  C4  UNL     1      26.489   3.406  49.373  1.00  0.00    -0.001 C 
HETATM    5  C5  UNL     1      25.218   3.212  49.661  1.00  0.00    -0.005 C 
HETATM    6  C6  UNL     1      23.820   3.570  49.844  1.00  0.00     0.132 C 
HETATM    7 BR1  UNL     1      22.727   2.730  48.472  1.00  0.00    -0.080 Br
HETATM    8  C7  UNL     1      23.559   5.057  49.839  1.00  0.00     0.050 C 
HETATM    9  C8  UNL     1      22.819   5.735  48.945  1.00  0.00     0.006 C 
HETATM   10  C9  UNL     1      22.318   7.081  48.560  1.00  0.00     0.068 C 
HETATM   11  C10 UNL     1      22.859   7.365  47.209  1.00  0.00    -0.047 A 
HETATM   12  C11 UNL     1      22.226   6.718  46.171  1.00  0.00     0.009 A 
HETATM   13  C12 UNL     1      22.574   6.837  44.843  1.00  0.00     0.019 A 
HETATM   14  C13 UNL     1      23.634   7.670  44.548  1.00  0.00     0.038 A 
HETATM   15  C15 UNL     1      24.266   8.317  45.581  1.00  0.00     0.027 A 
HETATM   16  C16 UNL     1      23.916   8.197  46.924  1.00  0.00    -0.036 A 
HETATM   17  C17 UNL     1      24.736   8.990  47.847  1.00  0.00     0.151 C 
HETATM   18  N1  UNL     1      24.717   8.599  49.212  1.00  0.00    -0.213 NA
HETATM   19  N2  UNL     1      25.194   7.355  49.513  1.00  0.00    -0.212 N 
HETATM   20  C18 UNL     1      24.952   6.708  50.751  1.00  0.00     0.247 C 
HETATM   21  N3  UNL     1      24.219   5.667  50.938  1.00  0.00    -0.244 NA
HETATM   22  N4  UNL     1      25.960   6.542  48.718  1.00  0.00    -0.288 N 
HETATM   23  H17 UNL     1      25.132   9.301  49.853  1.00  0.00     0.149 HD
HETATM   24  H19 UNL     1      25.482   6.368  47.832  1.00  0.00     0.188 HD
ENDROOT
BRANCH  14  25
HETATM   25  C14 UNL     1      24.051   7.839  43.158  1.00  0.00     0.176 C 
HETATM   26  O1  UNL     1      25.158   8.358  42.846  1.00  0.00    -0.646 OA
BRANCH  25  27
HETATM   27  O2  UNL     1      23.222   7.426  42.128  1.00  0.00    -0.773 OA
HETATM   28  H13 UNL     1      22.224   7.680  42.062  1.00  0.00     0.167 HD
ENDBRANCH  25  27
ENDBRANCH  14  25
TORSDOF 2
ENDMDL
MODEL 9
REMARK VINA RESULT:      -6.8      3.893      6.159
REMARK  2 active torsions:
REMARK  status: ('A' for Active; 'I' for Inactive)
REMARK    1  A    between atoms: C13_14  and  C14_15 
REMARK    2  A    between atoms: C14_15  and  O2_17 
ROOT
HETATM    1  C1  UNL     1      24.161   2.667  51.700  1.00  0.00     0.070 C 
HETATM    2  C2  UNL     1      23.261   2.802  50.504  1.00  0.00     0.023 C 
HETATM    3  C3  UNL     1      22.722   1.956  49.659  1.00  0.00     0.026 C 
HETATM    4  C4  UNL     1      21.863   1.839  48.487  1.00  0.00    -0.001 C 
HETATM    5  C5  UNL     1      21.214   2.710  47.740  1.00  0.00    -0.005 C 
HETATM    6  C6  UNL     1      20.753   4.022  47.313  1.00  0.00     0.132 C 
HETATM    7 BR1  UNL     1      21.565   4.496  45.611  1.00  0.00    -0.080 Br
HETATM    8  C7  UNL     1      21.020   5.124  48.310  1.00  0.00     0.050 C 
HETATM    9  C8  UNL     1      21.815   6.192  48.126  1.00  0.00     0.006 C 
HETATM   10  C9  UNL     1      22.343   7.431  48.755  1.00  0.00     0.068 C 
HETATM   11  C10 UNL     1      23.818   7.281  48.814  1.00  0.00    -0.047 A 
HETATM   12  C11 UNL     1      24.480   7.478  47.624  1.00  0.00     0.009 A 
HETATM   13  C12 UNL     1      25.845   7.381  47.460  1.00  0.00     0.019 A 
HETATM   14  C13 UNL     1      26.587   7.063  48.578  1.00  0.00     0.038 A 
HETATM   15  C15 UNL     1      25.929   6.866  49.767  1.00  0.00     0.027 A 
HETATM   16  C16 UNL     1      24.549   6.964  49.935  1.00  0.00    -0.036 A 
HETATM   17  C17 UNL     1      24.077   6.714  51.301  1.00  0.00     0.151 C 
HETATM   18  N1  UNL     1      22.704   6.384  51.449  1.00  0.00    -0.213 NA
HETATM   19  N2  UNL     1      22.270   5.232  50.857  1.00  0.00    -0.212 N 
HETATM   20  C18 UNL     1      20.900   4.935  50.644  1.00  0.00     0.247 C 
HETATM   21  N3  UNL     1      20.299   4.877  49.507  1.00  0.00    -0.244 NA
HETATM   22  N4  UNL     1      23.037   4.198  50.384  1.00  0.00    -0.288 N 
HETATM   23  H17 UNL     1      22.368   6.424  52.431  1.00  0.00     0.149 HD
HETATM   24  H19 UNL     1      23.703   4.546  49.692  1.00  0.00     0.188 HD
ENDROOT
BRANCH  14  25
HETATM   25  C14 UNL     1      28.039   6.946  48.470  1.00  0.00     0.176 C 
HETATM   26  O1  UNL     1      28.748   7.841  47.933  1.00  0.00    -0.646 OA
BRANCH  25  27
HETATM   27  O2  UNL     1      28.686   5.825  48.964  1.00  0.00    -0.773 OA
HETATM   28  H13 UNL     1      29.704   5.675  48.890  1.00  0.00     0.167 HD
ENDBRANCH  25  27
ENDBRANCH  14  25
TORSDOF 2
ENDMDL
