MODEL 1
REMARK VINA RESULT:      -8.5      0.000      0.000
REMARK  3 active torsions:
REMARK  status: ('A' for Active; 'I' for Inactive)
REMARK    1  A    between atoms: O1_2  and  C2_3 
REMARK    2  A    between atoms: C10_14  and  N4_15 
REMARK    3  A    between atoms: N4_15  and  C11_16 
ROOT
HETATM    1  C2  UNL     1      17.522  -0.470  51.534  1.00  0.00     0.068 A 
HETATM    2  C3  UNL     1      18.115   0.173  50.488  1.00  0.00     0.039 A 
HETATM    3  C4  UNL     1      19.379   0.666  50.676  1.00  0.00     0.040 A 
HETATM    4  C5  UNL     1      20.074   0.547  51.856  1.00  0.00     0.076 A 
HETATM    5  C6  UNL     1      19.520  -0.093  52.943  1.00  0.00    -0.008 A 
HETATM    6  C7  UNL     1      18.227  -0.581  52.708  1.00  0.00     0.048 A 
HETATM    7  C8  UNL     1      20.092  -0.314  54.285  1.00  0.00     0.151 C 
HETATM    8  N1  UNL     1      20.851  -1.520  54.386  1.00  0.00    -0.235 NA
HETATM    9  N2  UNL     1      22.004  -1.549  53.601  1.00  0.00    -0.315 N 
HETATM   10  C9  UNL     1      22.947  -0.460  53.522  1.00  0.00     0.220 C 
HETATM   11  N3  UNL     1      23.176   0.116  52.395  1.00  0.00    -0.226 NA
HETATM   12  C10 UNL     1      24.105   1.182  52.352  1.00  0.00     0.127 C 
HETATM   13  C17 UNL     1      23.342   2.253  52.058  1.00  0.00     0.050 C 
HETATM   14  C18 UNL     1      21.850   2.316  51.825  1.00  0.00     0.207 C 
HETATM   15  O2  UNL     1      21.315   1.059  51.957  1.00  0.00    -0.347 OA
HETATM   16  H9  UNL     1      21.096  -1.692  55.373  1.00  0.00     0.146 HD
HETATM   17  H10 UNL     1      22.410  -2.272  52.971  1.00  0.00     0.181 HD
ENDROOT
BRANCH  12  18
HETATM   18  N4  UNL     1      25.458   1.466  52.503  1.00  0.00    -0.341 N 
HETATM   19  H12 UNL     1      25.618   2.450  52.178  1.00  0.00     0.167 HD
BRANCH  18  20
HETATM   20  C11 UNL     1      26.703   0.953  52.922  1.00  0.00     0.035 A 
HETATM   21  C12 UNL     1      26.926  -0.396  52.642  1.00  0.00     0.032 A 
HETATM   22  C13 UNL     1      28.147  -0.946  53.035  1.00  0.00     0.046 A 
HETATM   23  C14 UNL     1      29.074  -0.138  53.680  1.00  0.00     0.138 A 
HETATM   24  F1  UNL     1      30.288  -0.619  54.091  1.00  0.00    -0.204 F 
HETATM   25  C15 UNL     1      28.798   1.190  53.931  1.00  0.00     0.074 A 
HETATM   26 CL1  UNL     1      29.943   2.265  54.748  1.00  0.00    -0.081 Cl
HETATM   27  C16 UNL     1      27.608   1.781  53.563  1.00  0.00     0.056 A 
ENDBRANCH  18  20
ENDBRANCH  12  18
BRANCH   1  28
HETATM   28  O1  UNL     1      16.254  -0.986  51.404  1.00  0.00    -0.356 OA
HETATM   29  C1  UNL     1      15.747  -1.915  52.334  1.00  0.00     0.210 C 
ENDBRANCH   1  28
TORSDOF 3
ENDMDL
MODEL 2
REMARK VINA RESULT:      -8.5      4.812      9.159
REMARK  3 active torsions:
REMARK  status: ('A' for Active; 'I' for Inactive)
REMARK    1  A    between atoms: O1_2  and  C2_3 
REMARK    2  A    between atoms: C10_14  and  N4_15 
REMARK    3  A    between atoms: N4_15  and  C11_16 
ROOT
HETATM    1  C2  UNL     1      27.121   0.257  52.955  1.00  0.00     0.068 A 
HETATM    2  C3  UNL     1      26.674  -0.985  53.294  1.00  0.00     0.039 A 
HETATM    3  C4  UNL     1      25.340  -1.129  53.576  1.00  0.00     0.040 A 
HETATM    4  C5  UNL     1      24.439  -0.092  53.536  1.00  0.00     0.076 A 
HETATM    5  C6  UNL     1      24.840   1.184  53.200  1.00  0.00    -0.008 A 
HETATM    6  C7  UNL     1      26.209   1.286  52.920  1.00  0.00     0.048 A 
HETATM    7  C8  UNL     1      24.038   2.419  53.111  1.00  0.00     0.151 C 
HETATM    8  N1  UNL     1      23.455   2.625  51.823  1.00  0.00    -0.235 NA
HETATM    9  N2  UNL     1      22.507   1.670  51.454  1.00  0.00    -0.315 N 
HETATM   10  C9  UNL     1      21.456   1.206  52.326  1.00  0.00     0.220 C 
HETATM   11  N3  UNL     1      21.388  -0.037  52.652  1.00  0.00    -0.226 NA
HETATM   12  C10 UNL     1      20.345  -0.458  53.511  1.00  0.00     0.127 C 
HETATM   13  C17 UNL     1      20.991  -0.822  54.636  1.00  0.00     0.050 C 
HETATM   14  C18 UNL     1      22.475  -0.794  54.925  1.00  0.00     0.207 C 
HETATM   15  O2  UNL     1      23.144  -0.318  53.826  1.00  0.00    -0.347 OA
HETATM   16  H9  UNL     1      23.037   3.566  51.780  1.00  0.00     0.146 HD
HETATM   17  H10 UNL     1      22.349   1.136  50.574  1.00  0.00     0.181 HD
ENDROOT
BRANCH  12  18
HETATM   18  N4  UNL     1      18.964  -0.611  53.569  1.00  0.00    -0.341 N 
HETATM   19  H12 UNL     1      18.568   0.220  54.069  1.00  0.00     0.167 HD
BRANCH  18  20
HETATM   20  C11 UNL     1      17.882  -1.445  53.218  1.00  0.00     0.035 A 
HETATM   21  C12 UNL     1      16.902  -0.859  52.415  1.00  0.00     0.032 A 
HETATM   22  C13 UNL     1      15.814  -1.649  52.040  1.00  0.00     0.046 A 
HETATM   23  C14 UNL     1      15.755  -2.966  52.476  1.00  0.00     0.138 A 
HETATM   24  F1  UNL     1      14.714  -3.791  52.143  1.00  0.00    -0.204 F 
HETATM   25  C15 UNL     1      16.754  -3.492  53.269  1.00  0.00     0.074 A 
HETATM   26 CL1  UNL     1      16.730  -5.164  53.852  1.00  0.00    -0.081 Cl
HETATM   27  C16 UNL     1      17.848  -2.755  53.667  1.00  0.00     0.056 A 
ENDBRANCH  18  20
ENDBRANCH  12  18
BRANCH   1  28
HETATM   28  O1  UNL     1      28.449   0.462  52.661  1.00  0.00    -0.356 OA
HETATM   29  C1  UNL     1      29.450   0.262  53.632  1.00  0.00     0.210 C 
ENDBRANCH   1  28
TORSDOF 3
ENDMDL
MODEL 3
REMARK VINA RESULT:      -8.4      5.416      8.867
REMARK  3 active torsions:
REMARK  status: ('A' for Active; 'I' for Inactive)
REMARK    1  A    between atoms: O1_2  and  C2_3 
REMARK    2  A    between atoms: C10_14  and  N4_15 
REMARK    3  A    between atoms: N4_15  and  C11_16 
ROOT
HETATM    1  C2  UNL     1      27.232   6.993  48.173  1.00  0.00     0.068 A 
HETATM    2  C3  UNL     1      25.971   7.511  48.166  1.00  0.00     0.039 A 
HETATM    3  C4  UNL     1      24.944   6.699  48.568  1.00  0.00     0.040 A 
HETATM    4  C5  UNL     1      25.118   5.397  48.974  1.00  0.00     0.076 A 
HETATM    5  C6  UNL     1      26.372   4.824  48.999  1.00  0.00    -0.008 A 
HETATM    6  C7  UNL     1      27.392   5.689  48.580  1.00  0.00     0.048 A 
HETATM    7  C8  UNL     1      26.764   3.456  49.388  1.00  0.00     0.151 C 
HETATM    8  N1  UNL     1      27.042   3.321  50.783  1.00  0.00    -0.235 NA
HETATM    9  N2  UNL     1      25.943   3.527  51.618  1.00  0.00    -0.315 N 
HETATM   10  C9  UNL     1      24.642   2.949  51.387  1.00  0.00     0.220 C 
HETATM   11  N3  UNL     1      23.619   3.708  51.209  1.00  0.00    -0.226 NA
HETATM   12  C10 UNL     1      22.358   3.109  50.983  1.00  0.00     0.127 C 
HETATM   13  C17 UNL     1      22.073   3.445  49.710  1.00  0.00     0.050 C 
HETATM   14  C18 UNL     1      22.893   4.268  48.743  1.00  0.00     0.207 C 
HETATM   15  O2  UNL     1      24.055   4.666  49.355  1.00  0.00    -0.347 OA
HETATM   16  H9  UNL     1      27.449   2.391  50.965  1.00  0.00     0.146 HD
HETATM   17  H10 UNL     1      25.817   4.072  52.496  1.00  0.00     0.181 HD
ENDROOT
BRANCH  12  18
HETATM   18  N4  UNL     1      21.381   2.338  51.604  1.00  0.00    -0.341 N 
HETATM   19  H12 UNL     1      20.449   2.773  51.400  1.00  0.00     0.167 HD
BRANCH  18  20
HETATM   20  C11 UNL     1      21.147   1.199  52.402  1.00  0.00     0.035 A 
HETATM   21  C12 UNL     1      22.247   0.731  53.125  1.00  0.00     0.032 A 
HETATM   22  C13 UNL     1      22.061  -0.393  53.931  1.00  0.00     0.046 A 
HETATM   23  C14 UNL     1      20.807  -0.989  53.979  1.00  0.00     0.138 A 
HETATM   24  F1  UNL     1      20.562  -2.093  54.749  1.00  0.00    -0.204 F 
HETATM   25  C15 UNL     1      19.757  -0.482  53.242  1.00  0.00     0.074 A 
HETATM   26 CL1  UNL     1      18.139  -1.201  53.266  1.00  0.00    -0.081 Cl
HETATM   27  C16 UNL     1      19.888   0.625  52.431  1.00  0.00     0.056 A 
ENDBRANCH  18  20
ENDBRANCH  12  18
BRANCH   1  28
HETATM   28  O1  UNL     1      28.303   7.761  47.781  1.00  0.00    -0.356 OA
HETATM   29  C1  UNL     1      29.407   7.962  48.634  1.00  0.00     0.210 C 
ENDBRANCH   1  28
TORSDOF 3
ENDMDL
MODEL 4
REMARK VINA RESULT:      -8.4      4.932      6.315
REMARK  3 active torsions:
REMARK  status: ('A' for Active; 'I' for Inactive)
REMARK    1  A    between atoms: O1_2  and  C2_3 
REMARK    2  A    between atoms: C10_14  and  N4_15 
REMARK    3  A    between atoms: N4_15  and  C11_16 
ROOT
HETATM    1  C2  UNL     1      22.311  -0.321  52.732  1.00  0.00     0.068 A 
HETATM    2  C3  UNL     1      21.692   0.178  51.624  1.00  0.00     0.039 A 
HETATM    3  C4  UNL     1      22.251   1.273  51.020  1.00  0.00     0.040 A 
HETATM    4  C5  UNL     1      23.395   1.890  51.470  1.00  0.00     0.076 A 
HETATM    5  C6  UNL     1      24.058   1.425  52.585  1.00  0.00    -0.008 A 
HETATM    6  C7  UNL     1      23.453   0.305  53.172  1.00  0.00     0.048 A 
HETATM    7  C8  UNL     1      25.281   1.946  53.227  1.00  0.00     0.151 C 
HETATM    8  N1  UNL     1      26.482   1.388  52.693  1.00  0.00    -0.235 NA
HETATM    9  N2  UNL     1      26.730   1.709  51.357  1.00  0.00    -0.315 N 
HETATM   10  C9  UNL     1      26.603   3.040  50.816  1.00  0.00     0.220 C 
HETATM   11  N3  UNL     1      25.764   3.276  49.871  1.00  0.00    -0.226 NA
HETATM   12  C10 UNL     1      25.663   4.593  49.364  1.00  0.00     0.127 C 
HETATM   13  C17 UNL     1      24.429   4.981  49.738  1.00  0.00     0.050 C 
HETATM   14  C18 UNL     1      23.387   4.205  50.512  1.00  0.00     0.207 C 
HETATM   15  O2  UNL     1      23.880   2.961  50.816  1.00  0.00    -0.347 OA
HETATM   16  H9  UNL     1      27.284   1.675  53.274  1.00  0.00     0.146 HD
HETATM   17  H10 UNL     1      27.030   1.139  50.539  1.00  0.00     0.181 HD
ENDROOT
BRANCH  12  18
HETATM   18  N4  UNL     1      26.374   5.554  48.652  1.00  0.00    -0.341 N 
HETATM   19  H12 UNL     1      25.706   6.036  48.005  1.00  0.00     0.167 HD
BRANCH  18  20
HETATM   20  C11 UNL     1      27.644   6.138  48.458  1.00  0.00     0.035 A 
HETATM   21  C12 UNL     1      27.680   7.533  48.498  1.00  0.00     0.032 A 
HETATM   22  C13 UNL     1      28.916   8.154  48.315  1.00  0.00     0.046 A 
HETATM   23  C14 UNL     1      30.041   7.368  48.102  1.00  0.00     0.138 A 
HETATM   24  F1  UNL     1      31.281   7.917  47.915  1.00  0.00    -0.204 F 
HETATM   25  C15 UNL     1      29.944   5.992  48.073  1.00  0.00     0.074 A 
HETATM   26 CL1  UNL     1      31.345   4.942  47.808  1.00  0.00    -0.081 Cl
HETATM   27  C16 UNL     1      28.748   5.330  48.249  1.00  0.00     0.056 A 
ENDBRANCH  18  20
ENDBRANCH  12  18
BRANCH   1  28
HETATM   28  O1  UNL     1      21.796  -1.419  53.381  1.00  0.00    -0.356 OA
HETATM   29  C1  UNL     1      21.496  -1.377  54.757  1.00  0.00     0.210 C 
ENDBRANCH   1  28
TORSDOF 3
ENDMDL
MODEL 5
REMARK VINA RESULT:      -8.3      5.485      9.182
REMARK  3 active torsions:
REMARK  status: ('A' for Active; 'I' for Inactive)
REMARK    1  A    between atoms: O1_2  and  C2_3 
REMARK    2  A    between atoms: C10_14  and  N4_15 
REMARK    3  A    between atoms: N4_15  and  C11_16 
ROOT
HETATM    1  C2  UNL     1      25.738  -0.028  54.338  1.00  0.00     0.068 A 
HETATM    2  C3  UNL     1      25.701   1.049  53.502  1.00  0.00     0.039 A 
HETATM    3  C4  UNL     1      24.536   1.288  52.820  1.00  0.00     0.040 A 
HETATM    4  C5  UNL     1      23.413   0.503  52.935  1.00  0.00     0.076 A 
HETATM    5  C6  UNL     1      23.399  -0.597  53.765  1.00  0.00    -0.008 A 
HETATM    6  C7  UNL     1      24.609  -0.805  54.442  1.00  0.00     0.048 A 
HETATM    7  C8  UNL     1      22.310  -1.560  54.017  1.00  0.00     0.151 C 
HETATM    8  N1  UNL     1      21.439  -1.166  55.079  1.00  0.00    -0.235 NA
HETATM    9  N2  UNL     1      20.709  -0.003  54.831  1.00  0.00    -0.315 N 
HETATM   10  C9  UNL     1      20.015   0.259  53.594  1.00  0.00     0.220 C 
HETATM   11  N3  UNL     1      20.333   1.279  52.878  1.00  0.00    -0.226 NA
HETATM   12  C10 UNL     1      19.634   1.506  51.669  1.00  0.00     0.127 C 
HETATM   13  C17 UNL     1      20.571   1.308  50.721  1.00  0.00     0.050 C 
HETATM   14  C18 UNL     1      22.025   0.934  50.893  1.00  0.00     0.207 C 
HETATM   15  O2  UNL     1      22.308   0.808  52.230  1.00  0.00    -0.347 OA
HETATM   16  H9  UNL     1      20.796  -1.941  55.303  1.00  0.00     0.146 HD
HETATM   17  H10 UNL     1      20.512   0.841  55.407  1.00  0.00     0.181 HD
ENDROOT
BRANCH  12  18
HETATM   18  N4  UNL     1      18.380   1.846  51.173  1.00  0.00    -0.341 N 
HETATM   19  H12 UNL     1      18.368   1.624  50.149  1.00  0.00     0.167 HD
BRANCH  18  20
HETATM   20  C11 UNL     1      17.114   2.373  51.504  1.00  0.00     0.035 A 
HETATM   21  C12 UNL     1      17.053   3.762  51.637  1.00  0.00     0.032 A 
HETATM   22  C13 UNL     1      15.819   4.327  51.960  1.00  0.00     0.046 A 
HETATM   23  C14 UNL     1      14.720   3.495  52.135  1.00  0.00     0.138 A 
HETATM   24  F1  UNL     1      13.484   3.989  52.453  1.00  0.00    -0.204 F 
HETATM   25  C15 UNL     1      14.841   2.129  51.991  1.00  0.00     0.074 A 
HETATM   26 CL1  UNL     1      13.475   1.022  52.200  1.00  0.00    -0.081 Cl
HETATM   27  C16 UNL     1      16.036   1.521  51.672  1.00  0.00     0.056 A 
ENDBRANCH  18  20
ENDBRANCH  12  18
BRANCH   1  28
HETATM   28  O1  UNL     1      26.879  -0.317  55.049  1.00  0.00    -0.356 OA
HETATM   29  C1  UNL     1      28.122   0.239  54.690  1.00  0.00     0.210 C 
ENDBRANCH   1  28
TORSDOF 3
ENDMDL
MODEL 6
REMARK VINA RESULT:      -8.2      3.806      5.589
REMARK  3 active torsions:
REMARK  status: ('A' for Active; 'I' for Inactive)
REMARK    1  A    between atoms: O1_2  and  C2_3 
REMARK    2  A    between atoms: C10_14  and  N4_15 
REMARK    3  A    between atoms: N4_15  and  C11_16 
ROOT
HETATM    1  C2  UNL     1      20.361   7.192  49.794  1.00  0.00     0.068 A 
HETATM    2  C3  UNL     1      19.721   5.988  49.777  1.00  0.00     0.039 A 
HETATM    3  C4  UNL     1      20.446   4.875  50.113  1.00  0.00     0.040 A 
HETATM    4  C5  UNL     1      21.775   4.910  50.464  1.00  0.00     0.076 A 
HETATM    5  C6  UNL     1      22.468   6.101  50.496  1.00  0.00    -0.008 A 
HETATM    6  C7  UNL     1      21.690   7.213  50.145  1.00  0.00     0.048 A 
HETATM    7  C8  UNL     1      23.884   6.346  50.833  1.00  0.00     0.151 C 
HETATM    8  N1  UNL     1      24.104   6.567  52.227  1.00  0.00    -0.235 NA
HETATM    9  N2  UNL     1      23.828   5.468  53.041  1.00  0.00    -0.315 N 
HETATM   10  C9  UNL     1      24.266   4.124  52.750  1.00  0.00     0.220 C 
HETATM   11  N3  UNL     1      23.402   3.186  52.579  1.00  0.00    -0.226 NA
HETATM   12  C10 UNL     1      23.865   1.880  52.293  1.00  0.00     0.127 C 
HETATM   13  C17 UNL     1      23.448   1.668  51.029  1.00  0.00     0.050 C 
HETATM   14  C18 UNL     1      22.669   2.594  50.123  1.00  0.00     0.207 C 
HETATM   15  O2  UNL     1      22.414   3.769  50.783  1.00  0.00    -0.347 OA
HETATM   16  H9  UNL     1      25.077   6.877  52.377  1.00  0.00     0.146 HD
HETATM   17  H10 UNL     1      23.311   5.368  53.939  1.00  0.00     0.181 HD
ENDROOT
BRANCH  12  18
HETATM   18  N4  UNL     1      24.562   0.815  52.852  1.00  0.00    -0.341 N 
HETATM   19  H12 UNL     1      23.867   0.185  53.321  1.00  0.00     0.167 HD
BRANCH  18  20
HETATM   20  C11 UNL     1      25.838   0.244  53.038  1.00  0.00     0.035 A 
HETATM   21  C12 UNL     1      25.982  -1.073  52.597  1.00  0.00     0.032 A 
HETATM   22  C13 UNL     1      27.230  -1.677  52.757  1.00  0.00     0.046 A 
HETATM   23  C14 UNL     1      28.261  -0.952  53.340  1.00  0.00     0.138 A 
HETATM   24  F1  UNL     1      29.506  -1.489  53.525  1.00  0.00    -0.204 F 
HETATM   25  C15 UNL     1      28.060   0.348  53.757  1.00  0.00     0.074 A 
HETATM   26 CL1  UNL     1      29.339   1.318  54.504  1.00  0.00    -0.081 Cl
HETATM   27  C16 UNL     1      26.848   0.990  53.622  1.00  0.00     0.056 A 
ENDBRANCH  18  20
ENDBRANCH  12  18
BRANCH   1  28
HETATM   28  O1  UNL     1      19.685   8.343  49.466  1.00  0.00    -0.356 OA
HETATM   29  C1  UNL     1      20.377   9.521  49.118  1.00  0.00     0.210 C 
ENDBRANCH   1  28
TORSDOF 3
ENDMDL
MODEL 7
REMARK VINA RESULT:      -8.2      4.670      9.080
REMARK  3 active torsions:
REMARK  status: ('A' for Active; 'I' for Inactive)
REMARK    1  A    between atoms: O1_2  and  C2_3 
REMARK    2  A    between atoms: C10_14  and  N4_15 
REMARK    3  A    between atoms: N4_15  and  C11_16 
ROOT
HETATM    1  C2  UNL     1      27.448   0.646  53.116  1.00  0.00     0.068 A 
HETATM    2  C3  UNL     1      27.112  -0.627  53.470  1.00  0.00     0.039 A 
HETATM    3  C4  UNL     1      25.791  -0.893  53.718  1.00  0.00     0.040 A 
HETATM    4  C5  UNL     1      24.795   0.051  53.629  1.00  0.00     0.076 A 
HETATM    5  C6  UNL     1      25.082   1.352  53.276  1.00  0.00    -0.008 A 
HETATM    6  C7  UNL     1      26.443   1.581  53.033  1.00  0.00     0.048 A 
HETATM    7  C8  UNL     1      24.169   2.503  53.137  1.00  0.00     0.151 C 
HETATM    8  N1  UNL     1      23.608   2.626  51.829  1.00  0.00    -0.235 NA
HETATM    9  N2  UNL     1      22.767   1.576  51.455  1.00  0.00    -0.315 N 
HETATM   10  C9  UNL     1      21.739   1.030  52.307  1.00  0.00     0.220 C 
HETATM   11  N3  UNL     1      21.781  -0.206  52.659  1.00  0.00    -0.226 NA
HETATM   12  C10 UNL     1      20.758  -0.710  53.497  1.00  0.00     0.127 C 
HETATM   13  C17 UNL     1      21.402  -0.987  54.648  1.00  0.00     0.050 C 
HETATM   14  C18 UNL     1      22.867  -0.810  54.978  1.00  0.00     0.207 C 
HETATM   15  O2  UNL     1      23.520  -0.294  53.888  1.00  0.00    -0.347 OA
HETATM   16  H9  UNL     1      23.102   3.522  51.753  1.00  0.00     0.146 HD
HETATM   17  H10 UNL     1      22.688   1.013  50.583  1.00  0.00     0.181 HD
ENDROOT
BRANCH  12  18
HETATM   18  N4  UNL     1      19.397  -0.994  53.520  1.00  0.00    -0.341 N 
HETATM   19  H12 UNL     1      19.152  -1.322  54.484  1.00  0.00     0.167 HD
BRANCH  18  20
HETATM   20  C11 UNL     1      18.212  -1.014  52.755  1.00  0.00     0.035 A 
HETATM   21  C12 UNL     1      17.212  -1.875  53.211  1.00  0.00     0.032 A 
HETATM   22  C13 UNL     1      16.020  -1.924  52.488  1.00  0.00     0.046 A 
HETATM   23  C14 UNL     1      15.882  -1.126  51.359  1.00  0.00     0.138 A 
HETATM   24  F1  UNL     1      14.738  -1.130  50.608  1.00  0.00    -0.204 F 
HETATM   25  C15 UNL     1      16.905  -0.293  50.956  1.00  0.00     0.074 A 
HETATM   26 CL1  UNL     1      16.783   0.747  49.528  1.00  0.00    -0.081 Cl
HETATM   27  C16 UNL     1      18.102  -0.207  51.635  1.00  0.00     0.056 A 
ENDBRANCH  18  20
ENDBRANCH  12  18
BRANCH   1  28
HETATM   28  O1  UNL     1      28.758   0.972  52.855  1.00  0.00    -0.356 OA
HETATM   29  C1  UNL     1      29.818   0.308  53.504  1.00  0.00     0.210 C 
ENDBRANCH   1  28
TORSDOF 3
ENDMDL
MODEL 8
REMARK VINA RESULT:      -8.1      5.682      9.017
REMARK  3 active torsions:
REMARK  status: ('A' for Active; 'I' for Inactive)
REMARK    1  A    between atoms: O1_2  and  C2_3 
REMARK    2  A    between atoms: C10_14  and  N4_15 
REMARK    3  A    between atoms: N4_15  and  C11_16 
ROOT
HETATM    1  C2  UNL     1      26.714   8.769  49.530  1.00  0.00     0.068 A 
HETATM    2  C3  UNL     1      25.469   8.935  50.059  1.00  0.00     0.039 A 
HETATM    3  C4  UNL     1      24.662   7.831  50.150  1.00  0.00     0.040 A 
HETATM    4  C5  UNL     1      25.041   6.576  49.739  1.00  0.00     0.076 A 
HETATM    5  C6  UNL     1      26.289   6.355  49.196  1.00  0.00    -0.008 A 
HETATM    6  C7  UNL     1      27.081   7.508  49.121  1.00  0.00     0.048 A 
HETATM    7  C8  UNL     1      26.876   5.098  48.692  1.00  0.00     0.151 C 
HETATM    8  N1  UNL     1      27.549   4.342  49.699  1.00  0.00    -0.235 NA
HETATM    9  N2  UNL     1      26.722   3.856  50.712  1.00  0.00    -0.315 N 
HETATM   10  C9  UNL     1      25.455   3.208  50.471  1.00  0.00     0.220 C 
HETATM   11  N3  UNL     1      24.371   3.713  50.944  1.00  0.00    -0.226 NA
HETATM   12  C10 UNL     1      23.146   3.054  50.687  1.00  0.00     0.127 C 
HETATM   13  C17 UNL     1      22.485   3.916  49.889  1.00  0.00     0.050 C 
HETATM   14  C18 UNL     1      22.933   5.269  49.383  1.00  0.00     0.207 C 
HETATM   15  O2  UNL     1      24.188   5.543  49.865  1.00  0.00    -0.347 OA
HETATM   16  H9  UNL     1      28.060   3.560  49.261  1.00  0.00     0.146 HD
HETATM   17  H10 UNL     1      26.811   3.842  51.750  1.00  0.00     0.181 HD
ENDROOT
BRANCH  12  18
HETATM   18  N4  UNL     1      22.446   1.886  50.971  1.00  0.00    -0.341 N 
HETATM   19  H12 UNL     1      21.928   1.602  50.105  1.00  0.00     0.167 HD
BRANCH  18  20
HETATM   20  C11 UNL     1      22.158   0.929  51.967  1.00  0.00     0.035 A 
HETATM   21  C12 UNL     1      23.247   0.507  52.732  1.00  0.00     0.032 A 
HETATM   22  C13 UNL     1      23.008  -0.436  53.732  1.00  0.00     0.046 A 
HETATM   23  C14 UNL     1      21.715  -0.908  53.920  1.00  0.00     0.138 A 
HETATM   24  F1  UNL     1      21.417  -1.834  54.883  1.00  0.00    -0.204 F 
HETATM   25  C15 UNL     1      20.678  -0.454  53.132  1.00  0.00     0.074 A 
HETATM   26 CL1  UNL     1      19.012  -1.020  53.328  1.00  0.00    -0.081 Cl
HETATM   27  C16 UNL     1      20.860   0.477  52.132  1.00  0.00     0.056 A 
ENDBRANCH  18  20
ENDBRANCH  12  18
BRANCH   1  28
HETATM   28  O1  UNL     1      27.569   9.840  49.413  1.00  0.00    -0.356 OA
HETATM   29  C1  UNL     1      28.593   9.853  48.444  1.00  0.00     0.210 C 
ENDBRANCH   1  28
TORSDOF 3
ENDMDL
MODEL 9
REMARK VINA RESULT:      -7.9      5.495      7.047
REMARK  3 active torsions:
REMARK  status: ('A' for Active; 'I' for Inactive)
REMARK    1  A    between atoms: O1_2  and  C2_3 
REMARK    2  A    between atoms: C10_14  and  N4_15 
REMARK    3  A    between atoms: N4_15  and  C11_16 
ROOT
HETATM    1  C2  UNL     1      23.587  -0.264  53.657  1.00  0.00     0.068 A 
HETATM    2  C3  UNL     1      24.873   0.144  53.853  1.00  0.00     0.039 A 
HETATM    3  C4  UNL     1      25.386   1.075  52.988  1.00  0.00     0.040 A 
HETATM    4  C5  UNL     1      24.675   1.613  51.941  1.00  0.00     0.076 A 
HETATM    5  C6  UNL     1      23.372   1.233  51.700  1.00  0.00    -0.008 A 
HETATM    6  C7  UNL     1      22.888   0.281  52.606  1.00  0.00     0.048 A 
HETATM    7  C8  UNL     1      22.454   1.681  50.635  1.00  0.00     0.151 C 
HETATM    8  N1  UNL     1      21.697   2.840  50.990  1.00  0.00    -0.235 NA
HETATM    9  N2  UNL     1      22.457   3.994  51.183  1.00  0.00    -0.315 N 
HETATM   10  C9  UNL     1      23.500   4.427  50.285  1.00  0.00     0.220 C 
HETATM   11  N3  UNL     1      24.710   4.540  50.707  1.00  0.00    -0.226 NA
HETATM   12  C10 UNL     1      25.709   4.965  49.800  1.00  0.00     0.127 C 
HETATM   13  C17 UNL     1      26.496   3.880  49.667  1.00  0.00     0.050 C 
HETATM   14  C18 UNL     1      26.359   2.526  50.325  1.00  0.00     0.207 C 
HETATM   15  O2  UNL     1      25.253   2.525  51.138  1.00  0.00    -0.347 OA
HETATM   16  H9  UNL     1      20.975   3.013  50.273  1.00  0.00     0.146 HD
HETATM   17  H10 UNL     1      22.450   4.727  51.923  1.00  0.00     0.181 HD
ENDROOT
BRANCH  12  18
HETATM   18  N4  UNL     1      26.117   6.064  49.051  1.00  0.00    -0.341 N 
HETATM   19  H12 UNL     1      25.387   6.248  48.323  1.00  0.00     0.167 HD
BRANCH  18  20
HETATM   20  C11 UNL     1      27.129   7.033  48.886  1.00  0.00     0.035 A 
HETATM   21  C12 UNL     1      26.968   8.208  49.624  1.00  0.00     0.032 A 
HETATM   22  C13 UNL     1      27.948   9.193  49.495  1.00  0.00     0.046 A 
HETATM   23  C14 UNL     1      29.026   8.965  48.649  1.00  0.00     0.138 A 
HETATM   24  F1  UNL     1      30.018   9.892  48.479  1.00  0.00    -0.204 F 
HETATM   25  C15 UNL     1      29.132   7.784  47.944  1.00  0.00     0.074 A 
HETATM   26 CL1  UNL     1      30.485   7.441  46.855  1.00  0.00    -0.081 Cl
HETATM   27  C16 UNL     1      28.193   6.780  48.037  1.00  0.00     0.056 A 
ENDBRANCH  18  20
ENDBRANCH  12  18
BRANCH   1  28
HETATM   28  O1  UNL     1      23.018  -1.196  54.493  1.00  0.00    -0.356 OA
HETATM   29  C1  UNL     1      21.626  -1.417  54.499  1.00  0.00     0.210 C 
ENDBRANCH   1  28
TORSDOF 3
ENDMDL
