MODEL 1
REMARK VINA RESULT:      -8.1      0.000      0.000
REMARK  4 active torsions:
REMARK  status: ('A' for Active; 'I' for Inactive)
REMARK    1  A    between atoms: C5_6  and  N2_7 
REMARK    2  A    between atoms: N2_7  and  C6_8 
REMARK    3  A    between atoms: C6_8  and  C7_9 
REMARK    4  A    between atoms: C12_14  and  O1_15 
ROOT
HETATM    1  C1  UNL     1      19.832   1.895  52.277  1.00  0.00     0.136 C 
HETATM    2  N1  UNL     1      19.853   0.427  51.980  1.00  0.00    -0.234 NA
HETATM    3  C2  UNL     1      20.230  -0.250  53.238  1.00  0.00     0.122 C 
HETATM    4  C3  UNL     1      21.675  -0.394  53.337  1.00  0.00     0.034 C 
HETATM    5  C4  UNL     1      22.955  -0.832  53.497  1.00  0.00     0.009 C 
HETATM    6  C5  UNL     1      24.103   0.057  53.322  1.00  0.00     0.022 C 
HETATM    7  C13 UNL     1      24.460   1.307  52.988  1.00  0.00     0.023 C 
HETATM    8  C14 UNL     1      23.662   2.515  52.565  1.00  0.00     0.179 C 
HETATM    9  N3  UNL     1      22.307   2.005  52.418  1.00  0.00    -0.280 NA
HETATM   10  C15 UNL     1      22.143   1.034  51.535  1.00  0.00     0.212 C 
HETATM   11  N4  UNL     1      20.987   0.273  51.102  1.00  0.00    -0.314 N 
HETATM   12  H20 UNL     1      21.035  -0.297  50.241  1.00  0.00     0.181 HD
ENDROOT
BRANCH   6  13
HETATM   13  N2  UNL     1      25.384  -0.554  53.592  1.00  0.00    -0.386 N 
HETATM   14  H8  UNL     1      25.660  -0.287  54.584  1.00  0.00     0.160 HD
BRANCH  13  15
HETATM   15  C6  UNL     1      26.214  -1.388  52.745  1.00  0.00     0.161 C 
BRANCH  15  16
HETATM   16  C7  UNL     1      27.633  -1.051  53.065  1.00  0.00    -0.007 A 
HETATM   17  C8  UNL     1      27.971   0.284  53.316  1.00  0.00     0.011 A 
HETATM   18  C9  UNL     1      29.255   0.708  53.622  1.00  0.00     0.001 A 
HETATM   19  C10 UNL     1      30.239  -0.247  53.679  1.00  0.00     0.003 A 
HETATM   20  C11 UNL     1      29.920  -1.562  53.434  1.00  0.00     0.037 A 
HETATM   21  C12 UNL     1      28.635  -1.987  53.128  1.00  0.00     0.073 A 
BRANCH  21  22
HETATM   22  O1  UNL     1      28.335  -3.314  52.886  1.00  0.00    -0.360 OA
HETATM   23  H15 UNL     1      28.093  -3.559  51.917  1.00  0.00     0.217 HD
ENDBRANCH  21  22
ENDBRANCH  15  16
ENDBRANCH  13  15
ENDBRANCH   6  13
TORSDOF 4
ENDMDL
MODEL 2
REMARK VINA RESULT:      -7.8      1.857      2.758
REMARK  4 active torsions:
REMARK  status: ('A' for Active; 'I' for Inactive)
REMARK    1  A    between atoms: C5_6  and  N2_7 
REMARK    2  A    between atoms: N2_7  and  C6_8 
REMARK    3  A    between atoms: C6_8  and  C7_9 
REMARK    4  A    between atoms: C12_14  and  O1_15 
ROOT
HETATM    1  C1  UNL     1      18.743   0.061  52.046  1.00  0.00     0.136 C 
HETATM    2  N1  UNL     1      19.408   1.323  51.585  1.00  0.00    -0.234 NA
HETATM    3  C2  UNL     1      20.518   0.913  50.700  1.00  0.00     0.122 C 
HETATM    4  C3  UNL     1      21.742   0.714  51.461  1.00  0.00     0.034 C 
HETATM    5  C4  UNL     1      23.014   0.716  51.948  1.00  0.00     0.009 C 
HETATM    6  C5  UNL     1      23.373  -0.001  53.172  1.00  0.00     0.022 C 
HETATM    7  C13 UNL     1      22.878  -0.744  54.173  1.00  0.00     0.023 C 
HETATM    8  C14 UNL     1      21.481  -1.208  54.502  1.00  0.00     0.179 C 
HETATM    9  N3  UNL     1      20.645  -0.517  53.530  1.00  0.00    -0.280 NA
HETATM   10  C15 UNL     1      20.692   0.805  53.557  1.00  0.00     0.212 C 
HETATM   11  N4  UNL     1      20.032   1.835  52.779  1.00  0.00    -0.314 N 
HETATM   12  H20 UNL     1      20.044   2.816  53.104  1.00  0.00     0.181 HD
ENDROOT
BRANCH   6  13
HETATM   13  N2  UNL     1      24.777   0.053  53.510  1.00  0.00    -0.386 N 
HETATM   14  H8  UNL     1      25.090  -0.941  53.722  1.00  0.00     0.160 HD
BRANCH  13  15
HETATM   15  C6  UNL     1      25.675   1.189  53.576  1.00  0.00     0.161 C 
BRANCH  15  16
HETATM   16  C7  UNL     1      27.065   0.643  53.565  1.00  0.00    -0.007 A 
HETATM   17  C8  UNL     1      27.256  -0.713  53.277  1.00  0.00     0.011 A 
HETATM   18  C9  UNL     1      28.500  -1.324  53.239  1.00  0.00     0.001 A 
HETATM   19  C10 UNL     1      29.597  -0.541  53.500  1.00  0.00     0.003 A 
HETATM   20  C11 UNL     1      29.422   0.793  53.783  1.00  0.00     0.037 A 
HETATM   21  C12 UNL     1      28.177   1.406  53.821  1.00  0.00     0.073 A 
BRANCH  21  22
HETATM   22  O1  UNL     1      28.024   2.748  54.108  1.00  0.00    -0.360 OA
HETATM   23  H15 UNL     1      28.419   3.410  53.427  1.00  0.00     0.217 HD
ENDBRANCH  21  22
ENDBRANCH  15  16
ENDBRANCH  13  15
ENDBRANCH   6  13
TORSDOF 4
ENDMDL
MODEL 3
REMARK VINA RESULT:      -7.7      2.762      7.004
REMARK  4 active torsions:
REMARK  status: ('A' for Active; 'I' for Inactive)
REMARK    1  A    between atoms: C5_6  and  N2_7 
REMARK    2  A    between atoms: N2_7  and  C6_8 
REMARK    3  A    between atoms: C6_8  and  C7_9 
REMARK    4  A    between atoms: C12_14  and  O1_15 
ROOT
HETATM    1  C1  UNL     1      30.153  -0.249  53.437  1.00  0.00     0.136 C 
HETATM    2  N1  UNL     1      29.258  -1.209  54.160  1.00  0.00    -0.234 NA
HETATM    3  C2  UNL     1      28.453  -1.891  53.126  1.00  0.00     0.122 C 
HETATM    4  C3  UNL     1      27.221  -1.162  52.862  1.00  0.00     0.034 C 
HETATM    5  C4  UNL     1      25.934  -0.766  52.655  1.00  0.00     0.009 C 
HETATM    6  C5  UNL     1      25.591   0.629  52.379  1.00  0.00     0.022 C 
HETATM    7  C13 UNL     1      26.101   1.864  52.260  1.00  0.00     0.023 C 
HETATM    8  C14 UNL     1      27.501   2.406  52.409  1.00  0.00     0.179 C 
HETATM    9  N3  UNL     1      28.265   1.269  52.904  1.00  0.00    -0.280 NA
HETATM   10  C15 UNL     1      27.863   0.754  54.054  1.00  0.00     0.212 C 
HETATM   11  N4  UNL     1      28.338  -0.351  54.865  1.00  0.00    -0.314 N 
HETATM   12  H20 UNL     1      28.014  -0.453  55.841  1.00  0.00     0.181 HD
ENDROOT
BRANCH   6  13
HETATM   13  N2  UNL     1      24.188   0.862  52.121  1.00  0.00    -0.386 N 
HETATM   14  H8  UNL     1      23.969   0.452  51.164  1.00  0.00     0.160 HD
BRANCH  13  15
HETATM   15  C6  UNL     1      23.188   1.518  52.940  1.00  0.00     0.161 C 
BRANCH  15  16
HETATM   16  C7  UNL     1      22.202   0.471  53.340  1.00  0.00    -0.007 A 
HETATM   17  C8  UNL     1      22.636  -0.602  54.126  1.00  0.00     0.011 A 
HETATM   18  C9  UNL     1      21.808  -1.628  54.554  1.00  0.00     0.001 A 
HETATM   19  C10 UNL     1      20.490  -1.574  54.177  1.00  0.00     0.003 A 
HETATM   20  C11 UNL     1      20.050  -0.525  53.405  1.00  0.00     0.037 A 
HETATM   21  C12 UNL     1      20.879   0.502  52.976  1.00  0.00     0.073 A 
BRANCH  21  22
HETATM   22  O1  UNL     1      20.417   1.547  52.200  1.00  0.00    -0.360 OA
HETATM   23  H15 UNL     1      20.986   2.404  52.199  1.00  0.00     0.217 HD
ENDBRANCH  21  22
ENDBRANCH  15  16
ENDBRANCH  13  15
ENDBRANCH   6  13
TORSDOF 4
ENDMDL
MODEL 4
REMARK VINA RESULT:      -7.7      2.822      4.316
REMARK  4 active torsions:
REMARK  status: ('A' for Active; 'I' for Inactive)
REMARK    1  A    between atoms: C5_6  and  N2_7 
REMARK    2  A    between atoms: N2_7  and  C6_8 
REMARK    3  A    between atoms: C6_8  and  C7_9 
REMARK    4  A    between atoms: C12_14  and  O1_15 
ROOT
HETATM    1  C1  UNL     1      22.515   6.406  50.772  1.00  0.00     0.136 C 
HETATM    2  N1  UNL     1      23.971   6.607  51.063  1.00  0.00    -0.234 NA
HETATM    3  C2  UNL     1      24.711   5.777  50.089  1.00  0.00     0.122 C 
HETATM    4  C3  UNL     1      24.935   4.438  50.614  1.00  0.00     0.034 C 
HETATM    5  C4  UNL     1      25.447   3.241  51.017  1.00  0.00     0.009 C 
HETATM    6  C5  UNL     1      24.615   2.221  51.655  1.00  0.00     0.022 C 
HETATM    7  C13 UNL     1      23.376   1.961  52.099  1.00  0.00     0.023 C 
HETATM    8  C14 UNL     1      22.112   2.784  52.133  1.00  0.00     0.179 C 
HETATM    9  N3  UNL     1      22.544   4.104  51.695  1.00  0.00    -0.280 NA
HETATM   10  C15 UNL     1      23.474   4.687  52.433  1.00  0.00     0.212 C 
HETATM   11  N4  UNL     1      24.155   5.964  52.340  1.00  0.00    -0.314 N 
HETATM   12  H20 UNL     1      24.697   6.320  53.145  1.00  0.00     0.181 HD
ENDROOT
BRANCH   6  13
HETATM   13  N2  UNL     1      25.304   0.988  51.960  1.00  0.00    -0.386 N 
HETATM   14  H8  UNL     1      25.639   0.576  51.038  1.00  0.00     0.160 HD
BRANCH  13  15
HETATM   15  C6  UNL     1      25.545   0.349  53.238  1.00  0.00     0.161 C 
BRANCH  15  16
HETATM   16  C7  UNL     1      27.026   0.228  53.388  1.00  0.00    -0.007 A 
HETATM   17  C8  UNL     1      27.631  -1.010  53.147  1.00  0.00     0.011 A 
HETATM   18  C9  UNL     1      28.995  -1.235  53.256  1.00  0.00     0.001 A 
HETATM   19  C10 UNL     1      29.783  -0.173  53.622  1.00  0.00     0.003 A 
HETATM   20  C11 UNL     1      29.200   1.050  53.861  1.00  0.00     0.037 A 
HETATM   21  C12 UNL     1      27.835   1.275  53.752  1.00  0.00     0.073 A 
BRANCH  21  22
HETATM   22  O1  UNL     1      27.270   2.512  53.997  1.00  0.00    -0.360 OA
HETATM   23  H15 UNL     1      26.614   2.567  54.787  1.00  0.00     0.217 HD
ENDBRANCH  21  22
ENDBRANCH  15  16
ENDBRANCH  13  15
ENDBRANCH   6  13
TORSDOF 4
ENDMDL
MODEL 5
REMARK VINA RESULT:      -7.7      1.903      2.436
REMARK  4 active torsions:
REMARK  status: ('A' for Active; 'I' for Inactive)
REMARK    1  A    between atoms: C5_6  and  N2_7 
REMARK    2  A    between atoms: N2_7  and  C6_8 
REMARK    3  A    between atoms: C6_8  and  C7_9 
REMARK    4  A    between atoms: C12_14  and  O1_15 
ROOT
HETATM    1  C1  UNL     1      19.540   1.511  52.034  1.00  0.00     0.136 C 
HETATM    2  N1  UNL     1      20.347   0.288  51.719  1.00  0.00    -0.234 NA
HETATM    3  C2  UNL     1      21.088  -0.053  52.950  1.00  0.00     0.122 C 
HETATM    4  C3  UNL     1      22.380   0.618  52.981  1.00  0.00     0.034 C 
HETATM    5  C4  UNL     1      23.697   0.952  53.077  1.00  0.00     0.009 C 
HETATM    6  C5  UNL     1      24.163   2.322  52.860  1.00  0.00     0.022 C 
HETATM    7  C13 UNL     1      23.763   3.558  52.524  1.00  0.00     0.023 C 
HETATM    8  C14 UNL     1      22.417   4.128  52.152  1.00  0.00     0.179 C 
HETATM    9  N3  UNL     1      21.556   2.957  52.062  1.00  0.00    -0.280 NA
HETATM   10  C15 UNL     1      21.910   2.041  51.176  1.00  0.00     0.212 C 
HETATM   11  N4  UNL     1      21.339   0.766  50.788  1.00  0.00    -0.314 N 
HETATM   12  H20 UNL     1      21.653   0.301  49.919  1.00  0.00     0.181 HD
ENDROOT
BRANCH   6  13
HETATM   13  N2  UNL     1      25.580   2.514  53.064  1.00  0.00    -0.386 N 
HETATM   14  H8  UNL     1      25.717   2.818  54.074  1.00  0.00     0.160 HD
BRANCH  13  15
HETATM   15  C6  UNL     1      26.684   2.350  52.138  1.00  0.00     0.161 C 
BRANCH  15  16
HETATM   16  C7  UNL     1      27.535   1.246  52.671  1.00  0.00    -0.007 A 
HETATM   17  C8  UNL     1      27.090  -0.074  52.541  1.00  0.00     0.011 A 
HETATM   18  C9  UNL     1      27.799  -1.175  52.999  1.00  0.00     0.001 A 
HETATM   19  C10 UNL     1      29.004  -0.939  53.612  1.00  0.00     0.003 A 
HETATM   20  C11 UNL     1      29.453   0.354  53.746  1.00  0.00     0.037 A 
HETATM   21  C12 UNL     1      28.743   1.455  53.288  1.00  0.00     0.073 A 
BRANCH  21  22
HETATM   22  O1  UNL     1      29.213   2.746  53.432  1.00  0.00    -0.360 OA
HETATM   23  H15 UNL     1      28.573   3.501  53.152  1.00  0.00     0.217 HD
ENDBRANCH  21  22
ENDBRANCH  15  16
ENDBRANCH  13  15
ENDBRANCH   6  13
TORSDOF 4
ENDMDL
MODEL 6
REMARK VINA RESULT:      -7.7      2.445      7.264
REMARK  4 active torsions:
REMARK  status: ('A' for Active; 'I' for Inactive)
REMARK    1  A    between atoms: C5_6  and  N2_7 
REMARK    2  A    between atoms: N2_7  and  C6_8 
REMARK    3  A    between atoms: C6_8  and  C7_9 
REMARK    4  A    between atoms: C12_14  and  O1_15 
ROOT
HETATM    1  C1  UNL     1      29.090   0.645  53.547  1.00  0.00     0.136 C 
HETATM    2  N1  UNL     1      28.629  -0.666  54.107  1.00  0.00    -0.234 NA
HETATM    3  C2  UNL     1      27.910  -1.359  53.018  1.00  0.00     0.122 C 
HETATM    4  C3  UNL     1      26.495  -1.018  53.032  1.00  0.00     0.034 C 
HETATM    5  C4  UNL     1      25.133  -1.015  53.030  1.00  0.00     0.009 C 
HETATM    6  C5  UNL     1      24.363   0.227  53.107  1.00  0.00     0.022 C 
HETATM    7  C13 UNL     1      24.471   1.559  53.228  1.00  0.00     0.023 C 
HETATM    8  C14 UNL     1      25.661   2.475  53.376  1.00  0.00     0.179 C 
HETATM    9  N3  UNL     1      26.785   1.563  53.534  1.00  0.00    -0.280 NA
HETATM   10  C15 UNL     1      26.728   0.741  54.568  1.00  0.00     0.212 C 
HETATM   11  N4  UNL     1      27.618  -0.291  55.064  1.00  0.00    -0.314 N 
HETATM   12  H20 UNL     1      27.487  -0.673  56.015  1.00  0.00     0.181 HD
ENDROOT
BRANCH   6  13
HETATM   13  N2  UNL     1      22.931   0.052  53.028  1.00  0.00    -0.386 N 
HETATM   14  H8  UNL     1      22.750  -0.952  52.728  1.00  0.00     0.160 HD
BRANCH  13  15
HETATM   15  C6  UNL     1      21.863   0.998  53.288  1.00  0.00     0.161 C 
BRANCH  15  16
HETATM   16  C7  UNL     1      20.579   0.279  53.037  1.00  0.00    -0.007 A 
HETATM   17  C8  UNL     1      19.777   0.681  51.964  1.00  0.00     0.011 A 
HETATM   18  C9  UNL     1      18.567   0.085  51.640  1.00  0.00     0.001 A 
HETATM   19  C10 UNL     1      18.147  -0.958  52.426  1.00  0.00     0.003 A 
HETATM   20  C11 UNL     1      18.926  -1.364  53.484  1.00  0.00     0.037 A 
HETATM   21  C12 UNL     1      20.137  -0.767  53.809  1.00  0.00     0.073 A 
BRANCH  21  22
HETATM   22  O1  UNL     1      20.905  -1.191  54.876  1.00  0.00    -0.360 OA
HETATM   23  H15 UNL     1      20.603  -0.880  55.809  1.00  0.00     0.217 HD
ENDBRANCH  21  22
ENDBRANCH  15  16
ENDBRANCH  13  15
ENDBRANCH   6  13
TORSDOF 4
ENDMDL
MODEL 7
REMARK VINA RESULT:      -7.6      4.940      6.525
REMARK  4 active torsions:
REMARK  status: ('A' for Active; 'I' for Inactive)
REMARK    1  A    between atoms: C5_6  and  N2_7 
REMARK    2  A    between atoms: N2_7  and  C6_8 
REMARK    3  A    between atoms: C6_8  and  C7_9 
REMARK    4  A    between atoms: C12_14  and  O1_15 
ROOT
HETATM    1  C1  UNL     1      25.690   8.255  48.013  1.00  0.00     0.136 C 
HETATM    2  N1  UNL     1      27.061   8.044  48.579  1.00  0.00    -0.234 NA
HETATM    3  C2  UNL     1      27.623   6.865  47.890  1.00  0.00     0.122 C 
HETATM    4  C3  UNL     1      27.294   5.640  48.605  1.00  0.00     0.034 C 
HETATM    5  C4  UNL     1      27.299   4.438  49.245  1.00  0.00     0.009 C 
HETATM    6  C5  UNL     1      26.080   3.859  49.809  1.00  0.00     0.022 C 
HETATM    7  C13 UNL     1      24.771   4.079  50.007  1.00  0.00     0.023 C 
HETATM    8  C14 UNL     1      23.872   5.244  49.676  1.00  0.00     0.179 C 
HETATM    9  N3  UNL     1      24.789   6.264  49.187  1.00  0.00    -0.280 NA
HETATM   10  C15 UNL     1      25.730   6.654  50.030  1.00  0.00     0.212 C 
HETATM   11  N4  UNL     1      26.809   7.619  49.934  1.00  0.00    -0.314 N 
HETATM   12  H20 UNL     1      27.303   7.930  50.787  1.00  0.00     0.181 HD
ENDROOT
BRANCH   6  13
HETATM   13  N2  UNL     1      26.252   2.549  50.396  1.00  0.00    -0.386 N 
HETATM   14  H8  UNL     1      26.958   2.025  49.798  1.00  0.00     0.160 HD
BRANCH  13  15
HETATM   15  C6  UNL     1      25.630   1.967  51.568  1.00  0.00     0.161 C 
BRANCH  15  16
HETATM   16  C7  UNL     1      26.657   1.098  52.216  1.00  0.00    -0.007 A 
HETATM   17  C8  UNL     1      26.422  -0.278  52.304  1.00  0.00     0.011 A 
HETATM   18  C9  UNL     1      27.306  -1.175  52.884  1.00  0.00     0.001 A 
HETATM   19  C10 UNL     1      28.474  -0.669  53.396  1.00  0.00     0.003 A 
HETATM   20  C11 UNL     1      28.718   0.682  53.315  1.00  0.00     0.037 A 
HETATM   21  C12 UNL     1      27.833   1.580  52.735  1.00  0.00     0.073 A 
BRANCH  21  22
HETATM   22  O1  UNL     1      28.098   2.934  52.664  1.00  0.00    -0.360 OA
HETATM   23  H15 UNL     1      27.955   3.475  53.527  1.00  0.00     0.217 HD
ENDBRANCH  21  22
ENDBRANCH  15  16
ENDBRANCH  13  15
ENDBRANCH   6  13
TORSDOF 4
ENDMDL
MODEL 8
REMARK VINA RESULT:      -7.5      2.110      3.527
REMARK  4 active torsions:
REMARK  status: ('A' for Active; 'I' for Inactive)
REMARK    1  A    between atoms: C5_6  and  N2_7 
REMARK    2  A    between atoms: N2_7  and  C6_8 
REMARK    3  A    between atoms: C6_8  and  C7_9 
REMARK    4  A    between atoms: C12_14  and  O1_15 
ROOT
HETATM    1  C1  UNL     1      23.170   4.775  49.486  1.00  0.00     0.136 C 
HETATM    2  N1  UNL     1      24.551   5.143  49.936  1.00  0.00    -0.234 NA
HETATM    3  C2  UNL     1      25.443   4.053  49.488  1.00  0.00     0.122 C 
HETATM    4  C3  UNL     1      25.542   3.015  50.504  1.00  0.00     0.034 C 
HETATM    5  C4  UNL     1      25.949   2.078  51.405  1.00  0.00     0.009 C 
HETATM    6  C5  UNL     1      24.995   1.323  52.218  1.00  0.00     0.022 C 
HETATM    7  C13 UNL     1      23.691   1.180  52.498  1.00  0.00     0.023 C 
HETATM    8  C14 UNL     1      22.458   1.891  51.999  1.00  0.00     0.179 C 
HETATM    9  N3  UNL     1      22.987   2.978  51.187  1.00  0.00    -0.280 NA
HETATM   10  C15 UNL     1      23.775   3.839  51.808  1.00  0.00     0.212 C 
HETATM   11  N4  UNL     1      24.485   5.026  51.371  1.00  0.00    -0.314 N 
HETATM   12  H20 UNL     1      24.876   5.681  52.069  1.00  0.00     0.181 HD
ENDROOT
BRANCH   6  13
HETATM   13  N2  UNL     1      25.593   0.325  53.075  1.00  0.00    -0.386 N 
HETATM   14  H8  UNL     1      25.546   0.694  54.072  1.00  0.00     0.160 HD
BRANCH  13  15
HETATM   15  C6  UNL     1      26.173  -0.960  52.741  1.00  0.00     0.161 C 
BRANCH  15  16
HETATM   16  C7  UNL     1      27.625  -0.880  53.082  1.00  0.00    -0.007 A 
HETATM   17  C8  UNL     1      28.170   0.359  53.434  1.00  0.00     0.011 A 
HETATM   18  C9  UNL     1      29.503   0.548  53.768  1.00  0.00     0.001 A 
HETATM   19  C10 UNL     1      30.320  -0.554  53.749  1.00  0.00     0.003 A 
HETATM   20  C11 UNL     1      29.797  -1.778  53.406  1.00  0.00     0.037 A 
HETATM   21  C12 UNL     1      28.463  -1.967  53.071  1.00  0.00     0.073 A 
BRANCH  21  22
HETATM   22  O1  UNL     1      27.958  -3.207  52.729  1.00  0.00    -0.360 OA
HETATM   23  H15 UNL     1      28.523  -4.022  53.000  1.00  0.00     0.217 HD
ENDBRANCH  21  22
ENDBRANCH  15  16
ENDBRANCH  13  15
ENDBRANCH   6  13
TORSDOF 4
ENDMDL
MODEL 9
REMARK VINA RESULT:      -7.3      3.803      5.326
REMARK  4 active torsions:
REMARK  status: ('A' for Active; 'I' for Inactive)
REMARK    1  A    between atoms: C5_6  and  N2_7 
REMARK    2  A    between atoms: N2_7  and  C6_8 
REMARK    3  A    between atoms: C6_8  and  C7_9 
REMARK    4  A    between atoms: C12_14  and  O1_15 
ROOT
HETATM    1  C1  UNL     1      25.403   6.769  48.109  1.00  0.00     0.136 C 
HETATM    2  N1  UNL     1      26.641   6.620  48.940  1.00  0.00    -0.234 NA
HETATM    3  C2  UNL     1      27.225   5.309  48.590  1.00  0.00     0.122 C 
HETATM    4  C3  UNL     1      26.694   4.260  49.448  1.00  0.00     0.034 C 
HETATM    5  C4  UNL     1      26.506   3.205  50.289  1.00  0.00     0.009 C 
HETATM    6  C5  UNL     1      25.172   2.792  50.723  1.00  0.00     0.022 C 
HETATM    7  C13 UNL     1      23.867   3.096  50.641  1.00  0.00     0.023 C 
HETATM    8  C14 UNL     1      23.122   4.208  49.946  1.00  0.00     0.179 C 
HETATM    9  N3  UNL     1      24.179   5.078  49.449  1.00  0.00    -0.280 NA
HETATM   10  C15 UNL     1      24.990   5.589  50.360  1.00  0.00     0.212 C 
HETATM   11  N4  UNL     1      26.135   6.475  50.282  1.00  0.00    -0.314 N 
HETATM   12  H20 UNL     1      26.499   6.926  51.138  1.00  0.00     0.181 HD
ENDROOT
BRANCH   6  13
HETATM   13  N2  UNL     1      25.150   1.615  51.562  1.00  0.00    -0.386 N 
HETATM   14  H8  UNL     1      24.990   0.777  50.927  1.00  0.00     0.160 HD
BRANCH  13  15
HETATM   15  C6  UNL     1      25.304   1.494  52.998  1.00  0.00     0.161 C 
BRANCH  15  16
HETATM   16  C7  UNL     1      26.721   1.091  53.247  1.00  0.00    -0.007 A 
HETATM   17  C8  UNL     1      27.640   2.065  53.652  1.00  0.00     0.011 A 
HETATM   18  C9  UNL     1      28.976   1.802  53.911  1.00  0.00     0.001 A 
HETATM   19  C10 UNL     1      29.406   0.508  53.757  1.00  0.00     0.003 A 
HETATM   20  C11 UNL     1      28.513  -0.459  53.360  1.00  0.00     0.037 A 
HETATM   21  C12 UNL     1      27.175  -0.196  53.101  1.00  0.00     0.073 A 
BRANCH  21  22
HETATM   22  O1  UNL     1      26.293  -1.183  52.702  1.00  0.00    -0.360 OA
HETATM   23  H15 UNL     1      25.383  -0.866  52.343  1.00  0.00     0.217 HD
ENDBRANCH  21  22
ENDBRANCH  15  16
ENDBRANCH  13  15
ENDBRANCH   6  13
TORSDOF 4
ENDMDL
