MODEL 1
REMARK VINA RESULT:      -8.4      0.000      0.000
REMARK  4 active torsions:
REMARK  status: ('A' for Active; 'I' for Inactive)
REMARK    1  A    between atoms: C3_3  and  C4_4 
REMARK    2  A    between atoms: C5_5  and  C6_6 
REMARK    3  A    between atoms: C6_6  and  C7_7 
REMARK    4  A    between atoms: C9_10  and  O1_11 
ROOT
HETATM    1  C7  UNL     1      25.591   1.324  52.582  1.00  0.00     0.119 C 
HETATM    2  C8  UNL     1      26.298   2.249  53.508  1.00  0.00     0.128 C 
HETATM    3  N1  UNL     1      27.463   2.164  54.000  1.00  0.00    -0.238 NA
HETATM    4  C9  UNL     1      28.482   1.223  53.873  1.00  0.00     0.169 C 
HETATM    5  C10 UNL     1      28.418  -0.049  53.498  1.00  0.00     0.127 C 
HETATM    6  S1  UNL     1      27.031  -1.060  53.013  1.00  0.00    -0.000 SA
HETATM    7  N2  UNL     1      25.596  -0.016  53.170  1.00  0.00    -0.222 N 
HETATM    8  N3  UNL     1      24.377  -0.235  53.812  1.00  0.00    -0.180 NA
HETATM    9  C11 UNL     1      23.537   0.681  53.467  1.00  0.00     0.133 C 
HETATM   10  C12 UNL     1      24.150   1.621  52.530  1.00  0.00     0.067 A 
HETATM   11  C13 UNL     1      23.778   3.024  52.767  1.00  0.00    -0.002 A 
HETATM   12  C14 UNL     1      23.044   3.505  51.772  1.00  0.00     0.039 A 
HETATM   13  C15 UNL     1      22.851   2.466  50.763  1.00  0.00     0.113 A 
HETATM   14  F1  UNL     1      22.212   2.380  49.571  1.00  0.00    -0.206 F 
HETATM   15  C16 UNL     1      23.497   1.375  51.209  1.00  0.00     0.037 A 
ENDROOT
BRANCH   1  16
HETATM   16  C6  UNL     1      26.288   1.265  51.236  1.00  0.00     0.068 C 
BRANCH  16  17
HETATM   17  C5  UNL     1      26.500   2.608  50.712  1.00  0.00    -0.024 C 
HETATM   18  C4  UNL     1      26.387   3.236  49.556  1.00  0.00    -0.004 C 
BRANCH  18  19
HETATM   19  C3  UNL     1      26.696   4.648  49.382  1.00  0.00    -0.005 C 
HETATM   20  C2  UNL     1      27.683   4.951  48.558  1.00  0.00    -0.031 C 
HETATM   21  C1  UNL     1      28.017   6.367  48.365  1.00  0.00     0.036 C 
ENDBRANCH  18  19
ENDBRANCH  16  17
ENDBRANCH   1  16
BRANCH   4  22
HETATM   22  O1  UNL     1      29.827   1.535  54.153  1.00  0.00    -0.344 OA
HETATM   23  H11 UNL     1      30.584   1.061  53.716  1.00  0.00     0.219 HD
ENDBRANCH   4  22
TORSDOF 4
ENDMDL
MODEL 2
REMARK VINA RESULT:      -7.6      2.627      5.192
REMARK  4 active torsions:
REMARK  status: ('A' for Active; 'I' for Inactive)
REMARK    1  A    between atoms: C3_3  and  C4_4 
REMARK    2  A    between atoms: C5_5  and  C6_6 
REMARK    3  A    between atoms: C6_6  and  C7_7 
REMARK    4  A    between atoms: C9_10  and  O1_11 
ROOT
HETATM    1  C7  UNL     1      26.520   0.641  53.001  1.00  0.00     0.119 C 
HETATM    2  C8  UNL     1      26.546  -0.629  52.227  1.00  0.00     0.128 C 
HETATM    3  N1  UNL     1      27.310  -1.633  52.349  1.00  0.00    -0.238 NA
HETATM    4  C9  UNL     1      28.366  -1.924  53.209  1.00  0.00     0.169 C 
HETATM    5  C10 UNL     1      29.135  -1.104  53.915  1.00  0.00     0.127 C 
HETATM    6  S1  UNL     1      29.134   0.674  54.053  1.00  0.00    -0.000 SA
HETATM    7  N2  UNL     1      27.853   1.242  52.953  1.00  0.00    -0.222 N 
HETATM    8  N3  UNL     1      27.874   2.220  51.957  1.00  0.00    -0.180 NA
HETATM    9  C11 UNL     1      26.669   2.477  51.579  1.00  0.00     0.133 C 
HETATM   10  C12 UNL     1      25.707   1.663  52.320  1.00  0.00     0.067 A 
HETATM   11  C13 UNL     1      24.600   1.153  51.497  1.00  0.00    -0.002 A 
HETATM   12  C14 UNL     1      23.443   1.696  51.853  1.00  0.00     0.039 A 
HETATM   13  C15 UNL     1      23.661   2.628  52.958  1.00  0.00     0.113 A 
HETATM   14  F1  UNL     1      22.879   3.442  53.707  1.00  0.00    -0.206 F 
HETATM   15  C16 UNL     1      24.978   2.602  53.225  1.00  0.00     0.037 A 
ENDROOT
BRANCH   1  16
HETATM   16  C6  UNL     1      26.156   0.386  54.452  1.00  0.00     0.068 C 
BRANCH  16  17
HETATM   17  C5  UNL     1      24.889  -0.330  54.541  1.00  0.00    -0.024 C 
HETATM   18  C4  UNL     1      24.232  -1.047  55.434  1.00  0.00    -0.004 C 
BRANCH  18  19
HETATM   19  C3  UNL     1      22.929  -1.642  55.177  1.00  0.00    -0.005 C 
HETATM   20  C2  UNL     1      22.096  -0.960  54.412  1.00  0.00    -0.031 C 
HETATM   21  C1  UNL     1      20.774  -1.536  54.137  1.00  0.00     0.036 C 
ENDBRANCH  18  19
ENDBRANCH  16  17
ENDBRANCH   1  16
BRANCH   4  22
HETATM   22  O1  UNL     1      28.786  -3.247  53.456  1.00  0.00    -0.344 OA
HETATM   23  H11 UNL     1      29.658  -3.596  53.130  1.00  0.00     0.219 HD
ENDBRANCH   4  22
TORSDOF 4
ENDMDL
MODEL 3
REMARK VINA RESULT:      -7.2      3.973      5.622
REMARK  4 active torsions:
REMARK  status: ('A' for Active; 'I' for Inactive)
REMARK    1  A    between atoms: C3_3  and  C4_4 
REMARK    2  A    between atoms: C5_5  and  C6_6 
REMARK    3  A    between atoms: C6_6  and  C7_7 
REMARK    4  A    between atoms: C9_10  and  O1_11 
ROOT
HETATM    1  C7  UNL     1      22.464   2.119  52.167  1.00  0.00     0.119 C 
HETATM    2  C8  UNL     1      22.721   1.906  50.718  1.00  0.00     0.128 C 
HETATM    3  N1  UNL     1      23.193   2.705  49.856  1.00  0.00    -0.238 NA
HETATM    4  C9  UNL     1      23.633   4.026  49.925  1.00  0.00     0.169 C 
HETATM    5  C10 UNL     1      23.352   4.966  50.818  1.00  0.00     0.127 C 
HETATM    6  S1  UNL     1      22.319   4.931  52.271  1.00  0.00    -0.000 SA
HETATM    7  N2  UNL     1      21.610   3.298  52.319  1.00  0.00    -0.222 N 
HETATM    8  N3  UNL     1      20.286   2.883  52.469  1.00  0.00    -0.180 NA
HETATM    9  C11 UNL     1      20.254   1.614  52.696  1.00  0.00     0.133 C 
HETATM   10  C12 UNL     1      21.605   1.056  52.717  1.00  0.00     0.067 A 
HETATM   11  C13 UNL     1      21.717  -0.257  52.065  1.00  0.00    -0.002 A 
HETATM   12  C14 UNL     1      22.001  -1.211  52.942  1.00  0.00     0.039 A 
HETATM   13  C15 UNL     1      22.109  -0.627  54.278  1.00  0.00     0.113 A 
HETATM   14  F1  UNL     1      22.371  -1.097  55.522  1.00  0.00    -0.206 F 
HETATM   15  C16 UNL     1      21.879   0.690  54.140  1.00  0.00     0.037 A 
ENDROOT
BRANCH   1  16
HETATM   16  C6  UNL     1      23.759   2.359  52.920  1.00  0.00     0.068 C 
BRANCH  16  17
HETATM   17  C5  UNL     1      24.739   1.333  52.587  1.00  0.00    -0.024 C 
HETATM   18  C4  UNL     1      25.976   1.274  52.131  1.00  0.00    -0.004 C 
BRANCH  18  19
HETATM   19  C3  UNL     1      26.685   0.023  51.905  1.00  0.00    -0.005 C 
HETATM   20  C2  UNL     1      26.380  -0.992  52.692  1.00  0.00    -0.031 C 
HETATM   21  C1  UNL     1      27.080  -2.266  52.487  1.00  0.00     0.036 C 
ENDBRANCH  18  19
ENDBRANCH  16  17
ENDBRANCH   1  16
BRANCH   4  22
HETATM   22  O1  UNL     1      24.508   4.573  48.965  1.00  0.00    -0.344 OA
HETATM   23  H11 UNL     1      24.375   4.441  47.989  1.00  0.00     0.219 HD
ENDBRANCH   4  22
TORSDOF 4
ENDMDL
MODEL 4
REMARK VINA RESULT:      -7.0      3.624      5.434
REMARK  4 active torsions:
REMARK  status: ('A' for Active; 'I' for Inactive)
REMARK    1  A    between atoms: C3_3  and  C4_4 
REMARK    2  A    between atoms: C5_5  and  C6_6 
REMARK    3  A    between atoms: C6_6  and  C7_7 
REMARK    4  A    between atoms: C9_10  and  O1_11 
ROOT
HETATM    1  C7  UNL     1      22.980   3.256  51.234  1.00  0.00     0.119 C 
HETATM    2  C8  UNL     1      23.928   2.781  50.190  1.00  0.00     0.128 C 
HETATM    3  N1  UNL     1      24.929   3.368  49.682  1.00  0.00    -0.238 NA
HETATM    4  C9  UNL     1      25.502   4.621  49.889  1.00  0.00     0.169 C 
HETATM    5  C10 UNL     1      24.971   5.720  50.407  1.00  0.00     0.127 C 
HETATM    6  S1  UNL     1      23.335   6.045  51.040  1.00  0.00    -0.000 SA
HETATM    7  N2  UNL     1      22.418   4.537  50.803  1.00  0.00    -0.222 N 
HETATM    8  N3  UNL     1      21.170   4.312  50.221  1.00  0.00    -0.180 NA
HETATM    9  C11 UNL     1      20.783   3.110  50.481  1.00  0.00     0.133 C 
HETATM   10  C12 UNL     1      21.778   2.406  51.289  1.00  0.00     0.067 A 
HETATM   11  C13 UNL     1      21.972   1.001  50.903  1.00  0.00    -0.002 A 
HETATM   12  C14 UNL     1      21.557   0.176  51.855  1.00  0.00     0.039 A 
HETATM   13  C15 UNL     1      21.041   0.952  52.981  1.00  0.00     0.113 A 
HETATM   14  F1  UNL     1      20.503   0.664  54.191  1.00  0.00    -0.206 F 
HETATM   15  C16 UNL     1      21.174   2.247  52.646  1.00  0.00     0.037 A 
ENDROOT
BRANCH   1  16
HETATM   16  C6  UNL     1      23.689   3.461  52.560  1.00  0.00     0.068 C 
BRANCH  16  17
HETATM   17  C5  UNL     1      24.676   2.411  52.777  1.00  0.00    -0.024 C 
HETATM   18  C4  UNL     1      24.760   1.267  53.431  1.00  0.00    -0.004 C 
BRANCH  18  19
HETATM   19  C3  UNL     1      25.953   0.434  53.430  1.00  0.00    -0.005 C 
HETATM   20  C2  UNL     1      25.897  -0.699  52.754  1.00  0.00    -0.031 C 
HETATM   21  C1  UNL     1      27.086  -1.559  52.738  1.00  0.00     0.036 C 
ENDBRANCH  18  19
ENDBRANCH  16  17
ENDBRANCH   1  16
BRANCH   4  22
HETATM   22  O1  UNL     1      26.840   4.897  49.541  1.00  0.00    -0.344 OA
HETATM   23  H11 UNL     1      27.598   4.342  49.866  1.00  0.00     0.219 HD
ENDBRANCH   4  22
TORSDOF 4
ENDMDL
MODEL 5
REMARK VINA RESULT:      -7.0      4.564      6.935
REMARK  4 active torsions:
REMARK  status: ('A' for Active; 'I' for Inactive)
REMARK    1  A    between atoms: C3_3  and  C4_4 
REMARK    2  A    between atoms: C5_5  and  C6_6 
REMARK    3  A    between atoms: C6_6  and  C7_7 
REMARK    4  A    between atoms: C9_10  and  O1_11 
ROOT
HETATM    1  C7  UNL     1      22.446   3.032  51.300  1.00  0.00     0.119 C 
HETATM    2  C8  UNL     1      21.587   3.438  52.444  1.00  0.00     0.128 C 
HETATM    3  N1  UNL     1      20.334   3.621  52.486  1.00  0.00    -0.238 NA
HETATM    4  C9  UNL     1      19.326   3.520  51.530  1.00  0.00     0.169 C 
HETATM    5  C10 UNL     1      19.407   3.561  50.206  1.00  0.00     0.127 C 
HETATM    6  S1  UNL     1      20.810   3.758  49.124  1.00  0.00    -0.000 SA
HETATM    7  N2  UNL     1      22.219   3.963  50.194  1.00  0.00    -0.222 N 
HETATM    8  N3  UNL     1      23.227   4.928  50.198  1.00  0.00    -0.180 NA
HETATM    9  C11 UNL     1      24.178   4.556  50.987  1.00  0.00     0.133 C 
HETATM   10  C12 UNL     1      23.871   3.263  51.596  1.00  0.00     0.067 A 
HETATM   11  C13 UNL     1      24.252   3.167  53.013  1.00  0.00    -0.002 A 
HETATM   12  C14 UNL     1      25.236   2.295  53.191  1.00  0.00     0.039 A 
HETATM   13  C15 UNL     1      25.613   1.716  51.904  1.00  0.00     0.113 A 
HETATM   14  F1  UNL     1      26.521   0.803  51.481  1.00  0.00    -0.206 F 
HETATM   15  C16 UNL     1      24.815   2.281  50.981  1.00  0.00     0.037 A 
ENDROOT
BRANCH   1  16
HETATM   16  C6  UNL     1      22.102   1.630  50.831  1.00  0.00     0.068 C 
BRANCH  16  17
HETATM   17  C5  UNL     1      22.091   0.705  51.957  1.00  0.00    -0.024 C 
HETATM   18  C4  UNL     1      21.273  -0.191  52.478  1.00  0.00    -0.004 C 
BRANCH  18  19
HETATM   19  C3  UNL     1      21.596  -0.971  53.663  1.00  0.00    -0.005 C 
HETATM   20  C2  UNL     1      22.728  -0.688  54.282  1.00  0.00    -0.031 C 
HETATM   21  C1  UNL     1      23.078  -1.461  55.479  1.00  0.00     0.036 C 
ENDBRANCH  18  19
ENDBRANCH  16  17
ENDBRANCH   1  16
BRANCH   4  22
HETATM   22  O1  UNL     1      17.973   3.346  51.886  1.00  0.00    -0.344 OA
HETATM   23  H11 UNL     1      17.630   3.572  52.791  1.00  0.00     0.219 HD
ENDBRANCH   4  22
TORSDOF 4
ENDMDL
MODEL 6
REMARK VINA RESULT:      -7.0      1.885      2.362
REMARK  4 active torsions:
REMARK  status: ('A' for Active; 'I' for Inactive)
REMARK    1  A    between atoms: C3_3  and  C4_4 
REMARK    2  A    between atoms: C5_5  and  C6_6 
REMARK    3  A    between atoms: C6_6  and  C7_7 
REMARK    4  A    between atoms: C9_10  and  O1_11 
ROOT
HETATM    1  C7  UNL     1      23.234   1.679  52.392  1.00  0.00     0.119 C 
HETATM    2  C8  UNL     1      23.789   2.853  53.118  1.00  0.00     0.128 C 
HETATM    3  N1  UNL     1      24.920   2.999  53.670  1.00  0.00    -0.238 NA
HETATM    4  C9  UNL     1      26.025   2.163  53.807  1.00  0.00     0.169 C 
HETATM    5  C10 UNL     1      26.103   0.841  53.727  1.00  0.00     0.127 C 
HETATM    6  S1  UNL     1      24.849  -0.390  53.418  1.00  0.00    -0.000 SA
HETATM    7  N2  UNL     1      23.318   0.509  53.267  1.00  0.00    -0.222 N 
HETATM    8  N3  UNL     1      22.082   0.313  53.884  1.00  0.00    -0.180 NA
HETATM    9  C11 UNL     1      21.189   1.039  53.302  1.00  0.00     0.133 C 
HETATM   10  C12 UNL     1      21.778   1.808  52.206  1.00  0.00     0.067 A 
HETATM   11  C13 UNL     1      21.267   3.183  52.103  1.00  0.00    -0.002 A 
HETATM   12  C14 UNL     1      20.563   3.354  50.991  1.00  0.00     0.039 A 
HETATM   13  C15 UNL     1      20.534   2.104  50.235  1.00  0.00     0.113 A 
HETATM   14  F1  UNL     1      19.989   1.692  49.064  1.00  0.00    -0.206 F 
HETATM   15  C16 UNL     1      21.243   1.210  50.946  1.00  0.00     0.037 A 
ENDROOT
BRANCH   1  16
HETATM   16  C6  UNL     1      24.025   1.397  51.128  1.00  0.00     0.068 C 
BRANCH  16  17
HETATM   17  C5  UNL     1      24.441   2.644  50.499  1.00  0.00    -0.024 C 
HETATM   18  C4  UNL     1      24.037   3.423  49.513  1.00  0.00    -0.004 C 
BRANCH  18  19
HETATM   19  C3  UNL     1      24.720   4.652  49.136  1.00  0.00    -0.005 C 
HETATM   20  C2  UNL     1      26.040   4.640  49.166  1.00  0.00    -0.031 C 
HETATM   21  C1  UNL     1      26.755   5.866  48.792  1.00  0.00     0.036 C 
ENDBRANCH  18  19
ENDBRANCH  16  17
ENDBRANCH   1  16
BRANCH   4  22
HETATM   22  O1  UNL     1      27.315   2.666  54.072  1.00  0.00    -0.344 OA
HETATM   23  H11 UNL     1      27.468   3.441  54.676  1.00  0.00     0.219 HD
ENDBRANCH   4  22
TORSDOF 4
ENDMDL
MODEL 7
REMARK VINA RESULT:      -6.5      3.505      4.939
REMARK  4 active torsions:
REMARK  status: ('A' for Active; 'I' for Inactive)
REMARK    1  A    between atoms: C3_3  and  C4_4 
REMARK    2  A    between atoms: C5_5  and  C6_6 
REMARK    3  A    between atoms: C6_6  and  C7_7 
REMARK    4  A    between atoms: C9_10  and  O1_11 
ROOT
HETATM    1  C7  UNL     1      23.531   1.582  52.383  1.00  0.00     0.119 C 
HETATM    2  C8  UNL     1      23.196   1.254  50.971  1.00  0.00     0.128 C 
HETATM    3  N1  UNL     1      22.093   1.364  50.358  1.00  0.00    -0.238 NA
HETATM    4  C9  UNL     1      20.831   1.810  50.744  1.00  0.00     0.169 C 
HETATM    5  C10 UNL     1      20.302   1.909  51.957  1.00  0.00     0.127 C 
HETATM    6  S1  UNL     1      20.973   1.519  53.563  1.00  0.00    -0.000 SA
HETATM    7  N2  UNL     1      22.603   0.866  53.259  1.00  0.00    -0.222 N 
HETATM    8  N3  UNL     1      23.216  -0.300  53.716  1.00  0.00    -0.180 NA
HETATM    9  C11 UNL     1      24.478  -0.256  53.453  1.00  0.00     0.133 C 
HETATM   10  C12 UNL     1      24.824   0.992  52.773  1.00  0.00     0.067 A 
HETATM   11  C13 UNL     1      25.804   0.827  51.690  1.00  0.00    -0.002 A 
HETATM   12  C14 UNL     1      26.954   1.418  51.984  1.00  0.00     0.039 A 
HETATM   13  C15 UNL     1      26.858   2.043  53.302  1.00  0.00     0.113 A 
HETATM   14  F1  UNL     1      27.687   2.761  54.097  1.00  0.00    -0.206 F 
HETATM   15  C16 UNL     1      25.617   1.792  53.754  1.00  0.00     0.037 A 
ENDROOT
BRANCH   1  16
HETATM   16  C6  UNL     1      23.395   3.070  52.644  1.00  0.00     0.068 C 
BRANCH  16  17
HETATM   17  C5  UNL     1      24.188   3.829  51.686  1.00  0.00    -0.024 C 
HETATM   18  C4  UNL     1      24.011   4.836  50.850  1.00  0.00    -0.004 C 
BRANCH  18  19
HETATM   19  C3  UNL     1      25.070   5.366  50.003  1.00  0.00    -0.005 C 
HETATM   20  C2  UNL     1      26.039   4.537  49.661  1.00  0.00    -0.031 C 
HETATM   21  C1  UNL     1      27.120   5.045  48.809  1.00  0.00     0.036 C 
ENDBRANCH  18  19
ENDBRANCH  16  17
ENDBRANCH   1  16
BRANCH   4  22
HETATM   22  O1  UNL     1      19.874   2.251  49.808  1.00  0.00    -0.344 OA
HETATM   23  H11 UNL     1      19.183   1.645  49.431  1.00  0.00     0.219 HD
ENDBRANCH   4  22
TORSDOF 4
ENDMDL
MODEL 8
REMARK VINA RESULT:      -6.4      3.714      5.063
REMARK  4 active torsions:
REMARK  status: ('A' for Active; 'I' for Inactive)
REMARK    1  A    between atoms: C3_3  and  C4_4 
REMARK    2  A    between atoms: C5_5  and  C6_6 
REMARK    3  A    between atoms: C6_6  and  C7_7 
REMARK    4  A    between atoms: C9_10  and  O1_11 
ROOT
HETATM    1  C7  UNL     1      23.589   2.602  51.591  1.00  0.00     0.119 C 
HETATM    2  C8  UNL     1      23.408   2.095  50.204  1.00  0.00     0.128 C 
HETATM    3  N1  UNL     1      22.555   2.428  49.328  1.00  0.00    -0.238 NA
HETATM    4  C9  UNL     1      21.510   3.349  49.321  1.00  0.00     0.169 C 
HETATM    5  C10 UNL     1      20.854   3.893  50.338  1.00  0.00     0.127 C 
HETATM    6  S1  UNL     1      21.034   3.676  52.099  1.00  0.00    -0.000 SA
HETATM    7  N2  UNL     1      22.320   2.462  52.306  1.00  0.00    -0.222 N 
HETATM    8  N3  UNL     1      22.355   1.293  53.068  1.00  0.00    -0.180 NA
HETATM    9  C11 UNL     1      23.564   0.848  53.121  1.00  0.00     0.133 C 
HETATM   10  C12 UNL     1      24.470   1.717  52.371  1.00  0.00     0.067 A 
HETATM   11  C13 UNL     1      25.489   0.989  51.600  1.00  0.00    -0.002 A 
HETATM   12  C14 UNL     1      26.707   1.209  52.079  1.00  0.00     0.039 A 
HETATM   13  C15 UNL     1      26.624   2.112  53.225  1.00  0.00     0.113 A 
HETATM   14  F1  UNL     1      27.510   2.670  54.085  1.00  0.00    -0.206 F 
HETATM   15  C16 UNL     1      25.322   2.404  53.389  1.00  0.00     0.037 A 
ENDROOT
BRANCH   1  16
HETATM   16  C6  UNL     1      23.983   4.067  51.588  1.00  0.00     0.068 C 
BRANCH  16  17
HETATM   17  C5  UNL     1      25.079   4.298  50.655  1.00  0.00    -0.024 C 
HETATM   18  C4  UNL     1      25.442   5.220  49.782  1.00  0.00    -0.004 C 
BRANCH  18  19
HETATM   19  C3  UNL     1      26.654   5.126  48.982  1.00  0.00    -0.005 C 
HETATM   20  C2  UNL     1      27.277   6.255  48.696  1.00  0.00    -0.031 C 
HETATM   21  C1  UNL     1      28.501   6.189  47.889  1.00  0.00     0.036 C 
ENDBRANCH  18  19
ENDBRANCH  16  17
ENDBRANCH   1  16
BRANCH   4  22
HETATM   22  O1  UNL     1      20.973   3.861  48.123  1.00  0.00    -0.344 OA
HETATM   23  H11 UNL     1      20.499   3.285  47.466  1.00  0.00     0.219 HD
ENDBRANCH   4  22
TORSDOF 4
ENDMDL
MODEL 9
REMARK VINA RESULT:      -6.2      4.465      6.389
REMARK  4 active torsions:
REMARK  status: ('A' for Active; 'I' for Inactive)
REMARK    1  A    between atoms: C3_3  and  C4_4 
REMARK    2  A    between atoms: C5_5  and  C6_6 
REMARK    3  A    between atoms: C6_6  and  C7_7 
REMARK    4  A    between atoms: C9_10  and  O1_11 
ROOT
HETATM    1  C7  UNL     1      20.864   2.429  51.433  1.00  0.00     0.119 C 
HETATM    2  C8  UNL     1      20.784   2.128  52.888  1.00  0.00     0.128 C 
HETATM    3  N1  UNL     1      20.265   1.135  53.479  1.00  0.00    -0.238 NA
HETATM    4  C9  UNL     1      19.603  -0.003  53.023  1.00  0.00     0.169 C 
HETATM    5  C10 UNL     1      18.989  -0.219  51.867  1.00  0.00     0.127 C 
HETATM    6  S1  UNL     1      18.760   0.835  50.447  1.00  0.00    -0.000 SA
HETATM    7  N2  UNL     1      19.512   2.392  50.876  1.00  0.00    -0.222 N 
HETATM    8  N3  UNL     1      19.018   3.695  50.795  1.00  0.00    -0.180 NA
HETATM    9  C11 UNL     1      19.981   4.533  50.976  1.00  0.00     0.133 C 
HETATM   10  C12 UNL     1      21.245   3.833  51.200  1.00  0.00     0.067 A 
HETATM   11  C13 UNL     1      22.089   4.446  52.236  1.00  0.00    -0.002 A 
HETATM   12  C14 UNL     1      23.201   4.951  51.717  1.00  0.00     0.039 A 
HETATM   13  C15 UNL     1      23.212   4.723  50.273  1.00  0.00     0.113 A 
HETATM   14  F1  UNL     1      24.059   5.007  49.254  1.00  0.00    -0.206 F 
HETATM   15  C16 UNL     1      22.073   4.072  49.980  1.00  0.00     0.037 A 
ENDROOT
BRANCH   1  16
HETATM   16  C6  UNL     1      21.713   1.400  50.711  1.00  0.00     0.068 C 
BRANCH  16  17
HETATM   17  C5  UNL     1      22.835   0.989  51.546  1.00  0.00    -0.024 C 
HETATM   18  C4  UNL     1      24.102   1.321  51.714  1.00  0.00    -0.004 C 
BRANCH  18  19
HETATM   19  C3  UNL     1      24.974   0.673  52.682  1.00  0.00    -0.005 C 
HETATM   20  C2  UNL     1      24.398  -0.067  53.611  1.00  0.00    -0.031 C 
HETATM   21  C1  UNL     1      25.255  -0.731  54.601  1.00  0.00     0.036 C 
ENDBRANCH  18  19
ENDBRANCH  16  17
ENDBRANCH   1  16
BRANCH   4  22
HETATM   22  O1  UNL     1      19.495  -1.169  53.807  1.00  0.00    -0.344 OA
HETATM   23  H11 UNL     1      19.378  -1.136  54.793  1.00  0.00     0.219 HD
ENDBRANCH   4  22
TORSDOF 4
ENDMDL
