MODEL 1
REMARK VINA RESULT:      -8.1      0.000      0.000
REMARK  7 active torsions:
REMARK  status: ('A' for Active; 'I' for Inactive)
REMARK    1  A    between atoms: C2_2  and  C3_3 
REMARK    2  A    between atoms: C3_3  and  C4_4 
REMARK    3  A    between atoms: C4_4  and  O1_5 
REMARK    4  A    between atoms: O1_5  and  C5_6 
REMARK    5  A    between atoms: C8_9  and  N1_10 
REMARK    6  A    between atoms: N1_10  and  C9_11 
REMARK    7  A    between atoms: C17_23  and  O2_24 
ROOT
HETATM    1  C5  UNL     1      24.662  -0.373  53.594  1.00  0.00     0.102 A 
HETATM    2  C6  UNL     1      25.310   0.493  52.739  1.00  0.00     0.057 A 
HETATM    3  C7  UNL     1      26.480   1.136  53.005  1.00  0.00     0.045 A 
HETATM    4  C8  UNL     1      27.110   2.001  52.133  1.00  0.00     0.164 A 
HETATM    5  N2  UNL     1      28.239   2.493  52.643  1.00  0.00    -0.111 NA
HETATM    6  N3  UNL     1      28.743   2.238  53.805  1.00  0.00    -0.041 NA
HETATM    7  N4  UNL     1      28.161   1.423  54.644  1.00  0.00    -0.130 NA
HETATM    8  C15 UNL     1      27.009   0.857  54.249  1.00  0.00     0.097 A 
HETATM    9  C16 UNL     1      26.413   0.003  55.148  1.00  0.00     0.073 A 
HETATM   10  C17 UNL     1      25.227  -0.627  54.834  1.00  0.00     0.101 A 
ENDROOT
BRANCH   4  11
HETATM   11  N1  UNL     1      26.533   2.258  50.869  1.00  0.00    -0.339 N 
HETATM   12  H7  UNL     1      26.273   1.504  50.239  1.00  0.00     0.167 HD
BRANCH  11  13
HETATM   13  C9  UNL     1      26.234   3.519  50.294  1.00  0.00     0.035 A 
HETATM   14  C10 UNL     1      27.012   4.100  49.320  1.00  0.00     0.029 A 
HETATM   15  C11 UNL     1      26.747   5.316  48.747  1.00  0.00     0.004 A 
HETATM   16  C12 UNL     1      25.653   6.041  49.128  1.00  0.00     0.024 A 
HETATM   17  C13 UNL     1      24.848   5.504  50.094  1.00  0.00     0.036 A 
HETATM   18 CL1  UNL     1      23.432   6.371  50.634  1.00  0.00    -0.084 Cl
HETATM   19  C14 UNL     1      25.152   4.291  50.635  1.00  0.00     0.053 A 
ENDBRANCH  11  13
ENDBRANCH   4  11
BRANCH   1  20
HETATM   20  O1  UNL     1      23.460  -1.009  53.268  1.00  0.00    -0.347 OA
BRANCH  20  21
HETATM   21  C4  UNL     1      22.292  -0.282  53.482  1.00  0.00     0.193 C 
BRANCH  21  22
HETATM   22  C3  UNL     1      21.485  -0.089  52.260  1.00  0.00     0.093 C 
BRANCH  22  23
HETATM   23  C2  UNL     1      21.911   0.703  51.286  1.00  0.00    -0.174 C 
HETATM   24  C1  UNL     1      22.546   1.585  50.531  1.00  0.00     0.091 C 
ENDBRANCH  22  23
ENDBRANCH  21  22
ENDBRANCH  20  21
ENDBRANCH   1  20
BRANCH  10  25
HETATM   25  O2  UNL     1      24.638  -1.487  55.751  1.00  0.00    -0.358 OA
HETATM   26  H13 UNL     1      23.820  -1.990  55.470  1.00  0.00     0.217 HD
ENDBRANCH  10  25
TORSDOF 7
ENDMDL
MODEL 2
REMARK VINA RESULT:      -8.0      2.939      5.986
REMARK  7 active torsions:
REMARK  status: ('A' for Active; 'I' for Inactive)
REMARK    1  A    between atoms: C2_2  and  C3_3 
REMARK    2  A    between atoms: C3_3  and  C4_4 
REMARK    3  A    between atoms: C4_4  and  O1_5 
REMARK    4  A    between atoms: O1_5  and  C5_6 
REMARK    5  A    between atoms: C8_9  and  N1_10 
REMARK    6  A    between atoms: N1_10  and  C9_11 
REMARK    7  A    between atoms: C17_23  and  O2_24 
ROOT
HETATM    1  C5  UNL     1      27.027   2.016  52.189  1.00  0.00     0.102 A 
HETATM    2  C6  UNL     1      25.936   1.201  52.406  1.00  0.00     0.057 A 
HETATM    3  C7  UNL     1      25.735   0.430  53.510  1.00  0.00     0.045 A 
HETATM    4  C8  UNL     1      24.635  -0.380  53.706  1.00  0.00     0.164 A 
HETATM    5  N2  UNL     1      24.688  -1.026  54.870  1.00  0.00    -0.111 NA
HETATM    6  N3  UNL     1      25.625  -0.954  55.757  1.00  0.00    -0.041 NA
HETATM    7  N4  UNL     1      26.673  -0.193  55.590  1.00  0.00    -0.130 NA
HETATM    8  C15 UNL     1      26.741   0.515  54.451  1.00  0.00     0.097 A 
HETATM    9  C16 UNL     1      27.854   1.308  54.295  1.00  0.00     0.073 A 
HETATM   10  C17 UNL     1      28.015   2.073  53.159  1.00  0.00     0.101 A 
ENDROOT
BRANCH   4  11
HETATM   11  N1  UNL     1      23.627  -0.436  52.716  1.00  0.00    -0.339 N 
HETATM   12  H7  UNL     1      23.854  -0.447  51.725  1.00  0.00     0.167 HD
BRANCH  11  13
HETATM   13  C9  UNL     1      22.224  -0.484  52.910  1.00  0.00     0.035 A 
HETATM   14  C10 UNL     1      21.623  -1.317  53.825  1.00  0.00     0.029 A 
HETATM   15  C11 UNL     1      20.270  -1.383  54.033  1.00  0.00     0.004 A 
HETATM   16  C12 UNL     1      19.417  -0.594  53.315  1.00  0.00     0.024 A 
HETATM   17  C13 UNL     1      19.967   0.252  52.394  1.00  0.00     0.036 A 
HETATM   18 CL1  UNL     1      18.941   1.293  51.438  1.00  0.00    -0.084 Cl
HETATM   19  C14 UNL     1      21.318   0.284  52.221  1.00  0.00     0.053 A 
ENDBRANCH  11  13
ENDBRANCH   4  11
BRANCH   1  20
HETATM   20  O1  UNL     1      27.182   2.789  51.034  1.00  0.00    -0.347 OA
BRANCH  20  21
HETATM   21  C4  UNL     1      26.037   3.016  50.277  1.00  0.00     0.193 C 
BRANCH  21  22
HETATM   22  C3  UNL     1      26.003   4.349  49.641  1.00  0.00     0.093 C 
BRANCH  22  23
HETATM   23  C2  UNL     1      27.020   4.772  48.904  1.00  0.00    -0.174 C 
HETATM   24  C1  UNL     1      28.190   5.189  48.444  1.00  0.00     0.091 C 
ENDBRANCH  22  23
ENDBRANCH  21  22
ENDBRANCH  20  21
ENDBRANCH   1  20
BRANCH  10  25
HETATM   25  O2  UNL     1      29.144   2.870  53.016  1.00  0.00    -0.358 OA
HETATM   26  H13 UNL     1      29.859   2.805  53.712  1.00  0.00     0.217 HD
ENDBRANCH  10  25
TORSDOF 7
ENDMDL
MODEL 3
REMARK VINA RESULT:      -7.7      3.489      5.776
REMARK  7 active torsions:
REMARK  status: ('A' for Active; 'I' for Inactive)
REMARK    1  A    between atoms: C2_2  and  C3_3 
REMARK    2  A    between atoms: C3_3  and  C4_4 
REMARK    3  A    between atoms: C4_4  and  O1_5 
REMARK    4  A    between atoms: O1_5  and  C5_6 
REMARK    5  A    between atoms: C8_9  and  N1_10 
REMARK    6  A    between atoms: N1_10  and  C9_11 
REMARK    7  A    between atoms: C17_23  and  O2_24 
ROOT
HETATM    1  C5  UNL     1      21.005   0.710  51.594  1.00  0.00     0.102 A 
HETATM    2  C6  UNL     1      22.277   0.541  52.098  1.00  0.00     0.057 A 
HETATM    3  C7  UNL     1      22.593  -0.141  53.233  1.00  0.00     0.045 A 
HETATM    4  C8  UNL     1      23.875  -0.297  53.719  1.00  0.00     0.164 A 
HETATM    5  N2  UNL     1      23.902  -1.008  54.846  1.00  0.00    -0.111 NA
HETATM    6  N3  UNL     1      22.890  -1.519  55.466  1.00  0.00    -0.041 NA
HETATM    7  N4  UNL     1      21.670  -1.382  55.022  1.00  0.00    -0.130 NA
HETATM    8  C15 UNL     1      21.505  -0.684  53.888  1.00  0.00     0.097 A 
HETATM    9  C16 UNL     1      20.212  -0.551  53.438  1.00  0.00     0.073 A 
HETATM   10  C17 UNL     1      19.940   0.149  52.282  1.00  0.00     0.101 A 
ENDROOT
BRANCH   4  11
HETATM   11  N1  UNL     1      24.959   0.275  53.016  1.00  0.00    -0.339 N 
HETATM   12  H7  UNL     1      24.814   0.937  52.258  1.00  0.00     0.167 HD
BRANCH  11  13
HETATM   13  C9  UNL     1      26.343   0.046  53.223  1.00  0.00     0.035 A 
HETATM   14  C10 UNL     1      26.955  -1.151  52.932  1.00  0.00     0.029 A 
HETATM   15  C11 UNL     1      28.289  -1.400  53.121  1.00  0.00     0.004 A 
HETATM   16  C12 UNL     1      29.112  -0.433  53.628  1.00  0.00     0.024 A 
HETATM   17  C13 UNL     1      28.550   0.775  53.932  1.00  0.00     0.036 A 
HETATM   18 CL1  UNL     1      29.536   2.061  54.582  1.00  0.00    -0.084 Cl
HETATM   19  C14 UNL     1      27.217   0.977  53.726  1.00  0.00     0.053 A 
ENDBRANCH  11  13
ENDBRANCH   4  11
BRANCH   1  20
HETATM   20  O1  UNL     1      20.738   1.421  50.420  1.00  0.00    -0.347 OA
BRANCH  20  21
HETATM   21  C4  UNL     1      21.224   0.874  49.236  1.00  0.00     0.193 C 
BRANCH  21  22
HETATM   22  C3  UNL     1      21.945   1.847  48.388  1.00  0.00     0.093 C 
BRANCH  22  23
HETATM   23  C2  UNL     1      22.938   2.570  48.884  1.00  0.00    -0.174 C 
HETATM   24  C1  UNL     1      23.764   3.271  49.646  1.00  0.00     0.091 C 
ENDBRANCH  22  23
ENDBRANCH  21  22
ENDBRANCH  20  21
ENDBRANCH   1  20
BRANCH  10  25
HETATM   25  O2  UNL     1      18.629   0.274  51.841  1.00  0.00    -0.358 OA
HETATM   26  H13 UNL     1      17.907   0.370  52.526  1.00  0.00     0.217 HD
ENDBRANCH  10  25
TORSDOF 7
ENDMDL
MODEL 4
REMARK VINA RESULT:      -7.7      2.558      4.482
REMARK  7 active torsions:
REMARK  status: ('A' for Active; 'I' for Inactive)
REMARK    1  A    between atoms: C2_2  and  C3_3 
REMARK    2  A    between atoms: C3_3  and  C4_4 
REMARK    3  A    between atoms: C4_4  and  O1_5 
REMARK    4  A    between atoms: O1_5  and  C5_6 
REMARK    5  A    between atoms: C8_9  and  N1_10 
REMARK    6  A    between atoms: N1_10  and  C9_11 
REMARK    7  A    between atoms: C17_23  and  O2_24 
ROOT
HETATM    1  C5  UNL     1      26.044   1.427  53.793  1.00  0.00     0.102 A 
HETATM    2  C6  UNL     1      25.487   2.397  52.986  1.00  0.00     0.057 A 
HETATM    3  C7  UNL     1      24.340   2.261  52.266  1.00  0.00     0.045 A 
HETATM    4  C8  UNL     1      23.801   3.246  51.464  1.00  0.00     0.164 A 
HETATM    5  N2  UNL     1      22.675   2.851  50.871  1.00  0.00    -0.111 NA
HETATM    6  N3  UNL     1      22.099   1.700  50.986  1.00  0.00    -0.041 NA
HETATM    7  N4  UNL     1      22.594   0.755  51.741  1.00  0.00    -0.130 NA
HETATM    8  C15 UNL     1      23.733   1.028  52.396  1.00  0.00     0.097 A 
HETATM    9  C16 UNL     1      24.237   0.019  53.183  1.00  0.00     0.073 A 
HETATM   10  C17 UNL     1      25.403   0.203  53.896  1.00  0.00     0.101 A 
ENDROOT
BRANCH   4  11
HETATM   11  N1  UNL     1      24.456   4.495  51.360  1.00  0.00    -0.339 N 
HETATM   12  H7  UNL     1      24.274   5.248  52.017  1.00  0.00     0.167 HD
BRANCH  11  13
HETATM   13  C9  UNL     1      25.413   4.893  50.393  1.00  0.00     0.035 A 
HETATM   14  C10 UNL     1      26.329   4.025  49.845  1.00  0.00     0.029 A 
HETATM   15  C11 UNL     1      27.264   4.382  48.909  1.00  0.00     0.004 A 
HETATM   16  C12 UNL     1      27.336   5.669  48.455  1.00  0.00     0.024 A 
HETATM   17  C13 UNL     1      26.446   6.569  48.970  1.00  0.00     0.036 A 
HETATM   18 CL1  UNL     1      26.475   8.232  48.439  1.00  0.00    -0.084 Cl
HETATM   19  C14 UNL     1      25.533   6.168  49.899  1.00  0.00     0.053 A 
ENDBRANCH  11  13
ENDBRANCH   4  11
BRANCH   1  20
HETATM   20  O1  UNL     1      27.227   1.622  54.513  1.00  0.00    -0.347 OA
BRANCH  20  21
HETATM   21  C4  UNL     1      28.396   1.750  53.768  1.00  0.00     0.193 C 
BRANCH  21  22
HETATM   22  C3  UNL     1      29.393   0.695  54.047  1.00  0.00     0.093 C 
BRANCH  22  23
HETATM   23  C2  UNL     1      29.207  -0.543  53.612  1.00  0.00    -0.174 C 
HETATM   24  C1  UNL     1      29.312  -1.823  53.290  1.00  0.00     0.091 C 
ENDBRANCH  22  23
ENDBRANCH  21  22
ENDBRANCH  20  21
ENDBRANCH   1  20
BRANCH  10  25
HETATM   25  O2  UNL     1      25.899  -0.825  54.687  1.00  0.00    -0.358 OA
HETATM   26  H13 UNL     1      26.769  -1.245  54.427  1.00  0.00     0.217 HD
ENDBRANCH  10  25
TORSDOF 7
ENDMDL
MODEL 5
REMARK VINA RESULT:      -7.6      2.949      4.947
REMARK  7 active torsions:
REMARK  status: ('A' for Active; 'I' for Inactive)
REMARK    1  A    between atoms: C2_2  and  C3_3 
REMARK    2  A    between atoms: C3_3  and  C4_4 
REMARK    3  A    between atoms: C4_4  and  O1_5 
REMARK    4  A    between atoms: O1_5  and  C5_6 
REMARK    5  A    between atoms: C8_9  and  N1_10 
REMARK    6  A    between atoms: N1_10  and  C9_11 
REMARK    7  A    between atoms: C17_23  and  O2_24 
ROOT
HETATM    1  C5  UNL     1      24.080  -0.669  54.208  1.00  0.00     0.102 A 
HETATM    2  C6  UNL     1      23.724   0.052  53.088  1.00  0.00     0.057 A 
HETATM    3  C7  UNL     1      22.449   0.328  52.699  1.00  0.00     0.045 A 
HETATM    4  C8  UNL     1      22.116   1.052  51.573  1.00  0.00     0.164 A 
HETATM    5  N2  UNL     1      20.797   1.175  51.426  1.00  0.00    -0.111 NA
HETATM    6  N3  UNL     1      19.881   0.699  52.204  1.00  0.00    -0.041 NA
HETATM    7  N4  UNL     1      20.177   0.012  53.275  1.00  0.00    -0.130 NA
HETATM    8  C15 UNL     1      21.478  -0.184  53.537  1.00  0.00     0.097 A 
HETATM    9  C16 UNL     1      21.767  -0.912  54.669  1.00  0.00     0.073 A 
HETATM   10  C17 UNL     1      23.075  -1.166  55.023  1.00  0.00     0.101 A 
ENDROOT
BRANCH   4  11
HETATM   11  N1  UNL     1      23.142   1.558  50.742  1.00  0.00    -0.339 N 
HETATM   12  H7  UNL     1      23.623   0.967  50.070  1.00  0.00     0.167 HD
BRANCH  11  13
HETATM   13  C9  UNL     1      23.648   2.881  50.701  1.00  0.00     0.035 A 
HETATM   14  C10 UNL     1      23.069   3.926  51.382  1.00  0.00     0.029 A 
HETATM   15  C11 UNL     1      23.537   5.213  51.361  1.00  0.00     0.004 A 
HETATM   16  C12 UNL     1      24.648   5.537  50.632  1.00  0.00     0.024 A 
HETATM   17  C13 UNL     1      25.260   4.532  49.938  1.00  0.00     0.036 A 
HETATM   18 CL1  UNL     1      26.683   4.867  48.984  1.00  0.00    -0.084 Cl
HETATM   19  C14 UNL     1      24.758   3.266  49.990  1.00  0.00     0.053 A 
ENDBRANCH  11  13
ENDBRANCH   4  11
BRANCH   1  20
HETATM   20  O1  UNL     1      25.409  -0.923  54.560  1.00  0.00    -0.347 OA
BRANCH  20  21
HETATM   21  C4  UNL     1      26.387  -0.290  53.798  1.00  0.00     0.193 C 
BRANCH  21  22
HETATM   22  C3  UNL     1      27.593   0.075  54.572  1.00  0.00     0.093 C 
BRANCH  22  23
HETATM   23  C2  UNL     1      28.798  -0.286  54.155  1.00  0.00    -0.174 C 
HETATM   24  C1  UNL     1      29.852  -0.911  53.653  1.00  0.00     0.091 C 
ENDBRANCH  22  23
ENDBRANCH  21  22
ENDBRANCH  20  21
ENDBRANCH   1  20
BRANCH  10  25
HETATM   25  O2  UNL     1      23.350  -1.901  56.169  1.00  0.00    -0.358 OA
HETATM   26  H13 UNL     1      24.072  -2.592  56.125  1.00  0.00     0.217 HD
ENDBRANCH  10  25
TORSDOF 7
ENDMDL
MODEL 6
REMARK VINA RESULT:      -7.4      2.216      3.100
REMARK  7 active torsions:
REMARK  status: ('A' for Active; 'I' for Inactive)
REMARK    1  A    between atoms: C2_2  and  C3_3 
REMARK    2  A    between atoms: C3_3  and  C4_4 
REMARK    3  A    between atoms: C4_4  and  O1_5 
REMARK    4  A    between atoms: O1_5  and  C5_6 
REMARK    5  A    between atoms: C8_9  and  N1_10 
REMARK    6  A    between atoms: N1_10  and  C9_11 
REMARK    7  A    between atoms: C17_23  and  O2_24 
ROOT
HETATM    1  C5  UNL     1      21.498   0.342  53.258  1.00  0.00     0.102 A 
HETATM    2  C6  UNL     1      22.455   0.987  52.505  1.00  0.00     0.057 A 
HETATM    3  C7  UNL     1      23.797   0.768  52.577  1.00  0.00     0.045 A 
HETATM    4  C8  UNL     1      24.737   1.427  51.812  1.00  0.00     0.164 A 
HETATM    5  N2  UNL     1      25.978   1.021  52.082  1.00  0.00    -0.111 NA
HETATM    6  N3  UNL     1      26.332   0.125  52.943  1.00  0.00    -0.041 NA
HETATM    7  N4  UNL     1      25.456  -0.510  53.676  1.00  0.00    -0.130 NA
HETATM    8  C15 UNL     1      24.164  -0.192  53.499  1.00  0.00     0.097 A 
HETATM    9  C16 UNL     1      23.259  -0.871  54.281  1.00  0.00     0.073 A 
HETATM   10  C17 UNL     1      21.909  -0.615  54.173  1.00  0.00     0.101 A 
ENDROOT
BRANCH   4  11
HETATM   11  N1  UNL     1      24.317   2.402  50.879  1.00  0.00    -0.339 N 
HETATM   12  H7  UNL     1      23.368   2.415  50.514  1.00  0.00     0.167 HD
BRANCH  11  13
HETATM   13  C9  UNL     1      25.083   3.458  50.326  1.00  0.00     0.035 A 
HETATM   14  C10 UNL     1      26.232   3.248  49.599  1.00  0.00     0.029 A 
HETATM   15  C11 UNL     1      26.990   4.250  49.052  1.00  0.00     0.004 A 
HETATM   16  C12 UNL     1      26.630   5.559  49.207  1.00  0.00     0.024 A 
HETATM   17  C13 UNL     1      25.494   5.819  49.922  1.00  0.00     0.036 A 
HETATM   18 CL1  UNL     1      24.969   7.466  50.163  1.00  0.00    -0.084 Cl
HETATM   19  C14 UNL     1      24.771   4.790  50.447  1.00  0.00     0.053 A 
ENDBRANCH  11  13
ENDBRANCH   4  11
BRANCH   1  20
HETATM   20  O1  UNL     1      20.130   0.607  53.142  1.00  0.00    -0.347 OA
BRANCH  20  21
HETATM   21  C4  UNL     1      19.512   0.194  51.965  1.00  0.00     0.193 C 
BRANCH  21  22
HETATM   22  C3  UNL     1      18.173  -0.394  52.177  1.00  0.00     0.093 C 
BRANCH  22  23
HETATM   23  C2  UNL     1      17.994  -1.369  53.056  1.00  0.00    -0.174 C 
HETATM   24  C1  UNL     1      17.937  -2.522  53.706  1.00  0.00     0.091 C 
ENDBRANCH  22  23
ENDBRANCH  21  22
ENDBRANCH  20  21
ENDBRANCH   1  20
BRANCH  10  25
HETATM   25  O2  UNL     1      21.007  -1.310  54.969  1.00  0.00    -0.358 OA
HETATM   26  H13 UNL     1      20.057  -0.998  54.990  1.00  0.00     0.217 HD
ENDBRANCH  10  25
TORSDOF 7
ENDMDL
MODEL 7
REMARK VINA RESULT:      -7.4      3.003      5.447
REMARK  7 active torsions:
REMARK  status: ('A' for Active; 'I' for Inactive)
REMARK    1  A    between atoms: C2_2  and  C3_3 
REMARK    2  A    between atoms: C3_3  and  C4_4 
REMARK    3  A    between atoms: C4_4  and  O1_5 
REMARK    4  A    between atoms: O1_5  and  C5_6 
REMARK    5  A    between atoms: C8_9  and  N1_10 
REMARK    6  A    between atoms: N1_10  and  C9_11 
REMARK    7  A    between atoms: C17_23  and  O2_24 
ROOT
HETATM    1  C5  UNL     1      22.582   1.829  52.071  1.00  0.00     0.102 A 
HETATM    2  C6  UNL     1      23.933   2.028  52.263  1.00  0.00     0.057 A 
HETATM    3  C7  UNL     1      24.786   2.574  51.354  1.00  0.00     0.045 A 
HETATM    4  C8  UNL     1      26.137   2.763  51.567  1.00  0.00     0.164 A 
HETATM    5  N2  UNL     1      26.739   3.316  50.515  1.00  0.00    -0.111 NA
HETATM    6  N3  UNL     1      26.189   3.660  49.397  1.00  0.00    -0.041 NA
HETATM    7  N4  UNL     1      24.913   3.489  49.176  1.00  0.00    -0.130 NA
HETATM    8  C15 UNL     1      24.189   2.938  50.163  1.00  0.00     0.097 A 
HETATM    9  C16 UNL     1      22.848   2.766  49.910  1.00  0.00     0.073 A 
HETATM   10  C17 UNL     1      22.021   2.208  50.862  1.00  0.00     0.101 A 
ENDROOT
BRANCH   4  11
HETATM   11  N1  UNL     1      26.707   2.377  52.802  1.00  0.00    -0.339 N 
HETATM   12  H7  UNL     1      26.536   2.902  53.655  1.00  0.00     0.167 HD
BRANCH  11  13
HETATM   13  C9  UNL     1      27.557   1.271  53.054  1.00  0.00     0.035 A 
HETATM   14  C10 UNL     1      28.807   1.401  53.613  1.00  0.00     0.029 A 
HETATM   15  C11 UNL     1      29.649   0.351  53.869  1.00  0.00     0.004 A 
HETATM   16  C12 UNL     1      29.274  -0.929  53.570  1.00  0.00     0.024 A 
HETATM   17  C13 UNL     1      28.040  -1.110  53.014  1.00  0.00     0.036 A 
HETATM   18 CL1  UNL     1      27.490  -2.716  52.604  1.00  0.00    -0.084 Cl
HETATM   19  C14 UNL     1      27.236  -0.034  52.778  1.00  0.00     0.053 A 
ENDBRANCH  11  13
ENDBRANCH   4  11
BRANCH   1  20
HETATM   20  O1  UNL     1      21.750   1.263  53.042  1.00  0.00    -0.347 OA
BRANCH  20  21
HETATM   21  C4  UNL     1      21.638  -0.125  53.035  1.00  0.00     0.193 C 
BRANCH  21  22
HETATM   22  C3  UNL     1      22.095  -0.760  54.289  1.00  0.00     0.093 C 
BRANCH  22  23
HETATM   23  C2  UNL     1      23.386  -0.945  54.521  1.00  0.00    -0.174 C 
HETATM   24  C1  UNL     1      24.618  -0.951  55.007  1.00  0.00     0.091 C 
ENDBRANCH  22  23
ENDBRANCH  21  22
ENDBRANCH  20  21
ENDBRANCH   1  20
BRANCH  10  25
HETATM   25  O2  UNL     1      20.669   2.041  50.591  1.00  0.00    -0.358 OA
HETATM   26  H13 UNL     1      20.374   1.185  50.167  1.00  0.00     0.217 HD
ENDBRANCH  10  25
TORSDOF 7
ENDMDL
MODEL 8
REMARK VINA RESULT:      -7.3      1.778      2.100
REMARK  7 active torsions:
REMARK  status: ('A' for Active; 'I' for Inactive)
REMARK    1  A    between atoms: C2_2  and  C3_3 
REMARK    2  A    between atoms: C3_3  and  C4_4 
REMARK    3  A    between atoms: C4_4  and  O1_5 
REMARK    4  A    between atoms: O1_5  and  C5_6 
REMARK    5  A    between atoms: C8_9  and  N1_10 
REMARK    6  A    between atoms: N1_10  and  C9_11 
REMARK    7  A    between atoms: C17_23  and  O2_24 
ROOT
HETATM    1  C5  UNL     1      24.408  -0.380  53.812  1.00  0.00     0.102 A 
HETATM    2  C6  UNL     1      24.857   0.518  52.867  1.00  0.00     0.057 A 
HETATM    3  C7  UNL     1      26.056   1.162  52.898  1.00  0.00     0.045 A 
HETATM    4  C8  UNL     1      26.484   2.059  51.940  1.00  0.00     0.164 A 
HETATM    5  N2  UNL     1      27.695   2.544  52.212  1.00  0.00    -0.111 NA
HETATM    6  N3  UNL     1      28.436   2.256  53.231  1.00  0.00    -0.041 NA
HETATM    7  N4  UNL     1      28.048   1.410  54.147  1.00  0.00    -0.130 NA
HETATM    8  C15 UNL     1      26.840   0.848  53.990  1.00  0.00     0.097 A 
HETATM    9  C16 UNL     1      26.450  -0.039  54.966  1.00  0.00     0.073 A 
HETATM   10  C17 UNL     1      25.226  -0.669  54.893  1.00  0.00     0.101 A 
ENDROOT
BRANCH   4  11
HETATM   11  N1  UNL     1      25.649   2.352  50.838  1.00  0.00    -0.339 N 
HETATM   12  H7  UNL     1      25.882   2.046  49.897  1.00  0.00     0.167 HD
BRANCH  11  13
HETATM   13  C9  UNL     1      24.428   3.073  50.844  1.00  0.00     0.035 A 
HETATM   14  C10 UNL     1      24.030   3.862  51.898  1.00  0.00     0.029 A 
HETATM   15  C11 UNL     1      22.857   4.570  51.929  1.00  0.00     0.004 A 
HETATM   16  C12 UNL     1      21.989   4.525  50.874  1.00  0.00     0.024 A 
HETATM   17  C13 UNL     1      22.341   3.754  49.802  1.00  0.00     0.036 A 
HETATM   18 CL1  UNL     1      21.285   3.646  48.416  1.00  0.00    -0.084 Cl
HETATM   19  C14 UNL     1      23.519   3.068  49.815  1.00  0.00     0.053 A 
ENDBRANCH  11  13
ENDBRANCH   4  11
BRANCH   1  20
HETATM   20  O1  UNL     1      23.164  -1.014  53.730  1.00  0.00    -0.347 OA
BRANCH  20  21
HETATM   21  C4  UNL     1      22.106  -0.398  54.391  1.00  0.00     0.193 C 
BRANCH  21  22
HETATM   22  C3  UNL     1      21.156   0.278  53.483  1.00  0.00     0.093 C 
BRANCH  22  23
HETATM   23  C2  UNL     1      21.326   0.231  52.171  1.00  0.00    -0.174 C 
HETATM   24  C1  UNL     1      21.246   0.376  50.857  1.00  0.00     0.091 C 
ENDBRANCH  22  23
ENDBRANCH  21  22
ENDBRANCH  20  21
ENDBRANCH   1  20
BRANCH  10  25
HETATM   25  O2  UNL     1      24.847  -1.562  55.886  1.00  0.00    -0.358 OA
HETATM   26  H13 UNL     1      25.369  -2.409  55.985  1.00  0.00     0.217 HD
ENDBRANCH  10  25
TORSDOF 7
ENDMDL
MODEL 9
REMARK VINA RESULT:      -7.2      3.655      6.742
REMARK  7 active torsions:
REMARK  status: ('A' for Active; 'I' for Inactive)
REMARK    1  A    between atoms: C2_2  and  C3_3 
REMARK    2  A    between atoms: C3_3  and  C4_4 
REMARK    3  A    between atoms: C4_4  and  O1_5 
REMARK    4  A    between atoms: O1_5  and  C5_6 
REMARK    5  A    between atoms: C8_9  and  N1_10 
REMARK    6  A    between atoms: N1_10  and  C9_11 
REMARK    7  A    between atoms: C17_23  and  O2_24 
ROOT
HETATM    1  C5  UNL     1      25.804   2.277  53.125  1.00  0.00     0.102 A 
HETATM    2  C6  UNL     1      24.435   2.241  52.967  1.00  0.00     0.057 A 
HETATM    3  C7  UNL     1      23.768   2.479  51.805  1.00  0.00     0.045 A 
HETATM    4  C8  UNL     1      22.395   2.438  51.670  1.00  0.00     0.164 A 
HETATM    5  N2  UNL     1      22.004   2.710  50.426  1.00  0.00    -0.111 NA
HETATM    6  N3  UNL     1      22.761   2.989  49.417  1.00  0.00    -0.041 NA
HETATM    7  N4  UNL     1      24.062   3.033  49.524  1.00  0.00    -0.130 NA
HETATM    8  C15 UNL     1      24.586   2.776  50.733  1.00  0.00     0.097 A 
HETATM    9  C16 UNL     1      25.958   2.828  50.824  1.00  0.00     0.073 A 
HETATM   10  C17 UNL     1      26.590   2.579  52.024  1.00  0.00     0.101 A 
ENDROOT
BRANCH   4  11
HETATM   11  N1  UNL     1      21.595   2.129  52.794  1.00  0.00    -0.339 N 
HETATM   12  H7  UNL     1      21.301   2.846  53.452  1.00  0.00     0.167 HD
BRANCH  11  13
HETATM   13  C9  UNL     1      21.097   0.859  53.180  1.00  0.00     0.035 A 
HETATM   14  C10 UNL     1      21.823  -0.032  53.935  1.00  0.00     0.029 A 
HETATM   15  C11 UNL     1      21.367  -1.264  54.322  1.00  0.00     0.004 A 
HETATM   16  C12 UNL     1      20.117  -1.687  53.965  1.00  0.00     0.024 A 
HETATM   17  C13 UNL     1      19.355  -0.835  53.214  1.00  0.00     0.036 A 
HETATM   18 CL1  UNL     1      17.748  -1.303  52.719  1.00  0.00    -0.084 Cl
HETATM   19  C14 UNL     1      19.852   0.382  52.853  1.00  0.00     0.053 A 
ENDBRANCH  11  13
ENDBRANCH   4  11
BRANCH   1  20
HETATM   20  O1  UNL     1      26.438   2.023  54.345  1.00  0.00    -0.347 OA
BRANCH  20  21
HETATM   21  C4  UNL     1      26.694   0.689  54.649  1.00  0.00     0.193 C 
BRANCH  21  22
HETATM   22  C3  UNL     1      28.127   0.397  54.864  1.00  0.00     0.093 C 
BRANCH  22  23
HETATM   23  C2  UNL     1      28.761  -0.477  54.096  1.00  0.00    -0.174 C 
HETATM   24  C1  UNL     1      29.624  -1.134  53.337  1.00  0.00     0.091 C 
ENDBRANCH  22  23
ENDBRANCH  21  22
ENDBRANCH  20  21
ENDBRANCH   1  20
BRANCH  10  25
HETATM   25  O2  UNL     1      27.976   2.635  52.100  1.00  0.00    -0.358 OA
HETATM   26  H13 UNL     1      28.491   2.765  51.252  1.00  0.00     0.217 HD
ENDBRANCH  10  25
TORSDOF 7
ENDMDL
