MODEL 1
REMARK VINA RESULT:      -7.6      0.000      0.000
REMARK  4 active torsions:
REMARK  status: ('A' for Active; 'I' for Inactive)
REMARK    1  A    between atoms: O1_2  and  N1_3 
REMARK    2  A    between atoms: N1_3  and  C2_4 
REMARK    3  A    between atoms: N1_3  and  C15_20 
REMARK    4  A    between atoms: C9_12  and  C10_13 
ROOT
HETATM    1  C2  UNL     1      22.194   1.786  50.988  1.00  0.00     0.132 C 
HETATM    2  C3  UNL     1      21.443   1.227  50.033  1.00  0.00     0.050 C 
HETATM    3  C4  UNL     1      21.552   1.197  48.583  1.00  0.00     0.001 C 
HETATM    4  C5  UNL     1      22.048   2.107  47.730  1.00  0.00    -0.007 C 
HETATM    5  C6  UNL     1      22.662   3.434  47.763  1.00  0.00     0.148 C 
HETATM    6  N2  UNL     1      23.798   3.582  48.611  1.00  0.00    -0.373 N 
HETATM    7  C7  UNL     1      24.049   3.329  50.009  1.00  0.00     0.104 A 
HETATM    8  C8  UNL     1      25.027   3.743  50.832  1.00  0.00     0.052 A 
HETATM    9  C9  UNL     1      24.393   2.977  51.961  1.00  0.00     0.154 A 
HETATM   10  N4  UNL     1      23.381   2.571  51.041  1.00  0.00    -0.305 N 
HETATM   11  H9  UNL     1      24.686   3.956  48.163  1.00  0.00     0.161 HD
ENDROOT
BRANCH   1  12
HETATM   12  N1  UNL     1      21.699   1.552  52.292  1.00  0.00    -0.238 N 
BRANCH  12  13
HETATM   13  O1  UNL     1      20.573   2.291  52.160  1.00  0.00    -0.281 OA
HETATM   14  C1  UNL     1      20.792   3.645  52.333  1.00  0.00     0.238 C 
ENDBRANCH  12  13
BRANCH  12  15
HETATM   15  C15 UNL     1      22.074   0.827  53.497  1.00  0.00     0.116 C 
HETATM   16  C16 UNL     1      22.808  -0.424  53.172  1.00  0.00     0.028 C 
HETATM   17  C17 UNL     1      22.337  -1.693  53.742  1.00  0.00     0.002 C 
HETATM   18  C18 UNL     1      20.927  -1.778  54.208  1.00  0.00     0.000 C 
HETATM   19  C19 UNL     1      20.134  -0.637  53.632  1.00  0.00     0.002 C 
HETATM   20  C20 UNL     1      20.785   0.607  54.246  1.00  0.00     0.028 C 
ENDBRANCH  12  15
ENDBRANCH   1  12
BRANCH   9  21
HETATM   21  C10 UNL     1      25.362   1.942  52.402  1.00  0.00    -0.014 A 
HETATM   22  C11 UNL     1      25.642   2.002  53.766  1.00  0.00     0.012 A 
HETATM   23  C12 UNL     1      26.509   1.135  54.369  1.00  0.00     0.020 A 
HETATM   24  C13 UNL     1      27.120   0.168  53.562  1.00  0.00     0.116 A 
HETATM   25  N3  UNL     1      26.847   0.118  52.252  1.00  0.00    -0.272 NA
HETATM   26  C14 UNL     1      25.993   0.969  51.653  1.00  0.00     0.125 A 
ENDBRANCH   9  21
TORSDOF 4
ENDMDL
MODEL 2
REMARK VINA RESULT:      -6.9      2.939      5.736
REMARK  4 active torsions:
REMARK  status: ('A' for Active; 'I' for Inactive)
REMARK    1  A    between atoms: O1_2  and  N1_3 
REMARK    2  A    between atoms: N1_3  and  C2_4 
REMARK    3  A    between atoms: N1_3  and  C15_20 
REMARK    4  A    between atoms: C9_12  and  C10_13 
ROOT
HETATM    1  C2  UNL     1      23.789   3.985  51.123  1.00  0.00     0.132 C 
HETATM    2  C3  UNL     1      23.581   3.520  52.359  1.00  0.00     0.050 C 
HETATM    3  C4  UNL     1      24.482   3.050  53.401  1.00  0.00     0.001 C 
HETATM    4  C5  UNL     1      25.665   2.423  53.308  1.00  0.00    -0.007 C 
HETATM    5  C6  UNL     1      26.578   1.931  52.278  1.00  0.00     0.148 C 
HETATM    6  N2  UNL     1      26.981   2.877  51.290  1.00  0.00    -0.373 N 
HETATM    7  C7  UNL     1      26.272   3.744  50.380  1.00  0.00     0.104 A 
HETATM    8  C8  UNL     1      26.670   4.401  49.277  1.00  0.00     0.052 A 
HETATM    9  C9  UNL     1      25.279   4.950  49.111  1.00  0.00     0.154 A 
HETATM   10  N4  UNL     1      24.916   4.229  50.287  1.00  0.00    -0.305 N 
HETATM   11  H9  UNL     1      28.026   3.015  51.154  1.00  0.00     0.161 HD
ENDROOT
BRANCH   1  12
HETATM   12  N1  UNL     1      22.592   4.333  50.453  1.00  0.00    -0.238 N 
BRANCH  12  13
HETATM   13  O1  UNL     1      22.360   5.473  51.143  1.00  0.00    -0.281 OA
HETATM   14  C1  UNL     1      21.915   6.509  50.342  1.00  0.00     0.238 C 
ENDBRANCH  12  13
BRANCH  12  15
HETATM   15  C15 UNL     1      21.738   3.820  49.392  1.00  0.00     0.116 C 
HETATM   16  C16 UNL     1      20.375   3.507  49.896  1.00  0.00     0.028 C 
HETATM   17  C17 UNL     1      19.813   2.173  49.645  1.00  0.00     0.002 C 
HETATM   18  C18 UNL     1      20.750   1.058  49.342  1.00  0.00     0.000 C 
HETATM   19  C19 UNL     1      22.147   1.446  49.744  1.00  0.00     0.002 C 
HETATM   20  C20 UNL     1      22.475   2.631  48.829  1.00  0.00     0.028 C 
ENDBRANCH  12  15
ENDBRANCH   1  12
BRANCH   9  21
HETATM   21  C10 UNL     1      25.363   6.428  49.222  1.00  0.00    -0.014 A 
HETATM   22  C11 UNL     1      25.207   7.077  47.998  1.00  0.00     0.012 A 
HETATM   23  C12 UNL     1      25.252   8.438  47.886  1.00  0.00     0.020 A 
HETATM   24  C13 UNL     1      25.464   9.175  49.057  1.00  0.00     0.116 A 
HETATM   25  N3  UNL     1      25.614   8.544  50.229  1.00  0.00    -0.272 NA
HETATM   26  C14 UNL     1      25.570   7.203  50.344  1.00  0.00     0.125 A 
ENDBRANCH   9  21
TORSDOF 4
ENDMDL
MODEL 3
REMARK VINA RESULT:      -6.8      2.950      6.213
REMARK  4 active torsions:
REMARK  status: ('A' for Active; 'I' for Inactive)
REMARK    1  A    between atoms: O1_2  and  N1_3 
REMARK    2  A    between atoms: N1_3  and  C2_4 
REMARK    3  A    between atoms: N1_3  and  C15_20 
REMARK    4  A    between atoms: C9_12  and  C10_13 
ROOT
HETATM    1  C2  UNL     1      23.701   3.397  50.788  1.00  0.00     0.132 C 
HETATM    2  C3  UNL     1      23.420   2.858  51.978  1.00  0.00     0.050 C 
HETATM    3  C4  UNL     1      24.243   2.534  53.134  1.00  0.00     0.001 C 
HETATM    4  C5  UNL     1      25.527   2.150  53.206  1.00  0.00    -0.007 C 
HETATM    5  C6  UNL     1      26.651   1.878  52.312  1.00  0.00     0.148 C 
HETATM    6  N2  UNL     1      26.994   2.917  51.399  1.00  0.00    -0.373 N 
HETATM    7  C7  UNL     1      26.263   3.662  50.402  1.00  0.00     0.104 A 
HETATM    8  C8  UNL     1      26.672   4.421  49.372  1.00  0.00     0.052 A 
HETATM    9  C9  UNL     1      25.238   4.698  49.014  1.00  0.00     0.154 A 
HETATM   10  N4  UNL     1      24.864   3.881  50.121  1.00  0.00    -0.305 N 
HETATM   11  H9  UNL     1      28.001   3.257  51.413  1.00  0.00     0.161 HD
ENDROOT
BRANCH   1  12
HETATM   12  N1  UNL     1      22.564   3.530  49.956  1.00  0.00    -0.238 N 
BRANCH  12  13
HETATM   13  O1  UNL     1      22.930   2.593  49.052  1.00  0.00    -0.281 OA
HETATM   14  C1  UNL     1      21.946   1.651  48.820  1.00  0.00     0.238 C 
ENDBRANCH  12  13
BRANCH  12  15
HETATM   15  C15 UNL     1      21.337   4.308  49.890  1.00  0.00     0.116 C 
HETATM   16  C16 UNL     1      21.371   5.285  48.770  1.00  0.00     0.028 C 
HETATM   17  C17 UNL     1      21.088   6.699  49.051  1.00  0.00     0.002 C 
HETATM   18  C18 UNL     1      21.246   7.187  50.448  1.00  0.00     0.000 C 
HETATM   19  C19 UNL     1      22.059   6.200  51.240  1.00  0.00     0.002 C 
HETATM   20  C20 UNL     1      21.191   4.937  51.252  1.00  0.00     0.028 C 
ENDBRANCH  12  15
ENDBRANCH   1  12
BRANCH   9  21
HETATM   21  C10 UNL     1      25.016   6.160  49.146  1.00  0.00    -0.014 A 
HETATM   22  C11 UNL     1      24.567   6.752  47.967  1.00  0.00     0.012 A 
HETATM   23  C12 UNL     1      24.303   8.091  47.880  1.00  0.00     0.020 A 
HETATM   24  C13 UNL     1      24.502   8.862  49.030  1.00  0.00     0.116 A 
HETATM   25  N3  UNL     1      24.935   8.286  50.159  1.00  0.00    -0.272 NA
HETATM   26  C14 UNL     1      25.195   6.968  50.249  1.00  0.00     0.125 A 
ENDBRANCH   9  21
TORSDOF 4
ENDMDL
MODEL 4
REMARK VINA RESULT:      -6.8      2.630      4.937
REMARK  4 active torsions:
REMARK  status: ('A' for Active; 'I' for Inactive)
REMARK    1  A    between atoms: O1_2  and  N1_3 
REMARK    2  A    between atoms: N1_3  and  C2_4 
REMARK    3  A    between atoms: N1_3  and  C15_20 
REMARK    4  A    between atoms: C9_12  and  C10_13 
ROOT
HETATM    1  C2  UNL     1      23.255   2.891  50.415  1.00  0.00     0.132 C 
HETATM    2  C3  UNL     1      22.788   1.819  49.767  1.00  0.00     0.050 C 
HETATM    3  C4  UNL     1      21.484   1.490  49.213  1.00  0.00     0.001 C 
HETATM    4  C5  UNL     1      20.254   1.843  49.619  1.00  0.00    -0.007 C 
HETATM    5  C6  UNL     1      19.622   2.629  50.677  1.00  0.00     0.148 C 
HETATM    6  N2  UNL     1      20.074   3.973  50.819  1.00  0.00    -0.373 N 
HETATM    7  C7  UNL     1      21.368   4.584  51.011  1.00  0.00     0.104 A 
HETATM    8  C8  UNL     1      21.726   5.811  51.425  1.00  0.00     0.052 A 
HETATM    9  C9  UNL     1      23.174   5.431  51.279  1.00  0.00     0.154 A 
HETATM   10  N4  UNL     1      22.733   4.144  50.847  1.00  0.00    -0.305 N 
HETATM   11  H9  UNL     1      19.335   4.736  50.782  1.00  0.00     0.161 HD
ENDROOT
BRANCH   1  12
HETATM   12  N1  UNL     1      24.617   2.772  50.777  1.00  0.00    -0.238 N 
BRANCH  12  13
HETATM   13  O1  UNL     1      25.122   3.128  49.573  1.00  0.00    -0.281 OA
HETATM   14  C1  UNL     1      26.274   3.886  49.671  1.00  0.00     0.238 C 
ENDBRANCH  12  13
BRANCH  12  15
HETATM   15  C15 UNL     1      25.420   2.420  51.938  1.00  0.00     0.116 C 
HETATM   16  C16 UNL     1      26.183   1.164  51.711  1.00  0.00     0.028 C 
HETATM   17  C17 UNL     1      26.068   0.075  52.690  1.00  0.00     0.002 C 
HETATM   18  C18 UNL     1      24.879   0.052  53.585  1.00  0.00     0.000 C 
HETATM   19  C19 UNL     1      23.811   0.956  53.031  1.00  0.00     0.002 C 
HETATM   20  C20 UNL     1      24.446   2.349  53.087  1.00  0.00     0.028 C 
ENDBRANCH  12  15
ENDBRANCH   1  12
BRANCH   9  21
HETATM   21  C10 UNL     1      23.772   6.321  50.252  1.00  0.00    -0.014 A 
HETATM   22  C11 UNL     1      24.707   7.211  50.779  1.00  0.00     0.012 A 
HETATM   23  C12 UNL     1      25.371   8.115  49.999  1.00  0.00     0.020 A 
HETATM   24  C13 UNL     1      25.078   8.122  48.630  1.00  0.00     0.116 A 
HETATM   25  N3  UNL     1      24.178   7.265  48.132  1.00  0.00    -0.272 NA
HETATM   26  C14 UNL     1      23.522   6.372  48.897  1.00  0.00     0.125 A 
ENDBRANCH   9  21
TORSDOF 4
ENDMDL
MODEL 5
REMARK VINA RESULT:      -6.6      1.607      2.600
REMARK  4 active torsions:
REMARK  status: ('A' for Active; 'I' for Inactive)
REMARK    1  A    between atoms: O1_2  and  N1_3 
REMARK    2  A    between atoms: N1_3  and  C2_4 
REMARK    3  A    between atoms: N1_3  and  C15_20 
REMARK    4  A    between atoms: C9_12  and  C10_13 
ROOT
HETATM    1  C2  UNL     1      22.256   2.072  50.213  1.00  0.00     0.132 C 
HETATM    2  C3  UNL     1      21.831   1.485  49.089  1.00  0.00     0.050 C 
HETATM    3  C4  UNL     1      22.034   1.787  47.680  1.00  0.00     0.001 C 
HETATM    4  C5  UNL     1      22.207   2.965  47.061  1.00  0.00    -0.007 C 
HETATM    5  C6  UNL     1      22.276   4.388  47.391  1.00  0.00     0.148 C 
HETATM    6  N2  UNL     1      23.218   4.757  48.394  1.00  0.00    -0.373 N 
HETATM    7  C7  UNL     1      23.457   4.336  49.754  1.00  0.00     0.104 A 
HETATM    8  C8  UNL     1      24.155   4.896  50.755  1.00  0.00     0.052 A 
HETATM    9  C9  UNL     1      23.784   3.746  51.650  1.00  0.00     0.154 A 
HETATM   10  N4  UNL     1      23.058   3.200  50.550  1.00  0.00    -0.305 N 
HETATM   11  H9  UNL     1      23.928   5.504  48.135  1.00  0.00     0.161 HD
ENDROOT
BRANCH   1  12
HETATM   12  N1  UNL     1      21.803   1.420  51.384  1.00  0.00    -0.238 N 
BRANCH  12  13
HETATM   13  O1  UNL     1      22.902   0.649  51.560  1.00  0.00    -0.281 OA
HETATM   14  C1  UNL     1      22.896  -0.035  52.761  1.00  0.00     0.238 C 
ENDBRANCH  12  13
BRANCH  12  15
HETATM   15  C15 UNL     1      20.640   1.412  52.258  1.00  0.00     0.116 C 
HETATM   16  C16 UNL     1      19.506   0.670  51.647  1.00  0.00     0.028 C 
HETATM   17  C17 UNL     1      18.197   1.328  51.545  1.00  0.00     0.002 C 
HETATM   18  C18 UNL     1      18.148   2.814  51.599  1.00  0.00     0.000 C 
HETATM   19  C19 UNL     1      19.521   3.376  51.353  1.00  0.00     0.002 C 
HETATM   20  C20 UNL     1      20.345   2.863  52.539  1.00  0.00     0.028 C 
ENDBRANCH  12  15
ENDBRANCH   1  12
BRANCH   9  21
HETATM   21  C10 UNL     1      25.040   3.057  52.041  1.00  0.00    -0.014 A 
HETATM   22  C11 UNL     1      25.071   2.702  53.388  1.00  0.00     0.012 A 
HETATM   23  C12 UNL     1      26.140   2.058  53.946  1.00  0.00     0.020 A 
HETATM   24  C13 UNL     1      27.222   1.762  53.110  1.00  0.00     0.116 A 
HETATM   25  N3  UNL     1      27.185   2.108  51.816  1.00  0.00    -0.272 NA
HETATM   26  C14 UNL     1      26.134   2.741  51.263  1.00  0.00     0.125 A 
ENDBRANCH   9  21
TORSDOF 4
ENDMDL
MODEL 6
REMARK VINA RESULT:      -6.6      3.041      6.260
REMARK  4 active torsions:
REMARK  status: ('A' for Active; 'I' for Inactive)
REMARK    1  A    between atoms: O1_2  and  N1_3 
REMARK    2  A    between atoms: N1_3  and  C2_4 
REMARK    3  A    between atoms: N1_3  and  C15_20 
REMARK    4  A    between atoms: C9_12  and  C10_13 
ROOT
HETATM    1  C2  UNL     1      23.787   4.084  50.910  1.00  0.00     0.132 C 
HETATM    2  C3  UNL     1      23.508   3.617  52.131  1.00  0.00     0.050 C 
HETATM    3  C4  UNL     1      24.345   3.133  53.218  1.00  0.00     0.001 C 
HETATM    4  C5  UNL     1      25.525   2.493  53.187  1.00  0.00    -0.007 C 
HETATM    5  C6  UNL     1      26.487   1.995  52.205  1.00  0.00     0.148 C 
HETATM    6  N2  UNL     1      26.953   2.939  51.245  1.00  0.00    -0.373 N 
HETATM    7  C7  UNL     1      26.304   3.817  50.301  1.00  0.00     0.104 A 
HETATM    8  C8  UNL     1      26.768   4.474  49.224  1.00  0.00     0.052 A 
HETATM    9  C9  UNL     1      25.395   5.039  48.985  1.00  0.00     0.154 A 
HETATM   10  N4  UNL     1      24.960   4.318  50.137  1.00  0.00    -0.305 N 
HETATM   11  H9  UNL     1      28.005   3.065  51.166  1.00  0.00     0.161 HD
ENDROOT
BRANCH   1  12
HETATM   12  N1  UNL     1      22.633   4.447  50.177  1.00  0.00    -0.238 N 
BRANCH  12  13
HETATM   13  O1  UNL     1      22.624   5.749  50.548  1.00  0.00    -0.281 OA
HETATM   14  C1  UNL     1      21.481   6.107  51.238  1.00  0.00     0.238 C 
ENDBRANCH  12  13
BRANCH  12  15
HETATM   15  C15 UNL     1      21.656   3.834  49.290  1.00  0.00     0.116 C 
HETATM   16  C16 UNL     1      22.177   2.575  48.695  1.00  0.00     0.028 C 
HETATM   17  C17 UNL     1      22.142   2.411  47.236  1.00  0.00     0.002 C 
HETATM   18  C18 UNL     1      22.049   3.631  46.390  1.00  0.00     0.000 C 
HETATM   19  C19 UNL     1      22.409   4.842  47.206  1.00  0.00     0.002 C 
HETATM   20  C20 UNL     1      21.315   4.898  48.279  1.00  0.00     0.028 C 
ENDBRANCH  12  15
ENDBRANCH   1  12
BRANCH   9  21
HETATM   21  C10 UNL     1      25.489   6.516  49.106  1.00  0.00    -0.014 A 
HETATM   22  C11 UNL     1      25.281   7.177  47.897  1.00  0.00     0.012 A 
HETATM   23  C12 UNL     1      25.326   8.539  47.796  1.00  0.00     0.020 A 
HETATM   24  C13 UNL     1      25.592   9.263  48.964  1.00  0.00     0.116 A 
HETATM   25  N3  UNL     1      25.792   8.621  50.122  1.00  0.00    -0.272 NA
HETATM   26  C14 UNL     1      25.748   7.279  50.226  1.00  0.00     0.125 A 
ENDBRANCH   9  21
TORSDOF 4
ENDMDL
MODEL 7
REMARK VINA RESULT:      -6.5      2.597      4.784
REMARK  4 active torsions:
REMARK  status: ('A' for Active; 'I' for Inactive)
REMARK    1  A    between atoms: O1_2  and  N1_3 
REMARK    2  A    between atoms: N1_3  and  C2_4 
REMARK    3  A    between atoms: N1_3  and  C15_20 
REMARK    4  A    between atoms: C9_12  and  C10_13 
ROOT
HETATM    1  C2  UNL     1      22.469   5.292  49.501  1.00  0.00     0.132 C 
HETATM    2  C3  UNL     1      23.119   5.735  48.420  1.00  0.00     0.050 C 
HETATM    3  C4  UNL     1      24.445   6.303  48.228  1.00  0.00     0.001 C 
HETATM    4  C5  UNL     1      25.194   7.055  49.049  1.00  0.00    -0.007 C 
HETATM    5  C6  UNL     1      25.121   7.641  50.387  1.00  0.00     0.148 C 
HETATM    6  N2  UNL     1      24.822   6.743  51.452  1.00  0.00    -0.373 N 
HETATM    7  C7  UNL     1      23.757   5.802  51.706  1.00  0.00     0.104 A 
HETATM    8  C8  UNL     1      23.352   5.190  52.831  1.00  0.00     0.052 A 
HETATM    9  C9  UNL     1      22.270   4.492  52.055  1.00  0.00     0.154 A 
HETATM   10  N4  UNL     1      22.744   5.172  50.894  1.00  0.00    -0.305 N 
HETATM   11  H9  UNL     1      25.503   6.721  52.268  1.00  0.00     0.161 HD
ENDROOT
BRANCH   1  12
HETATM   12  N1  UNL     1      21.170   4.815  49.211  1.00  0.00    -0.238 N 
BRANCH  12  13
HETATM   13  O1  UNL     1      20.502   5.808  49.844  1.00  0.00    -0.281 OA
HETATM   14  C1  UNL     1      19.523   6.387  49.059  1.00  0.00     0.238 C 
ENDBRANCH  12  13
BRANCH  12  15
HETATM   15  C15 UNL     1      20.536   3.706  48.515  1.00  0.00     0.116 C 
HETATM   16  C16 UNL     1      19.885   2.767  49.466  1.00  0.00     0.028 C 
HETATM   17  C17 UNL     1      20.214   1.338  49.392  1.00  0.00     0.002 C 
HETATM   18  C18 UNL     1      21.487   0.939  48.734  1.00  0.00     0.000 C 
HETATM   19  C19 UNL     1      22.393   2.135  48.617  1.00  0.00     0.002 C 
HETATM   20  C20 UNL     1      21.629   3.082  47.685  1.00  0.00     0.028 C 
ENDBRANCH  12  15
ENDBRANCH   1  12
BRANCH   9  21
HETATM   21  C10 UNL     1      22.527   3.032  52.137  1.00  0.00    -0.014 A 
HETATM   22  C11 UNL     1      21.442   2.314  52.636  1.00  0.00     0.012 A 
HETATM   23  C12 UNL     1      21.477   0.957  52.790  1.00  0.00     0.020 A 
HETATM   24  C13 UNL     1      22.656   0.297  52.426  1.00  0.00     0.116 A 
HETATM   25  N3  UNL     1      23.695   0.994  51.948  1.00  0.00    -0.272 NA
HETATM   26  C14 UNL     1      23.665   2.332  51.795  1.00  0.00     0.125 A 
ENDBRANCH   9  21
TORSDOF 4
ENDMDL
MODEL 8
REMARK VINA RESULT:      -6.5      2.427      5.284
REMARK  4 active torsions:
REMARK  status: ('A' for Active; 'I' for Inactive)
REMARK    1  A    between atoms: O1_2  and  N1_3 
REMARK    2  A    between atoms: N1_3  and  C2_4 
REMARK    3  A    between atoms: N1_3  and  C15_20 
REMARK    4  A    between atoms: C9_12  and  C10_13 
ROOT
HETATM    1  C2  UNL     1      23.196   2.306  50.512  1.00  0.00     0.132 C 
HETATM    2  C3  UNL     1      22.982   1.449  51.515  1.00  0.00     0.050 C 
HETATM    3  C4  UNL     1      23.814   0.991  52.618  1.00  0.00     0.001 C 
HETATM    4  C5  UNL     1      25.143   0.824  52.691  1.00  0.00    -0.007 C 
HETATM    5  C6  UNL     1      26.325   0.977  51.844  1.00  0.00     0.148 C 
HETATM    6  N2  UNL     1      26.501   2.252  51.232  1.00  0.00    -0.373 N 
HETATM    7  C7  UNL     1      25.677   3.087  50.392  1.00  0.00     0.104 A 
HETATM    8  C8  UNL     1      25.973   4.135  49.606  1.00  0.00     0.052 A 
HETATM    9  C9  UNL     1      24.524   4.247  49.219  1.00  0.00     0.154 A 
HETATM   10  N4  UNL     1      24.271   3.129  50.068  1.00  0.00    -0.305 N 
HETATM   11  H9  UNL     1      27.428   2.743  51.402  1.00  0.00     0.161 HD
ENDROOT
BRANCH   1  12
HETATM   12  N1  UNL     1      22.079   2.448  49.655  1.00  0.00    -0.238 N 
BRANCH  12  13
HETATM   13  O1  UNL     1      22.497   1.565  48.718  1.00  0.00    -0.281 OA
HETATM   14  C1  UNL     1      22.486   2.088  47.439  1.00  0.00     0.238 C 
ENDBRANCH  12  13
BRANCH  12  15
HETATM   15  C15 UNL     1      20.832   3.194  49.589  1.00  0.00     0.116 C 
HETATM   16  C16 UNL     1      20.687   4.113  50.748  1.00  0.00     0.028 C 
HETATM   17  C17 UNL     1      19.461   4.051  51.556  1.00  0.00     0.002 C 
HETATM   18  C18 UNL     1      18.646   2.808  51.507  1.00  0.00     0.000 C 
HETATM   19  C19 UNL     1      19.464   1.687  50.926  1.00  0.00     0.002 C 
HETATM   20  C20 UNL     1      19.749   2.149  49.492  1.00  0.00     0.028 C 
ENDBRANCH  12  15
ENDBRANCH   1  12
BRANCH   9  21
HETATM   21  C10 UNL     1      24.036   5.571  49.679  1.00  0.00    -0.014 A 
HETATM   22  C11 UNL     1      23.158   6.173  48.779  1.00  0.00     0.012 A 
HETATM   23  C12 UNL     1      22.597   7.396  49.018  1.00  0.00     0.020 A 
HETATM   24  C13 UNL     1      22.937   8.038  50.214  1.00  0.00     0.116 A 
HETATM   25  N3  UNL     1      23.781   7.454  51.073  1.00  0.00    -0.272 NA
HETATM   26  C14 UNL     1      24.336   6.249  50.842  1.00  0.00     0.125 A 
ENDBRANCH   9  21
TORSDOF 4
ENDMDL
MODEL 9
REMARK VINA RESULT:      -6.3      7.856     11.015
REMARK  4 active torsions:
REMARK  status: ('A' for Active; 'I' for Inactive)
REMARK    1  A    between atoms: O1_2  and  N1_3 
REMARK    2  A    between atoms: N1_3  and  C2_4 
REMARK    3  A    between atoms: N1_3  and  C15_20 
REMARK    4  A    between atoms: C9_12  and  C10_13 
ROOT
HETATM    1  C2  UNL     1      27.727   8.755  48.209  1.00  0.00     0.132 C 
HETATM    2  C3  UNL     1      26.824   9.254  49.058  1.00  0.00     0.050 C 
HETATM    3  C4  UNL     1      26.109   8.682  50.189  1.00  0.00     0.001 C 
HETATM    4  C5  UNL     1      25.693   7.424  50.407  1.00  0.00    -0.007 C 
HETATM    5  C6  UNL     1      25.715   6.122  49.743  1.00  0.00     0.148 C 
HETATM    6  N2  UNL     1      26.993   5.647  49.329  1.00  0.00    -0.373 N 
HETATM    7  C7  UNL     1      28.048   6.188  48.505  1.00  0.00     0.104 A 
HETATM    8  C8  UNL     1      29.101   5.608  47.905  1.00  0.00     0.052 A 
HETATM    9  C9  UNL     1      29.516   6.946  47.355  1.00  0.00     0.154 A 
HETATM   10  N4  UNL     1      28.381   7.504  48.015  1.00  0.00    -0.305 N 
HETATM   11  H9  UNL     1      27.285   4.686  49.676  1.00  0.00     0.161 HD
ENDROOT
BRANCH   1  12
HETATM   12  N1  UNL     1      28.160   9.693  47.243  1.00  0.00    -0.238 N 
BRANCH  12  13
HETATM   13  O1  UNL     1      27.216   9.402  46.318  1.00  0.00    -0.281 OA
HETATM   14  C1  UNL     1      27.744   9.164  45.063  1.00  0.00     0.238 C 
ENDBRANCH  12  13
BRANCH  12  15
HETATM   15  C15 UNL     1      29.197  10.700  47.077  1.00  0.00     0.116 C 
HETATM   16  C16 UNL     1      30.190  10.646  48.182  1.00  0.00     0.028 C 
HETATM   17  C17 UNL     1      30.494  11.875  48.925  1.00  0.00     0.002 C 
HETATM   18  C18 UNL     1      29.503  12.984  48.893  1.00  0.00     0.000 C 
HETATM   19  C19 UNL     1      28.176  12.464  48.409  1.00  0.00     0.002 C 
HETATM   20  C20 UNL     1      28.463  12.012  46.972  1.00  0.00     0.028 C 
ENDBRANCH  12  15
ENDBRANCH   1  12
BRANCH   9  21
HETATM   21  C10 UNL     1      30.852   7.267  47.917  1.00  0.00    -0.014 A 
HETATM   22  C11 UNL     1      31.804   7.544  46.938  1.00  0.00     0.012 A 
HETATM   23  C12 UNL     1      33.096   7.864  47.249  1.00  0.00     0.020 A 
HETATM   24  C13 UNL     1      33.441   7.905  48.604  1.00  0.00     0.116 A 
HETATM   25  N3  UNL     1      32.521   7.637  49.540  1.00  0.00    -0.272 NA
HETATM   26  C14 UNL     1      31.247   7.322  49.238  1.00  0.00     0.125 A 
ENDBRANCH   9  21
TORSDOF 4
ENDMDL
