MODEL 1
REMARK VINA RESULT:      -6.7      0.000      0.000
REMARK  6 active torsions:
REMARK  status: ('A' for Active; 'I' for Inactive)
REMARK    1  A    between atoms: O1_2  and  C2_3 
REMARK    2  A    between atoms: C6_9  and  N3_10 
REMARK    3  A    between atoms: N4_11  and  C7_12 
REMARK    4  A    between atoms: C8_13  and  C9_14 
REMARK    5  A    between atoms: C12_18  and  O2_19 
REMARK    6  A    between atoms: O2_19  and  P1_20 
ROOT
HETATM    1  C2  UNL     1      23.033   1.994  51.418  1.00  0.00     0.104 A 
HETATM    2  C3  UNL     1      23.090   0.870  52.198  1.00  0.00     0.072 A 
HETATM    3  C4  UNL     1      24.141   0.663  53.071  1.00  0.00     0.075 A 
HETATM    4  N1  UNL     1      24.161  -0.454  53.820  1.00  0.00    -0.241 NA
HETATM    5  C5  UNL     1      25.138  -0.713  54.675  1.00  0.00     0.236 A 
HETATM    6  N2  UNL     1      26.167   0.144  54.834  1.00  0.00    -0.220 NA
HETATM    7  C6  UNL     1      26.195   1.291  54.100  1.00  0.00     0.185 A 
HETATM    8  C10 UNL     1      25.169   1.573  53.194  1.00  0.00     0.045 A 
HETATM    9  C11 UNL     1      25.126   2.710  52.416  1.00  0.00     0.057 A 
HETATM   10  C12 UNL     1      24.075   2.910  51.547  1.00  0.00     0.107 A 
ENDROOT
BRANCH   7  11
HETATM   11  N3  UNL     1      27.257   2.227  54.228  1.00  0.00    -0.130 NA
HETATM   12  N4  UNL     1      28.473   1.956  54.117  1.00  0.00    -0.161 NA
BRANCH  12  13
HETATM   13  C7  UNL     1      29.001   0.667  53.844  1.00  0.00     0.139 C 
HETATM   14  C8  UNL     1      29.890  -0.303  53.666  1.00  0.00     0.025 C 
BRANCH  14  15
HETATM   15  C9  UNL     1      29.473  -1.702  53.314  1.00  0.00     0.251 C 
HETATM   16  F1  UNL     1      28.118  -1.747  53.022  1.00  0.00    -0.251 F 
ENDBRANCH  14  15
ENDBRANCH  12  13
ENDBRANCH   7  11
BRANCH  10  17
HETATM   17  O2  UNL     1      24.132   4.090  50.809  1.00  0.00    -0.327 OA
BRANCH  17  18
HETATM   18  P1  UNL     1      25.350   4.453  49.618  1.00  0.00     0.009 P 
HETATM   19  H11 UNL     1      26.675   4.305  50.205  1.00  0.00     0.085 HD
HETATM   20  H12 UNL     1      25.211   3.519  48.513  1.00  0.00     0.085 HD
ENDBRANCH  17  18
ENDBRANCH  10  17
BRANCH   1  21
HETATM   21  O1  UNL     1      22.064   2.359  50.498  1.00  0.00    -0.353 OA
HETATM   22  C1  UNL     1      21.925   1.583  49.326  1.00  0.00     0.210 C 
ENDBRANCH   1  21
TORSDOF 6
ENDMDL
MODEL 2
REMARK VINA RESULT:      -6.3      3.936      6.146
REMARK  6 active torsions:
REMARK  status: ('A' for Active; 'I' for Inactive)
REMARK    1  A    between atoms: O1_2  and  C2_3 
REMARK    2  A    between atoms: C6_9  and  N3_10 
REMARK    3  A    between atoms: N4_11  and  C7_12 
REMARK    4  A    between atoms: C8_13  and  C9_14 
REMARK    5  A    between atoms: C12_18  and  O2_19 
REMARK    6  A    between atoms: O2_19  and  P1_20 
ROOT
HETATM    1  C2  UNL     1      26.130  -0.446  52.973  1.00  0.00     0.104 A 
HETATM    2  C3  UNL     1      26.741   0.395  52.082  1.00  0.00     0.072 A 
HETATM    3  C4  UNL     1      26.137   1.575  51.691  1.00  0.00     0.075 A 
HETATM    4  N1  UNL     1      26.769   2.375  50.813  1.00  0.00    -0.241 NA
HETATM    5  C5  UNL     1      26.247   3.518  50.397  1.00  0.00     0.236 A 
HETATM    6  N2  UNL     1      25.044   3.935  50.842  1.00  0.00    -0.220 NA
HETATM    7  C6  UNL     1      24.363   3.162  51.732  1.00  0.00     0.185 A 
HETATM    8  C10 UNL     1      24.904   1.954  52.178  1.00  0.00     0.045 A 
HETATM    9  C11 UNL     1      24.277   1.118  53.076  1.00  0.00     0.057 A 
HETATM   10  C12 UNL     1      24.884  -0.058  53.462  1.00  0.00     0.107 A 
ENDROOT
BRANCH   7  11
HETATM   11  N3  UNL     1      23.091   3.555  52.232  1.00  0.00    -0.130 NA
HETATM   12  N4  UNL     1      21.990   3.252  51.718  1.00  0.00    -0.161 NA
BRANCH  12  13
HETATM   13  C7  UNL     1      21.825   2.465  50.549  1.00  0.00     0.139 C 
HETATM   14  C8  UNL     1      21.781   1.395  49.764  1.00  0.00     0.025 C 
BRANCH  14  15
HETATM   15  C9  UNL     1      21.439   1.499  48.305  1.00  0.00     0.251 C 
HETATM   16  F1  UNL     1      22.594   1.555  47.538  1.00  0.00    -0.251 F 
ENDBRANCH  14  15
ENDBRANCH  12  13
ENDBRANCH   7  11
BRANCH  10  17
HETATM   17  O2  UNL     1      24.162  -0.827  54.372  1.00  0.00    -0.327 OA
BRANCH  17  18
HETATM   18  P1  UNL     1      22.424  -0.923  54.425  1.00  0.00     0.009 P 
HETATM   19  H11 UNL     1      21.975  -2.146  53.775  1.00  0.00     0.085 HD
HETATM   20  H12 UNL     1      22.002  -0.940  55.817  1.00  0.00     0.085 HD
ENDBRANCH  17  18
ENDBRANCH  10  17
BRANCH   1  21
HETATM   21  O1  UNL     1      26.586  -1.656  53.471  1.00  0.00    -0.353 OA
HETATM   22  C1  UNL     1      27.438  -2.437  52.659  1.00  0.00     0.210 C 
ENDBRANCH   1  21
TORSDOF 6
ENDMDL
MODEL 3
REMARK VINA RESULT:      -6.3      2.640      3.250
REMARK  6 active torsions:
REMARK  status: ('A' for Active; 'I' for Inactive)
REMARK    1  A    between atoms: O1_2  and  C2_3 
REMARK    2  A    between atoms: C6_9  and  N3_10 
REMARK    3  A    between atoms: N4_11  and  C7_12 
REMARK    4  A    between atoms: C8_13  and  C9_14 
REMARK    5  A    between atoms: C12_18  and  O2_19 
REMARK    6  A    between atoms: O2_19  and  P1_20 
ROOT
HETATM    1  C2  UNL     1      22.318   1.092  51.601  1.00  0.00     0.104 A 
HETATM    2  C3  UNL     1      23.316   1.633  50.835  1.00  0.00     0.072 A 
HETATM    3  C4  UNL     1      24.552   1.925  51.381  1.00  0.00     0.075 A 
HETATM    4  N1  UNL     1      25.506   2.456  50.595  1.00  0.00    -0.241 NA
HETATM    5  C5  UNL     1      26.710   2.759  51.055  1.00  0.00     0.236 A 
HETATM    6  N2  UNL     1      27.035   2.546  52.346  1.00  0.00    -0.220 NA
HETATM    7  C6  UNL     1      26.105   2.009  53.184  1.00  0.00     0.185 A 
HETATM    8  C10 UNL     1      24.831   1.686  52.709  1.00  0.00     0.045 A 
HETATM    9  C11 UNL     1      23.837   1.141  53.494  1.00  0.00     0.057 A 
HETATM   10  C12 UNL     1      22.607   0.852  52.943  1.00  0.00     0.107 A 
ENDROOT
BRANCH   7  11
HETATM   11  N3  UNL     1      26.396   1.764  54.553  1.00  0.00    -0.130 NA
HETATM   12  N4  UNL     1      27.111   0.831  54.982  1.00  0.00    -0.161 NA
BRANCH  12  13
HETATM   13  C7  UNL     1      27.754  -0.142  54.174  1.00  0.00     0.139 C 
HETATM   14  C8  UNL     1      28.009  -0.923  53.130  1.00  0.00     0.025 C 
BRANCH  14  15
HETATM   15  C9  UNL     1      29.166  -1.880  53.125  1.00  0.00     0.251 C 
HETATM   16  F1  UNL     1      30.195  -1.404  53.924  1.00  0.00    -0.251 F 
ENDBRANCH  14  15
ENDBRANCH  12  13
ENDBRANCH   7  11
BRANCH  10  17
HETATM   17  O2  UNL     1      21.677   0.306  53.824  1.00  0.00    -0.327 OA
BRANCH  17  18
HETATM   18  P1  UNL     1      21.833  -1.255  54.584  1.00  0.00     0.009 P 
HETATM   19  H11 UNL     1      21.260  -2.283  53.726  1.00  0.00     0.085 HD
HETATM   20  H12 UNL     1      23.246  -1.534  54.783  1.00  0.00     0.085 HD
ENDBRANCH  17  18
ENDBRANCH  10  17
BRANCH   1  21
HETATM   21  O1  UNL     1      21.034   0.740  51.222  1.00  0.00    -0.353 OA
HETATM   22  C1  UNL     1      20.090   1.769  51.012  1.00  0.00     0.210 C 
ENDBRANCH   1  21
TORSDOF 6
ENDMDL
MODEL 4
REMARK VINA RESULT:      -6.2      1.150      1.218
REMARK  6 active torsions:
REMARK  status: ('A' for Active; 'I' for Inactive)
REMARK    1  A    between atoms: O1_2  and  C2_3 
REMARK    2  A    between atoms: C6_9  and  N3_10 
REMARK    3  A    between atoms: N4_11  and  C7_12 
REMARK    4  A    between atoms: C8_13  and  C9_14 
REMARK    5  A    between atoms: C12_18  and  O2_19 
REMARK    6  A    between atoms: O2_19  and  P1_20 
ROOT
HETATM    1  C2  UNL     1      22.472   2.687  52.008  1.00  0.00     0.104 A 
HETATM    2  C3  UNL     1      22.586   1.419  52.513  1.00  0.00     0.072 A 
HETATM    3  C4  UNL     1      23.744   1.007  53.144  1.00  0.00     0.075 A 
HETATM    4  N1  UNL     1      23.817  -0.246  53.627  1.00  0.00    -0.241 NA
HETATM    5  C5  UNL     1      24.897  -0.704  54.241  1.00  0.00     0.236 A 
HETATM    6  N2  UNL     1      25.983   0.077  54.411  1.00  0.00    -0.220 NA
HETATM    7  C6  UNL     1      25.961   1.355  53.941  1.00  0.00     0.185 A 
HETATM    8  C10 UNL     1      24.827   1.848  53.291  1.00  0.00     0.045 A 
HETATM    9  C11 UNL     1      24.727   3.127  52.788  1.00  0.00     0.057 A 
HETATM   10  C12 UNL     1      23.569   3.533  52.160  1.00  0.00     0.107 A 
ENDROOT
BRANCH   7  11
HETATM   11  N3  UNL     1      27.079   2.220  54.094  1.00  0.00    -0.130 NA
HETATM   12  N4  UNL     1      28.277   1.861  54.057  1.00  0.00    -0.161 NA
BRANCH  12  13
HETATM   13  C7  UNL     1      28.724   0.529  53.856  1.00  0.00     0.139 C 
HETATM   14  C8  UNL     1      29.457  -0.571  53.982  1.00  0.00     0.025 C 
BRANCH  14  15
HETATM   15  C9  UNL     1      29.147  -1.820  53.209  1.00  0.00     0.251 C 
HETATM   16  F1  UNL     1      29.843  -2.901  53.730  1.00  0.00    -0.251 F 
ENDBRANCH  14  15
ENDBRANCH  12  13
ENDBRANCH   7  11
BRANCH  10  17
HETATM   17  O2  UNL     1      23.577   4.843  51.689  1.00  0.00    -0.327 OA
BRANCH  17  18
HETATM   18  P1  UNL     1      24.284   5.346  50.178  1.00  0.00     0.009 P 
HETATM   19  H11 UNL     1      23.429   6.335  49.537  1.00  0.00     0.085 HD
HETATM   20  H12 UNL     1      25.582   5.942  50.449  1.00  0.00     0.085 HD
ENDBRANCH  17  18
ENDBRANCH  10  17
BRANCH   1  21
HETATM   21  O1  UNL     1      21.396   3.262  51.353  1.00  0.00    -0.353 OA
HETATM   22  C1  UNL     1      20.176   3.394  52.053  1.00  0.00     0.210 C 
ENDBRANCH   1  21
TORSDOF 6
ENDMDL
MODEL 5
REMARK VINA RESULT:      -6.0      3.812      5.660
REMARK  6 active torsions:
REMARK  status: ('A' for Active; 'I' for Inactive)
REMARK    1  A    between atoms: O1_2  and  C2_3 
REMARK    2  A    between atoms: C6_9  and  N3_10 
REMARK    3  A    between atoms: N4_11  and  C7_12 
REMARK    4  A    between atoms: C8_13  and  C9_14 
REMARK    5  A    between atoms: C12_18  and  O2_19 
REMARK    6  A    between atoms: O2_19  and  P1_20 
ROOT
HETATM    1  C2  UNL     1      25.739  -0.407  53.220  1.00  0.00     0.104 A 
HETATM    2  C3  UNL     1      24.391  -0.592  53.375  1.00  0.00     0.072 A 
HETATM    3  C4  UNL     1      23.498   0.426  53.101  1.00  0.00     0.075 A 
HETATM    4  N1  UNL     1      22.181   0.206  53.267  1.00  0.00    -0.241 NA
HETATM    5  C5  UNL     1      21.273   1.138  53.022  1.00  0.00     0.236 A 
HETATM    6  N2  UNL     1      21.635   2.363  52.591  1.00  0.00    -0.220 NA
HETATM    7  C6  UNL     1      22.956   2.639  52.407  1.00  0.00     0.185 A 
HETATM    8  C10 UNL     1      23.922   1.663  52.662  1.00  0.00     0.045 A 
HETATM    9  C11 UNL     1      25.276   1.864  52.500  1.00  0.00     0.057 A 
HETATM   10  C12 UNL     1      26.162   0.844  52.775  1.00  0.00     0.107 A 
ENDROOT
BRANCH   7  11
HETATM   11  N3  UNL     1      23.390   3.914  51.955  1.00  0.00    -0.130 NA
HETATM   12  N4  UNL     1      23.431   4.279  50.758  1.00  0.00    -0.161 NA
BRANCH  12  13
HETATM   13  C7  UNL     1      23.050   3.480  49.648  1.00  0.00     0.139 C 
HETATM   14  C8  UNL     1      23.144   2.613  48.647  1.00  0.00     0.025 C 
BRANCH  14  15
HETATM   15  C9  UNL     1      21.966   2.281  47.777  1.00  0.00     0.251 C 
HETATM   16  F1  UNL     1      21.365   1.105  48.199  1.00  0.00    -0.251 F 
ENDBRANCH  14  15
ENDBRANCH  12  13
ENDBRANCH   7  11
BRANCH  10  17
HETATM   17  O2  UNL     1      27.505   1.156  52.579  1.00  0.00    -0.327 OA
BRANCH  17  18
HETATM   18  P1  UNL     1      28.454   2.151  53.647  1.00  0.00     0.009 P 
HETATM   19  H11 UNL     1      27.581   2.853  54.578  1.00  0.00     0.085 HD
HETATM   20  H12 UNL     1      29.359   1.295  54.397  1.00  0.00     0.085 HD
ENDBRANCH  17  18
ENDBRANCH  10  17
BRANCH   1  21
HETATM   21  O1  UNL     1      26.766  -1.309  53.446  1.00  0.00    -0.353 OA
HETATM   22  C1  UNL     1      27.007  -2.308  52.477  1.00  0.00     0.210 C 
ENDBRANCH   1  21
TORSDOF 6
ENDMDL
MODEL 6
REMARK VINA RESULT:      -6.0      3.624      6.142
REMARK  6 active torsions:
REMARK  status: ('A' for Active; 'I' for Inactive)
REMARK    1  A    between atoms: O1_2  and  C2_3 
REMARK    2  A    between atoms: C6_9  and  N3_10 
REMARK    3  A    between atoms: N4_11  and  C7_12 
REMARK    4  A    between atoms: C8_13  and  C9_14 
REMARK    5  A    between atoms: C12_18  and  O2_19 
REMARK    6  A    between atoms: O2_19  and  P1_20 
ROOT
HETATM    1  C2  UNL     1      26.262  -0.198  52.856  1.00  0.00     0.104 A 
HETATM    2  C3  UNL     1      25.364  -0.824  53.678  1.00  0.00     0.072 A 
HETATM    3  C4  UNL     1      24.055  -0.389  53.763  1.00  0.00     0.075 A 
HETATM    4  N1  UNL     1      23.203  -1.030  54.583  1.00  0.00    -0.241 NA
HETATM    5  C5  UNL     1      21.937  -0.665  54.710  1.00  0.00     0.236 A 
HETATM    6  N2  UNL     1      21.441   0.378  54.015  1.00  0.00    -0.220 NA
HETATM    7  C6  UNL     1      22.262   1.061  53.169  1.00  0.00     0.185 A 
HETATM    8  C10 UNL     1      23.600   0.685  53.027  1.00  0.00     0.045 A 
HETATM    9  C11 UNL     1      24.492   1.325  52.194  1.00  0.00     0.057 A 
HETATM   10  C12 UNL     1      25.796   0.886  52.114  1.00  0.00     0.107 A 
ENDROOT
BRANCH   7  11
HETATM   11  N3  UNL     1      21.791   2.169  52.413  1.00  0.00    -0.130 NA
HETATM   12  N4  UNL     1      20.699   2.211  51.802  1.00  0.00    -0.161 NA
BRANCH  12  13
HETATM   13  C7  UNL     1      19.746   1.160  51.760  1.00  0.00     0.139 C 
HETATM   14  C8  UNL     1      18.976   0.196  51.269  1.00  0.00     0.025 C 
BRANCH  14  15
HETATM   15  C9  UNL     1      18.049  -0.596  52.144  1.00  0.00     0.251 C 
HETATM   16  F1  UNL     1      18.765  -1.303  53.099  1.00  0.00    -0.251 F 
ENDBRANCH  14  15
ENDBRANCH  12  13
ENDBRANCH   7  11
BRANCH  10  17
HETATM   17  O2  UNL     1      26.612   1.605  51.244  1.00  0.00    -0.327 OA
BRANCH  17  18
HETATM   18  P1  UNL     1      26.161   3.104  50.479  1.00  0.00     0.009 P 
HETATM   19  H11 UNL     1      24.775   3.037  50.036  1.00  0.00     0.085 HD
HETATM   20  H12 UNL     1      26.299   4.179  51.449  1.00  0.00     0.085 HD
ENDBRANCH  17  18
ENDBRANCH  10  17
BRANCH   1  21
HETATM   21  O1  UNL     1      27.598  -0.498  52.649  1.00  0.00    -0.353 OA
HETATM   22  C1  UNL     1      28.486  -0.394  53.743  1.00  0.00     0.210 C 
ENDBRANCH   1  21
TORSDOF 6
ENDMDL
MODEL 7
REMARK VINA RESULT:      -5.9      2.831      3.634
REMARK  6 active torsions:
REMARK  status: ('A' for Active; 'I' for Inactive)
REMARK    1  A    between atoms: O1_2  and  C2_3 
REMARK    2  A    between atoms: C6_9  and  N3_10 
REMARK    3  A    between atoms: N4_11  and  C7_12 
REMARK    4  A    between atoms: C8_13  and  C9_14 
REMARK    5  A    between atoms: C12_18  and  O2_19 
REMARK    6  A    between atoms: O2_19  and  P1_20 
ROOT
HETATM    1  C2  UNL     1      21.682   2.734  52.497  1.00  0.00     0.104 A 
HETATM    2  C3  UNL     1      22.805   3.237  51.896  1.00  0.00     0.072 A 
HETATM    3  C4  UNL     1      23.978   2.509  51.861  1.00  0.00     0.075 A 
HETATM    4  N1  UNL     1      25.060   3.037  51.261  1.00  0.00    -0.241 NA
HETATM    5  C5  UNL     1      26.214   2.392  51.192  1.00  0.00     0.236 A 
HETATM    6  N2  UNL     1      26.356   1.162  51.727  1.00  0.00    -0.220 NA
HETATM    7  C6  UNL     1      25.290   0.581  52.345  1.00  0.00     0.185 A 
HETATM    8  C10 UNL     1      24.068   1.253  52.424  1.00  0.00     0.045 A 
HETATM    9  C11 UNL     1      22.946   0.733  53.032  1.00  0.00     0.057 A 
HETATM   10  C12 UNL     1      21.778   1.465  53.064  1.00  0.00     0.107 A 
ENDROOT
BRANCH   7  11
HETATM   11  N3  UNL     1      25.386  -0.713  52.925  1.00  0.00    -0.130 NA
HETATM   12  N4  UNL     1      26.314  -1.102  53.669  1.00  0.00    -0.161 NA
BRANCH  12  13
HETATM   13  C7  UNL     1      27.430  -0.317  54.060  1.00  0.00     0.139 C 
HETATM   14  C8  UNL     1      28.276   0.342  54.844  1.00  0.00     0.025 C 
BRANCH  14  15
HETATM   15  C9  UNL     1      29.473   1.058  54.288  1.00  0.00     0.251 C 
HETATM   16  F1  UNL     1      30.074   0.301  53.293  1.00  0.00    -0.251 F 
ENDBRANCH  14  15
ENDBRANCH  12  13
ENDBRANCH   7  11
BRANCH  10  17
HETATM   17  O2  UNL     1      20.707   0.846  53.703  1.00  0.00    -0.327 OA
BRANCH  17  18
HETATM   18  P1  UNL     1      19.542  -0.179  52.911  1.00  0.00     0.009 P 
HETATM   19  H11 UNL     1      18.690  -0.819  53.904  1.00  0.00     0.085 HD
HETATM   20  H12 UNL     1      18.721   0.643  52.036  1.00  0.00     0.085 HD
ENDBRANCH  17  18
ENDBRANCH  10  17
BRANCH   1  21
HETATM   21  O1  UNL     1      20.434   3.322  52.624  1.00  0.00    -0.353 OA
HETATM   22  C1  UNL     1      19.848   3.908  51.480  1.00  0.00     0.210 C 
ENDBRANCH   1  21
TORSDOF 6
ENDMDL
MODEL 8
REMARK VINA RESULT:      -5.7      3.497      5.902
REMARK  6 active torsions:
REMARK  status: ('A' for Active; 'I' for Inactive)
REMARK    1  A    between atoms: O1_2  and  C2_3 
REMARK    2  A    between atoms: C6_9  and  N3_10 
REMARK    3  A    between atoms: N4_11  and  C7_12 
REMARK    4  A    between atoms: C8_13  and  C9_14 
REMARK    5  A    between atoms: C12_18  and  O2_19 
REMARK    6  A    between atoms: O2_19  and  P1_20 
ROOT
HETATM    1  C2  UNL     1      24.987   0.298  53.140  1.00  0.00     0.104 A 
HETATM    2  C3  UNL     1      24.086  -0.676  53.480  1.00  0.00     0.072 A 
HETATM    3  C4  UNL     1      22.732  -0.406  53.527  1.00  0.00     0.075 A 
HETATM    4  N1  UNL     1      21.879  -1.389  53.865  1.00  0.00    -0.241 NA
HETATM    5  C5  UNL     1      20.570  -1.198  53.929  1.00  0.00     0.236 A 
HETATM    6  N2  UNL     1      20.030   0.007  53.653  1.00  0.00    -0.220 NA
HETATM    7  C6  UNL     1      20.850   1.037  53.304  1.00  0.00     0.185 A 
HETATM    8  C10 UNL     1      22.232   0.846  53.234  1.00  0.00     0.045 A 
HETATM    9  C11 UNL     1      23.127   1.836  52.890  1.00  0.00     0.057 A 
HETATM   10  C12 UNL     1      24.477   1.561  52.845  1.00  0.00     0.107 A 
ENDROOT
BRANCH   7  11
HETATM   11  N3  UNL     1      20.333   2.326  53.004  1.00  0.00    -0.130 NA
HETATM   12  N4  UNL     1      20.171   2.787  51.851  1.00  0.00    -0.161 NA
BRANCH  12  13
HETATM   13  C7  UNL     1      20.475   2.100  50.648  1.00  0.00     0.139 C 
HETATM   14  C8  UNL     1      20.301   1.372  49.550  1.00  0.00     0.025 C 
BRANCH  14  15
HETATM   15  C9  UNL     1      21.441   1.047  48.629  1.00  0.00     0.251 C 
HETATM   16  F1  UNL     1      22.611   1.645  49.073  1.00  0.00    -0.251 F 
ENDBRANCH  14  15
ENDBRANCH  12  13
ENDBRANCH   7  11
BRANCH  10  17
HETATM   17  O2  UNL     1      25.289   2.633  52.487  1.00  0.00    -0.327 OA
BRANCH  17  18
HETATM   18  P1  UNL     1      25.621   3.117  50.846  1.00  0.00     0.009 P 
HETATM   19  H11 UNL     1      24.599   2.584  49.957  1.00  0.00     0.085 HD
HETATM   20  H12 UNL     1      25.603   4.569  50.778  1.00  0.00     0.085 HD
ENDBRANCH  17  18
ENDBRANCH  10  17
BRANCH   1  21
HETATM   21  O1  UNL     1      26.365   0.204  53.044  1.00  0.00    -0.353 OA
HETATM   22  C1  UNL     1      27.121   0.179  54.237  1.00  0.00     0.210 C 
ENDBRANCH   1  21
TORSDOF 6
ENDMDL
MODEL 9
REMARK VINA RESULT:      -5.7      4.533      6.006
REMARK  6 active torsions:
REMARK  status: ('A' for Active; 'I' for Inactive)
REMARK    1  A    between atoms: O1_2  and  C2_3 
REMARK    2  A    between atoms: C6_9  and  N3_10 
REMARK    3  A    between atoms: N4_11  and  C7_12 
REMARK    4  A    between atoms: C8_13  and  C9_14 
REMARK    5  A    between atoms: C12_18  and  O2_19 
REMARK    6  A    between atoms: O2_19  and  P1_20 
ROOT
HETATM    1  C2  UNL     1      25.419   0.644  53.345  1.00  0.00     0.104 A 
HETATM    2  C3  UNL     1      24.363   1.399  52.908  1.00  0.00     0.072 A 
HETATM    3  C4  UNL     1      24.491   2.231  51.812  1.00  0.00     0.075 A 
HETATM    4  N1  UNL     1      23.431   2.957  51.413  1.00  0.00    -0.241 NA
HETATM    5  C5  UNL     1      23.486   3.773  50.372  1.00  0.00     0.236 A 
HETATM    6  N2  UNL     1      24.622   3.911  49.657  1.00  0.00    -0.220 NA
HETATM    7  C6  UNL     1      25.724   3.198  50.018  1.00  0.00     0.185 A 
HETATM    8  C10 UNL     1      25.677   2.335  51.116  1.00  0.00     0.045 A 
HETATM    9  C11 UNL     1      26.748   1.580  51.544  1.00  0.00     0.057 A 
HETATM   10  C12 UNL     1      26.614   0.752  52.638  1.00  0.00     0.107 A 
ENDROOT
BRANCH   7  11
HETATM   11  N3  UNL     1      26.945   3.307  49.300  1.00  0.00    -0.130 NA
HETATM   12  N4  UNL     1      27.452   4.379  48.899  1.00  0.00    -0.161 NA
BRANCH  12  13
HETATM   13  C7  UNL     1      26.892   5.669  49.094  1.00  0.00     0.139 C 
HETATM   14  C8  UNL     1      26.467   6.897  48.820  1.00  0.00     0.025 C 
BRANCH  14  15
HETATM   15  C9  UNL     1      25.869   7.780  49.876  1.00  0.00     0.251 C 
HETATM   16  F1  UNL     1      25.409   7.020  50.942  1.00  0.00    -0.251 F 
ENDBRANCH  14  15
ENDBRANCH  12  13
ENDBRANCH   7  11
BRANCH  10  17
HETATM   17  O2  UNL     1      27.758   0.037  52.984  1.00  0.00    -0.327 OA
BRANCH  17  18
HETATM   18  P1  UNL     1      29.062   0.667  53.952  1.00  0.00     0.009 P 
HETATM   19  H11 UNL     1      30.327   0.494  53.251  1.00  0.00     0.085 HD
HETATM   20  H12 UNL     1      28.831   2.086  54.174  1.00  0.00     0.085 HD
ENDBRANCH  17  18
ENDBRANCH  10  17
BRANCH   1  21
HETATM   21  O1  UNL     1      25.467  -0.234  54.415  1.00  0.00    -0.353 OA
HETATM   22  C1  UNL     1      24.281  -0.906  54.787  1.00  0.00     0.210 C 
ENDBRANCH   1  21
TORSDOF 6
ENDMDL
