MODEL 1
REMARK VINA RESULT:      -7.8      0.000      0.000
REMARK  5 active torsions:
REMARK  status: ('A' for Active; 'I' for Inactive)
REMARK    1  A    between atoms: C3_3  and  C4_4 
REMARK    2  A    between atoms: C11_14  and  N3_15 
REMARK    3  A    between atoms: C12_16  and  C13_17 
REMARK    4  A    between atoms: C18_23  and  O2_24 
REMARK    5  A    between atoms: C21_27  and  N5_28 
ROOT
HETATM    1  C4  UNL     1      24.520   1.718  52.032  1.00  0.00     0.033 A 
HETATM    2  C5  UNL     1      23.414   2.248  51.564  1.00  0.00     0.040 A 
HETATM    3  C6  UNL     1      22.535   1.262  50.915  1.00  0.00    -0.053 A 
HETATM    4  O1  UNL     1      23.630   1.115  51.455  1.00  0.00     0.000 OA
HETATM    5  C7  UNL     1      21.307   0.864  50.199  1.00  0.00     0.064 A 
HETATM    6  C8  UNL     1      21.471   0.913  48.704  1.00  0.00     0.001 C 
HETATM    7  C9  UNL     1      21.899   2.000  48.113  1.00  0.00     0.085 C 
HETATM    8  N1  UNL     1      21.385   3.135  48.794  1.00  0.00    -0.360 N 
HETATM    9  C10 UNL     1      21.568   4.558  48.643  1.00  0.00     0.275 C 
HETATM   10  N2  UNL     1      22.863   4.934  49.236  1.00  0.00    -0.253 NA
HETATM   11  C11 UNL     1      23.170   4.456  50.424  1.00  0.00     0.152 C 
HETATM   12  C18 UNL     1      23.134   3.739  51.713  1.00  0.00     0.206 C 
HETATM   13  C20 UNL     1      20.718   2.296  49.699  1.00  0.00     0.060 A 
HETATM   14  C21 UNL     1      19.857   3.295  50.441  1.00  0.00     0.109 A 
HETATM   15  C22 UNL     1      20.084   1.632  50.557  1.00  0.00     0.043 A 
ENDROOT
BRANCH  11  16
HETATM   16  N3  UNL     1      24.307   5.263  50.049  1.00  0.00    -0.242 NA
HETATM   17  C12 UNL     1      25.248   4.633  49.405  1.00  0.00     0.131 C 
BRANCH  17  18
HETATM   18  C13 UNL     1      26.412   5.370  49.000  1.00  0.00    -0.001 A 
HETATM   19  C14 UNL     1      27.628   4.775  48.661  1.00  0.00     0.016 A 
HETATM   20  C15 UNL     1      28.717   5.519  48.280  1.00  0.00     0.020 A 
HETATM   21  C16 UNL     1      28.635   6.903  48.222  1.00  0.00     0.116 A 
HETATM   22  N4  UNL     1      27.473   7.545  48.543  1.00  0.00    -0.272 NA
HETATM   23  C17 UNL     1      26.447   6.744  48.908  1.00  0.00     0.129 A 
ENDBRANCH  17  18
ENDBRANCH  11  16
BRANCH  12  24
HETATM   24  O2  UNL     1      24.179   4.268  52.509  1.00  0.00    -0.382 OA
HETATM   25  C19 UNL     1      23.646   5.008  53.565  1.00  0.00     0.202 C 
ENDBRANCH  12  24
BRANCH   1  26
HETATM   26  C3  UNL     1      25.619   0.847  52.428  1.00  0.00    -0.024 C 
HETATM   27  C2  UNL     1      26.466  -0.121  52.036  1.00  0.00    -0.034 C 
HETATM   28  C1  UNL     1      27.441  -0.617  53.031  1.00  0.00     0.036 C 
ENDBRANCH   1  26
BRANCH  14  29
HETATM   29  N5  UNL     1      19.058   2.684  51.476  1.00  0.00    -0.332 N 
HETATM   30  H23 UNL     1      19.724   2.219  52.146  1.00  0.00     0.118 HD
HETATM   31  H24 UNL     1      18.575   3.456  52.027  1.00  0.00     0.118 HD
ENDBRANCH  14  29
TORSDOF 5
ENDMDL
MODEL 2
REMARK VINA RESULT:      -7.2      8.317     10.732
REMARK  5 active torsions:
REMARK  status: ('A' for Active; 'I' for Inactive)
REMARK    1  A    between atoms: C3_3  and  C4_4 
REMARK    2  A    between atoms: C11_14  and  N3_15 
REMARK    3  A    between atoms: C12_16  and  C13_17 
REMARK    4  A    between atoms: C18_23  and  O2_24 
REMARK    5  A    between atoms: C21_27  and  N5_28 
ROOT
HETATM    1  C4  UNL     1      32.247   4.385  47.183  1.00  0.00     0.033 A 
HETATM    2  C5  UNL     1      32.062   5.662  47.426  1.00  0.00     0.040 A 
HETATM    3  C6  UNL     1      30.647   6.005  47.641  1.00  0.00    -0.053 A 
HETATM    4  O1  UNL     1      31.172   4.921  47.398  1.00  0.00     0.000 OA
HETATM    5  C7  UNL     1      29.551   6.953  47.926  1.00  0.00     0.064 A 
HETATM    6  C8  UNL     1      28.950   7.530  46.673  1.00  0.00     0.001 C 
HETATM    7  C9  UNL     1      29.705   8.108  45.773  1.00  0.00     0.085 C 
HETATM    8  N1  UNL     1      30.758   8.805  46.425  1.00  0.00    -0.360 N 
HETATM    9  C10 UNL     1      31.903   9.547  45.957  1.00  0.00     0.275 C 
HETATM   10  N2  UNL     1      32.947   8.595  45.541  1.00  0.00    -0.253 NA
HETATM   11  C11 UNL     1      33.226   7.584  46.338  1.00  0.00     0.152 C 
HETATM   12  C18 UNL     1      33.237   6.633  47.465  1.00  0.00     0.206 C 
HETATM   13  C20 UNL     1      30.265   8.394  47.672  1.00  0.00     0.060 A 
HETATM   14  C21 UNL     1      31.111   9.227  48.608  1.00  0.00     0.109 A 
HETATM   15  C22 UNL     1      29.903   8.079  48.833  1.00  0.00     0.043 A 
ENDROOT
BRANCH  11  16
HETATM   16  N3  UNL     1      34.109   7.415  45.208  1.00  0.00    -0.242 NA
HETATM   17  C12 UNL     1      33.611   6.744  44.209  1.00  0.00     0.131 C 
BRANCH  17  18
HETATM   18  C13 UNL     1      34.432   6.533  43.049  1.00  0.00    -0.001 A 
HETATM   19  C14 UNL     1      35.568   7.287  42.754  1.00  0.00     0.016 A 
HETATM   20  C15 UNL     1      36.324   7.051  41.633  1.00  0.00     0.020 A 
HETATM   21  C16 UNL     1      35.971   6.040  40.750  1.00  0.00     0.116 A 
HETATM   22  N4  UNL     1      34.869   5.266  40.983  1.00  0.00    -0.272 NA
HETATM   23  C17 UNL     1      34.178   5.561  42.107  1.00  0.00     0.129 A 
ENDBRANCH  17  18
ENDBRANCH  11  16
BRANCH  12  24
HETATM   24  O2  UNL     1      34.409   5.851  47.334  1.00  0.00    -0.382 OA
HETATM   25  C19 UNL     1      35.210   5.999  48.467  1.00  0.00     0.202 C 
ENDBRANCH  12  24
BRANCH   1  26
HETATM   26  C3  UNL     1      32.121   2.954  46.947  1.00  0.00    -0.024 C 
HETATM   27  C2  UNL     1      32.736   1.759  47.006  1.00  0.00    -0.034 C 
HETATM   28  C1  UNL     1      31.965   0.573  46.573  1.00  0.00     0.036 C 
ENDBRANCH   1  26
BRANCH  14  29
HETATM   29  N5  UNL     1      30.817   8.979  49.999  1.00  0.00    -0.332 N 
HETATM   30  H23 UNL     1      30.506   9.894  50.417  1.00  0.00     0.118 HD
HETATM   31  H24 UNL     1      29.978   8.327  50.054  1.00  0.00     0.118 HD
ENDBRANCH  14  29
TORSDOF 5
ENDMDL
MODEL 3
REMARK VINA RESULT:      -6.6      2.773      4.450
REMARK  5 active torsions:
REMARK  status: ('A' for Active; 'I' for Inactive)
REMARK    1  A    between atoms: C3_3  and  C4_4 
REMARK    2  A    between atoms: C11_14  and  N3_15 
REMARK    3  A    between atoms: C12_16  and  C13_17 
REMARK    4  A    between atoms: C18_23  and  O2_24 
REMARK    5  A    between atoms: C21_27  and  N5_28 
ROOT
HETATM    1  C4  UNL     1      24.452   4.199  50.131  1.00  0.00     0.033 A 
HETATM    2  C5  UNL     1      23.310   3.659  50.490  1.00  0.00     0.040 A 
HETATM    3  C6  UNL     1      22.980   2.450  49.718  1.00  0.00    -0.053 A 
HETATM    4  O1  UNL     1      23.957   3.194  49.649  1.00  0.00     0.000 OA
HETATM    5  C7  UNL     1      22.116   1.304  49.374  1.00  0.00     0.064 A 
HETATM    6  C8  UNL     1      21.141   1.627  48.275  1.00  0.00     0.001 C 
HETATM    7  C9  UNL     1      20.347   2.665  48.369  1.00  0.00     0.085 C 
HETATM    8  N1  UNL     1      19.949   2.827  49.723  1.00  0.00    -0.360 N 
HETATM    9  C10 UNL     1      19.157   3.811  50.419  1.00  0.00     0.275 C 
HETATM   10  N2  UNL     1      19.981   5.012  50.638  1.00  0.00    -0.253 NA
HETATM   11  C11 UNL     1      21.205   4.857  51.098  1.00  0.00     0.152 C 
HETATM   12  C18 UNL     1      22.464   4.274  51.600  1.00  0.00     0.206 C 
HETATM   13  C20 UNL     1      20.709   1.705  50.086  1.00  0.00     0.060 A 
HETATM   14  C21 UNL     1      20.260   1.501  51.516  1.00  0.00     0.109 A 
HETATM   15  C22 UNL     1      21.356   0.716  50.510  1.00  0.00     0.043 A 
ENDROOT
BRANCH  11  16
HETATM   16  N3  UNL     1      21.052   6.283  50.939  1.00  0.00    -0.242 NA
HETATM   17  C12 UNL     1      21.092   6.713  49.709  1.00  0.00     0.131 C 
BRANCH  17  18
HETATM   18  C13 UNL     1      20.950   8.121  49.471  1.00  0.00    -0.001 A 
HETATM   19  C14 UNL     1      19.871   8.881  49.925  1.00  0.00     0.016 A 
HETATM   20  C15 UNL     1      19.774  10.227  49.674  1.00  0.00     0.020 A 
HETATM   21  C16 UNL     1      20.763  10.877  48.949  1.00  0.00     0.116 A 
HETATM   22  N4  UNL     1      21.845  10.189  48.476  1.00  0.00    -0.272 NA
HETATM   23  C17 UNL     1      21.867   8.868  48.765  1.00  0.00     0.129 A 
ENDBRANCH  17  18
ENDBRANCH  11  16
BRANCH  12  24
HETATM   24  O2  UNL     1      23.224   5.338  52.142  1.00  0.00    -0.382 OA
HETATM   25  C19 UNL     1      23.618   5.028  53.444  1.00  0.00     0.202 C 
ENDBRANCH  12  24
BRANCH   1  26
HETATM   26  C3  UNL     1      25.725   4.546  49.516  1.00  0.00    -0.024 C 
HETATM   27  C2  UNL     1      26.957   4.114  49.191  1.00  0.00    -0.034 C 
HETATM   28  C1  UNL     1      27.856   5.068  48.506  1.00  0.00     0.036 C 
ENDBRANCH   1  26
BRANCH  14  29
HETATM   29  N5  UNL     1      20.922   0.390  52.157  1.00  0.00    -0.332 N 
HETATM   30  H23 UNL     1      21.729   0.785  52.705  1.00  0.00     0.118 HD
HETATM   31  H24 UNL     1      20.255  -0.032  52.872  1.00  0.00     0.118 HD
ENDBRANCH  14  29
TORSDOF 5
ENDMDL
MODEL 4
REMARK VINA RESULT:      -6.6      2.925      7.467
REMARK  5 active torsions:
REMARK  status: ('A' for Active; 'I' for Inactive)
REMARK    1  A    between atoms: C3_3  and  C4_4 
REMARK    2  A    between atoms: C11_14  and  N3_15 
REMARK    3  A    between atoms: C12_16  and  C13_17 
REMARK    4  A    between atoms: C18_23  and  O2_24 
REMARK    5  A    between atoms: C21_27  and  N5_28 
ROOT
HETATM    1  C4  UNL     1      21.516   4.633  47.519  1.00  0.00     0.033 A 
HETATM    2  C5  UNL     1      22.126   4.963  48.634  1.00  0.00     0.040 A 
HETATM    3  C6  UNL     1      23.523   5.377  48.422  1.00  0.00    -0.053 A 
HETATM    4  O1  UNL     1      22.672   5.012  47.613  1.00  0.00     0.000 OA
HETATM    5  C7  UNL     1      24.841   5.849  48.891  1.00  0.00     0.064 A 
HETATM    6  C8  UNL     1      25.781   4.716  49.201  1.00  0.00     0.001 C 
HETATM    7  C9  UNL     1      25.426   3.757  50.019  1.00  0.00     0.085 C 
HETATM    8  N1  UNL     1      24.627   4.303  51.060  1.00  0.00    -0.360 N 
HETATM    9  C10 UNL     1      23.916   3.732  52.177  1.00  0.00     0.275 C 
HETATM   10  N2  UNL     1      22.662   3.135  51.684  1.00  0.00    -0.253 NA
HETATM   11  C11 UNL     1      21.920   3.836  50.852  1.00  0.00     0.152 C 
HETATM   12  C18 UNL     1      21.401   4.902  49.973  1.00  0.00     0.206 C 
HETATM   13  C20 UNL     1      24.754   5.580  50.494  1.00  0.00     0.060 A 
HETATM   14  C21 UNL     1      24.156   6.442  51.583  1.00  0.00     0.109 A 
HETATM   15  C22 UNL     1      24.809   6.760  50.067  1.00  0.00     0.043 A 
ENDROOT
BRANCH  11  16
HETATM   16  N3  UNL     1      21.203   2.595  51.026  1.00  0.00    -0.242 NA
HETATM   17  C12 UNL     1      20.574   2.470  52.160  1.00  0.00     0.131 C 
BRANCH  17  18
HETATM   18  C13 UNL     1      19.840   1.261  52.406  1.00  0.00    -0.001 A 
HETATM   19  C14 UNL     1      20.223   0.296  53.339  1.00  0.00     0.016 A 
HETATM   20  C15 UNL     1      19.491  -0.847  53.542  1.00  0.00     0.020 A 
HETATM   21  C16 UNL     1      18.333  -1.076  52.812  1.00  0.00     0.116 A 
HETATM   22  N4  UNL     1      17.905  -0.170  51.883  1.00  0.00    -0.272 NA
HETATM   23  C17 UNL     1      18.680   0.929  51.742  1.00  0.00     0.129 A 
ENDBRANCH  17  18
ENDBRANCH  11  16
BRANCH  12  24
HETATM   24  O2  UNL     1      20.053   4.581  49.687  1.00  0.00    -0.382 OA
HETATM   25  C19 UNL     1      19.260   5.725  49.781  1.00  0.00     0.202 C 
ENDBRANCH  12  24
BRANCH   1  26
HETATM   26  C3  UNL     1      21.134   4.340  46.144  1.00  0.00    -0.024 C 
HETATM   27  C2  UNL     1      21.550   3.891  44.946  1.00  0.00    -0.034 C 
HETATM   28  C1  UNL     1      20.553   3.838  43.855  1.00  0.00     0.036 C 
ENDBRANCH   1  26
BRANCH  14  29
HETATM   29  N5  UNL     1      24.141   7.844  51.243  1.00  0.00    -0.332 N 
HETATM   30  H23 UNL     1      23.139   8.105  51.052  1.00  0.00     0.118 HD
HETATM   31  H24 UNL     1      24.434   8.402  52.102  1.00  0.00     0.118 HD
ENDBRANCH  14  29
TORSDOF 5
ENDMDL
MODEL 5
REMARK VINA RESULT:      -6.5      9.194     11.634
REMARK  5 active torsions:
REMARK  status: ('A' for Active; 'I' for Inactive)
REMARK    1  A    between atoms: C3_3  and  C4_4 
REMARK    2  A    between atoms: C11_14  and  N3_15 
REMARK    3  A    between atoms: C12_16  and  C13_17 
REMARK    4  A    between atoms: C18_23  and  O2_24 
REMARK    5  A    between atoms: C21_27  and  N5_28 
ROOT
HETATM    1  C4  UNL     1      34.326   5.628  43.600  1.00  0.00     0.033 A 
HETATM    2  C5  UNL     1      34.105   5.565  44.893  1.00  0.00     0.040 A 
HETATM    3  C6  UNL     1      34.327   4.220  45.447  1.00  0.00    -0.053 A 
HETATM    4  O1  UNL     1      34.442   4.632  44.295  1.00  0.00     0.000 OA
HETATM    5  C7  UNL     1      34.359   3.241  46.552  1.00  0.00     0.064 A 
HETATM    6  C8  UNL     1      33.052   2.514  46.715  1.00  0.00     0.001 C 
HETATM    7  C9  UNL     1      31.930   3.175  46.848  1.00  0.00     0.085 C 
HETATM    8  N1  UNL     1      32.170   4.353  47.606  1.00  0.00    -0.360 N 
HETATM    9  C10 UNL     1      31.348   5.470  48.001  1.00  0.00     0.275 C 
HETATM   10  N2  UNL     1      31.200   6.379  46.851  1.00  0.00    -0.253 NA
HETATM   11  C11 UNL     1      32.277   6.697  46.162  1.00  0.00     0.152 C 
HETATM   12  C18 UNL     1      33.666   6.798  45.675  1.00  0.00     0.206 C 
HETATM   13  C20 UNL     1      33.525   4.010  47.720  1.00  0.00     0.060 A 
HETATM   14  C21 UNL     1      34.000   5.032  48.728  1.00  0.00     0.109 A 
HETATM   15  C22 UNL     1      34.752   3.791  47.878  1.00  0.00     0.043 A 
ENDROOT
BRANCH  11  16
HETATM   16  N3  UNL     1      31.201   7.402  45.507  1.00  0.00    -0.242 NA
HETATM   17  C12 UNL     1      30.615   8.316  46.227  1.00  0.00     0.131 C 
BRANCH  17  18
HETATM   18  C13 UNL     1      29.534   9.059  45.643  1.00  0.00    -0.001 A 
HETATM   19  C14 UNL     1      28.460   8.470  44.973  1.00  0.00     0.016 A 
HETATM   20  C15 UNL     1      27.447   9.219  44.429  1.00  0.00     0.020 A 
HETATM   21  C16 UNL     1      27.465  10.603  44.532  1.00  0.00     0.116 A 
HETATM   22  N4  UNL     1      28.489  11.239  45.176  1.00  0.00    -0.272 NA
HETATM   23  C17 UNL     1      29.447  10.433  45.684  1.00  0.00     0.129 A 
ENDBRANCH  17  18
ENDBRANCH  11  16
BRANCH  12  24
HETATM   24  O2  UNL     1      33.707   7.885  44.770  1.00  0.00    -0.382 OA
HETATM   25  C19 UNL     1      34.438   8.938  45.322  1.00  0.00     0.202 C 
ENDBRANCH  12  24
BRANCH   1  26
HETATM   26  C3  UNL     1      34.642   5.374  42.201  1.00  0.00    -0.024 C 
HETATM   27  C2  UNL     1      34.280   4.724  41.080  1.00  0.00    -0.034 C 
HETATM   28  C1  UNL     1      35.119   4.919  39.878  1.00  0.00     0.036 C 
ENDBRANCH   1  26
BRANCH  14  29
HETATM   29  N5  UNL     1      35.408   4.916  49.022  1.00  0.00    -0.332 N 
HETATM   30  H23 UNL     1      35.513   4.150  49.736  1.00  0.00     0.118 HD
HETATM   31  H24 UNL     1      35.908   4.576  48.146  1.00  0.00     0.118 HD
ENDBRANCH  14  29
TORSDOF 5
ENDMDL
MODEL 6
REMARK VINA RESULT:      -6.5      5.193      9.529
REMARK  5 active torsions:
REMARK  status: ('A' for Active; 'I' for Inactive)
REMARK    1  A    between atoms: C3_3  and  C4_4 
REMARK    2  A    between atoms: C11_14  and  N3_15 
REMARK    3  A    between atoms: C12_16  and  C13_17 
REMARK    4  A    between atoms: C18_23  and  O2_24 
REMARK    5  A    between atoms: C21_27  and  N5_28 
ROOT
HETATM    1  C4  UNL     1      27.734   6.154  48.141  1.00  0.00     0.033 A 
HETATM    2  C5  UNL     1      28.881   6.620  47.706  1.00  0.00     0.040 A 
HETATM    3  C6  UNL     1      30.039   5.893  48.250  1.00  0.00    -0.053 A 
HETATM    4  O1  UNL     1      28.836   5.725  48.440  1.00  0.00     0.000 OA
HETATM    5  C7  UNL     1      31.487   5.642  48.392  1.00  0.00     0.064 A 
HETATM    6  C8  UNL     1      32.092   6.399  49.544  1.00  0.00     0.001 C 
HETATM    7  C9  UNL     1      31.936   7.694  49.650  1.00  0.00     0.085 C 
HETATM    8  N1  UNL     1      31.951   8.273  48.352  1.00  0.00    -0.360 N 
HETATM    9  C10 UNL     1      31.760   9.614  47.855  1.00  0.00     0.275 C 
HETATM   10  N2  UNL     1      30.318   9.914  47.847  1.00  0.00    -0.253 NA
HETATM   11  C11 UNL     1      29.495   9.015  47.350  1.00  0.00     0.152 C 
HETATM   12  C18 UNL     1      28.934   7.796  46.736  1.00  0.00     0.206 C 
HETATM   13  C20 UNL     1      32.136   7.005  47.783  1.00  0.00     0.060 A 
HETATM   14  C21 UNL     1      32.430   7.372  46.345  1.00  0.00     0.109 A 
HETATM   15  C22 UNL     1      32.303   5.917  47.178  1.00  0.00     0.043 A 
ENDROOT
BRANCH  11  16
HETATM   16  N3  UNL     1      28.641  10.102  47.767  1.00  0.00    -0.242 NA
HETATM   17  C12 UNL     1      28.681  11.161  47.010  1.00  0.00     0.131 C 
BRANCH  17  18
HETATM   18  C13 UNL     1      27.860  12.286  47.363  1.00  0.00    -0.001 A 
HETATM   19  C14 UNL     1      28.183  13.609  47.058  1.00  0.00     0.016 A 
HETATM   20  C15 UNL     1      27.369  14.655  47.415  1.00  0.00     0.020 A 
HETATM   21  C16 UNL     1      26.186  14.419  48.100  1.00  0.00     0.116 A 
HETATM   22  N4  UNL     1      25.813  13.146  48.429  1.00  0.00    -0.272 NA
HETATM   23  C17 UNL     1      26.668  12.172  48.042  1.00  0.00     0.129 A 
ENDBRANCH  17  18
ENDBRANCH  11  16
BRANCH  12  24
HETATM   24  O2  UNL     1      27.594   8.089  46.385  1.00  0.00    -0.382 OA
HETATM   25  C19 UNL     1      27.503   8.333  45.015  1.00  0.00     0.202 C 
ENDBRANCH  12  24
BRANCH   1  26
HETATM   26  C3  UNL     1      26.655   5.424  48.793  1.00  0.00    -0.024 C 
HETATM   27  C2  UNL     1      26.298   4.282  49.408  1.00  0.00    -0.034 C 
HETATM   28  C1  UNL     1      24.902   4.171  49.882  1.00  0.00     0.036 C 
ENDBRANCH   1  26
BRANCH  14  29
HETATM   29  N5  UNL     1      32.646   6.218  45.506  1.00  0.00    -0.332 N 
HETATM   30  H23 UNL     1      31.876   5.532  45.720  1.00  0.00     0.118 HD
HETATM   31  H24 UNL     1      32.509   6.509  44.491  1.00  0.00     0.118 HD
ENDBRANCH  14  29
TORSDOF 5
ENDMDL
MODEL 7
REMARK VINA RESULT:      -6.5      3.367      5.365
REMARK  5 active torsions:
REMARK  status: ('A' for Active; 'I' for Inactive)
REMARK    1  A    between atoms: C3_3  and  C4_4 
REMARK    2  A    between atoms: C11_14  and  N3_15 
REMARK    3  A    between atoms: C12_16  and  C13_17 
REMARK    4  A    between atoms: C18_23  and  O2_24 
REMARK    5  A    between atoms: C21_27  and  N5_28 
ROOT
HETATM    1  C4  UNL     1      27.633   5.815  48.750  1.00  0.00     0.033 A 
HETATM    2  C5  UNL     1      26.450   5.935  49.308  1.00  0.00     0.040 A 
HETATM    3  C6  UNL     1      25.839   4.638  49.640  1.00  0.00    -0.053 A 
HETATM    4  O1  UNL     1      26.923   4.894  49.119  1.00  0.00     0.000 OA
HETATM    5  C7  UNL     1      24.755   3.794  50.181  1.00  0.00     0.064 A 
HETATM    6  C8  UNL     1      23.757   3.395  49.128  1.00  0.00     0.001 C 
HETATM    7  C9  UNL     1      23.174   4.299  48.381  1.00  0.00     0.085 C 
HETATM    8  N1  UNL     1      22.939   5.465  49.158  1.00  0.00    -0.360 N 
HETATM    9  C10 UNL     1      22.404   6.772  48.860  1.00  0.00     0.275 C 
HETATM   10  N2  UNL     1      23.447   7.568  48.191  1.00  0.00    -0.253 NA
HETATM   11  C11 UNL     1      24.660   7.567  48.703  1.00  0.00     0.152 C 
HETATM   12  C18 UNL     1      25.835   7.307  49.557  1.00  0.00     0.206 C 
HETATM   13  C20 UNL     1      23.514   4.843  50.275  1.00  0.00     0.060 A 
HETATM   14  C21 UNL     1      23.170   5.832  51.367  1.00  0.00     0.109 A 
HETATM   15  C22 UNL     1      24.010   4.375  51.330  1.00  0.00     0.043 A 
ENDROOT
BRANCH  11  16
HETATM   16  N3  UNL     1      24.753   8.423  47.545  1.00  0.00    -0.242 NA
HETATM   17  C12 UNL     1      24.949   7.808  46.413  1.00  0.00     0.131 C 
BRANCH  17  18
HETATM   18  C13 UNL     1      25.054   8.593  45.216  1.00  0.00    -0.001 A 
HETATM   19  C14 UNL     1      24.681   8.135  43.951  1.00  0.00     0.016 A 
HETATM   20  C15 UNL     1      24.799   8.920  42.832  1.00  0.00     0.020 A 
HETATM   21  C16 UNL     1      25.302  10.210  42.930  1.00  0.00     0.116 A 
HETATM   22  N4  UNL     1      25.685  10.717  44.140  1.00  0.00    -0.272 NA
HETATM   23  C17 UNL     1      25.538   9.882  45.194  1.00  0.00     0.129 A 
ENDBRANCH  17  18
ENDBRANCH  11  16
BRANCH  12  24
HETATM   24  O2  UNL     1      26.821   8.260  49.204  1.00  0.00    -0.382 OA
HETATM   25  C19 UNL     1      27.081   9.101  50.288  1.00  0.00     0.202 C 
ENDBRANCH  12  24
BRANCH   1  26
HETATM   26  C3  UNL     1      28.886   5.356  48.167  1.00  0.00    -0.024 C 
HETATM   27  C2  UNL     1      30.189   5.629  47.974  1.00  0.00    -0.034 C 
HETATM   28  C1  UNL     1      30.989   4.641  47.220  1.00  0.00     0.036 C 
ENDBRANCH   1  26
BRANCH  14  29
HETATM   29  N5  UNL     1      23.677   5.437  52.660  1.00  0.00    -0.332 N 
HETATM   30  H23 UNL     1      24.106   6.293  53.098  1.00  0.00     0.118 HD
HETATM   31  H24 UNL     1      22.852   5.170  53.277  1.00  0.00     0.118 HD
ENDBRANCH  14  29
TORSDOF 5
ENDMDL
MODEL 8
REMARK VINA RESULT:      -6.3      3.352      7.609
REMARK  5 active torsions:
REMARK  status: ('A' for Active; 'I' for Inactive)
REMARK    1  A    between atoms: C3_3  and  C4_4 
REMARK    2  A    between atoms: C11_14  and  N3_15 
REMARK    3  A    between atoms: C12_16  and  C13_17 
REMARK    4  A    between atoms: C18_23  and  O2_24 
REMARK    5  A    between atoms: C21_27  and  N5_28 
ROOT
HETATM    1  C4  UNL     1      21.344   0.905  52.428  1.00  0.00     0.033 A 
HETATM    2  C5  UNL     1      21.173   1.749  51.437  1.00  0.00     0.040 A 
HETATM    3  C6  UNL     1      22.378   2.544  51.147  1.00  0.00    -0.053 A 
HETATM    4  O1  UNL     1      22.187   1.673  51.993  1.00  0.00     0.000 OA
HETATM    5  C7  UNL     1      23.128   3.570  50.396  1.00  0.00     0.064 A 
HETATM    6  C8  UNL     1      23.025   4.933  51.024  1.00  0.00     0.001 C 
HETATM    7  C9  UNL     1      21.858   5.461  51.292  1.00  0.00     0.085 C 
HETATM    8  N1  UNL     1      20.935   5.092  50.277  1.00  0.00    -0.360 N 
HETATM    9  C10 UNL     1      19.523   5.315  50.082  1.00  0.00     0.275 C 
HETATM   10  N2  UNL     1      18.774   4.382  50.941  1.00  0.00    -0.253 NA
HETATM   11  C11 UNL     1      19.140   3.117  50.960  1.00  0.00     0.152 C 
HETATM   12  C18 UNL     1      19.838   1.843  50.706  1.00  0.00     0.206 C 
HETATM   13  C20 UNL     1      21.940   4.368  49.619  1.00  0.00     0.060 A 
HETATM   14  C21 UNL     1      21.253   4.038  48.313  1.00  0.00     0.109 A 
HETATM   15  C22 UNL     1      22.768   3.695  48.957  1.00  0.00     0.043 A 
ENDROOT
BRANCH  11  16
HETATM   16  N3  UNL     1      18.024   3.189  51.873  1.00  0.00    -0.242 NA
HETATM   17  C12 UNL     1      16.862   3.387  51.317  1.00  0.00     0.131 C 
BRANCH  17  18
HETATM   18  C13 UNL     1      15.704   3.472  52.162  1.00  0.00    -0.001 A 
HETATM   19  C14 UNL     1      14.714   2.491  52.225  1.00  0.00     0.016 A 
HETATM   20  C15 UNL     1      13.622   2.614  53.047  1.00  0.00     0.020 A 
HETATM   21  C16 UNL     1      13.473   3.736  53.850  1.00  0.00     0.116 A 
HETATM   22  N4  UNL     1      14.408   4.732  53.834  1.00  0.00    -0.272 NA
HETATM   23  C17 UNL     1      15.452   4.537  52.999  1.00  0.00     0.129 A 
ENDBRANCH  17  18
ENDBRANCH  11  16
BRANCH  12  24
HETATM   24  O2  UNL     1      19.021   0.812  51.229  1.00  0.00    -0.382 OA
HETATM   25  C19 UNL     1      18.270   0.233  50.205  1.00  0.00     0.202 C 
ENDBRANCH  12  24
BRANCH   1  26
HETATM   26  C3  UNL     1      21.841   0.099  53.535  1.00  0.00    -0.024 C 
HETATM   27  C2  UNL     1      22.578  -0.969  53.889  1.00  0.00    -0.034 C 
HETATM   28  C1  UNL     1      22.691  -1.271  55.332  1.00  0.00     0.036 C 
ENDBRANCH   1  26
BRANCH  14  29
HETATM   29  N5  UNL     1      22.082   3.255  47.427  1.00  0.00    -0.332 N 
HETATM   30  H23 UNL     1      23.080   3.537  47.607  1.00  0.00     0.118 HD
HETATM   31  H24 UNL     1      22.006   2.232  47.713  1.00  0.00     0.118 HD
ENDBRANCH  14  29
TORSDOF 5
ENDMDL
MODEL 9
REMARK VINA RESULT:      -6.1      3.098      5.363
REMARK  5 active torsions:
REMARK  status: ('A' for Active; 'I' for Inactive)
REMARK    1  A    between atoms: C3_3  and  C4_4 
REMARK    2  A    between atoms: C11_14  and  N3_15 
REMARK    3  A    between atoms: C12_16  and  C13_17 
REMARK    4  A    between atoms: C18_23  and  O2_24 
REMARK    5  A    between atoms: C21_27  and  N5_28 
ROOT
HETATM    1  C4  UNL     1      26.466   5.372  48.998  1.00  0.00     0.033 A 
HETATM    2  C5  UNL     1      25.298   5.237  49.582  1.00  0.00     0.040 A 
HETATM    3  C6  UNL     1      25.267   4.133  50.556  1.00  0.00    -0.053 A 
HETATM    4  O1  UNL     1      26.184   4.537  49.842  1.00  0.00     0.000 OA
HETATM    5  C7  UNL     1      24.599   3.283  51.561  1.00  0.00     0.064 A 
HETATM    6  C8  UNL     1      23.970   2.059  50.953  1.00  0.00     0.001 C 
HETATM    7  C9  UNL     1      23.132   2.164  49.952  1.00  0.00     0.085 C 
HETATM    8  N1  UNL     1      22.350   3.339  50.118  1.00  0.00    -0.360 N 
HETATM    9  C10 UNL     1      21.342   3.988  49.317  1.00  0.00     0.275 C 
HETATM   10  N2  UNL     1      22.006   4.724  48.227  1.00  0.00    -0.253 NA
HETATM   11  C11 UNL     1      23.049   5.471  48.521  1.00  0.00     0.152 C 
HETATM   12  C18 UNL     1      24.136   6.164  49.239  1.00  0.00     0.206 C 
HETATM   13  C20 UNL     1      23.027   3.625  51.313  1.00  0.00     0.060 A 
HETATM   14  C21 UNL     1      22.194   4.766  51.852  1.00  0.00     0.109 A 
HETATM   15  C22 UNL     1      23.572   3.968  52.392  1.00  0.00     0.043 A 
ENDROOT
BRANCH  11  16
HETATM   16  N3  UNL     1      22.879   5.625  47.096  1.00  0.00    -0.242 NA
HETATM   17  C12 UNL     1      21.956   6.470  46.734  1.00  0.00     0.131 C 
BRANCH  17  18
HETATM   18  C13 UNL     1      21.726   6.675  45.332  1.00  0.00    -0.001 A 
HETATM   19  C14 UNL     1      22.688   7.173  44.451  1.00  0.00     0.016 A 
HETATM   20  C15 UNL     1      22.425   7.354  43.117  1.00  0.00     0.020 A 
HETATM   21  C16 UNL     1      21.176   7.040  42.600  1.00  0.00     0.116 A 
HETATM   22  N4  UNL     1      20.191   6.549  43.410  1.00  0.00    -0.272 NA
HETATM   23  C17 UNL     1      20.528   6.400  44.711  1.00  0.00     0.129 A 
ENDBRANCH  17  18
ENDBRANCH  11  16
BRANCH  12  24
HETATM   24  O2  UNL     1      24.652   7.146  48.360  1.00  0.00    -0.382 OA
HETATM   25  C19 UNL     1      24.401   8.421  48.870  1.00  0.00     0.202 C 
ENDBRANCH  12  24
BRANCH   1  26
HETATM   26  C3  UNL     1      27.844   5.261  48.542  1.00  0.00    -0.024 C 
HETATM   27  C2  UNL     1      28.943   5.931  48.150  1.00  0.00    -0.034 C 
HETATM   28  C1  UNL     1      30.133   5.134  47.782  1.00  0.00     0.036 C 
ENDBRANCH   1  26
BRANCH  14  29
HETATM   29  N5  UNL     1      22.695   5.284  53.103  1.00  0.00    -0.332 N 
HETATM   30  H23 UNL     1      22.888   6.308  52.958  1.00  0.00     0.118 HD
HETATM   31  H24 UNL     1      21.916   5.228  53.826  1.00  0.00     0.118 HD
ENDBRANCH  14  29
TORSDOF 5
ENDMDL
