MODEL 1
REMARK VINA RESULT:      -9.8      0.000      0.000
REMARK  5 active torsions:
REMARK  status: ('A' for Active; 'I' for Inactive)
REMARK    1  A    between atoms: C2_2  and  N1_3 
REMARK    2  A    between atoms: N2_6  and  C5_7 
REMARK    3  A    between atoms: C8_10  and  C9_11 
REMARK    4  A    between atoms: C12_14  and  C13_15 
REMARK    5  A    between atoms: C13_15  and  C15_17 
ROOT
HETATM    1  C9  UNL     1      24.998   4.655  49.847  1.00  0.00     0.058 C 
HETATM    2  C10 UNL     1      24.456   3.386  49.483  1.00  0.00     0.042 C 
HETATM    3  C11 UNL     1      23.482   3.346  50.667  1.00  0.00    -0.012 C 
HETATM    4  C12 UNL     1      23.251   2.654  51.777  1.00  0.00     0.038 C 
HETATM    5  N3  UNL     1      23.425   3.844  52.756  1.00  0.00    -0.306 N 
HETATM    6  N4  UNL     1      24.116   5.182  52.338  1.00  0.00    -0.146 NA
HETATM    7  N5  UNL     1      24.219   4.976  50.984  1.00  0.00    -0.290 N 
HETATM    8  C22 UNL     1      22.794   4.769  50.504  1.00  0.00     0.185 C 
HETATM    9  H24 UNL     1      22.970   3.359  53.575  1.00  0.00     0.182 HD
HETATM   10  H25 UNL     1      24.974   5.167  52.892  1.00  0.00     0.173 HD
ENDROOT
BRANCH   1  11
HETATM   11  C8  UNL     1      26.108   5.325  49.276  1.00  0.00    -0.008 A 
HETATM   12  C7  UNL     1      27.153   4.478  49.022  1.00  0.00     0.016 A 
HETATM   13  C6  UNL     1      28.239   5.140  48.488  1.00  0.00     0.030 A 
HETATM   14  C5  UNL     1      28.354   6.482  48.207  1.00  0.00     0.030 A 
HETATM   15  C24 UNL     1      27.230   7.176  48.518  1.00  0.00     0.030 A 
HETATM   16  C23 UNL     1      26.084   6.643  49.053  1.00  0.00     0.016 A 
BRANCH  14  17
HETATM   17  N2  UNL     1      29.470   7.124  47.660  1.00  0.00    -0.378 N 
HETATM   18  C4  UNL     1      29.546   7.733  46.348  1.00  0.00     0.153 C 
HETATM   19  C3  UNL     1      30.246   9.080  46.544  1.00  0.00     0.292 C 
HETATM   20  N1  UNL     1      31.629   8.870  46.863  1.00  0.00     0.091 N 
HETATM   21  C26 UNL     1      31.860   7.612  47.545  1.00  0.00     0.292 C 
HETATM   22  C25 UNL     1      30.693   7.220  48.420  1.00  0.00     0.153 C 
BRANCH  20  23
HETATM   23  C2  UNL     1      32.246   9.982  47.540  1.00  0.00     0.268 C 
HETATM   24  C1  UNL     1      31.293  10.927  48.194  1.00  0.00     0.037 C 
ENDBRANCH  20  23
ENDBRANCH  14  17
ENDBRANCH   1  11
BRANCH   4  25
HETATM   25  C13 UNL     1      23.060   1.257  51.475  1.00  0.00     0.067 C 
HETATM   26  C14 UNL     1      21.889   0.975  50.574  1.00  0.00     0.021 C 
BRANCH  25  27
HETATM   27  C15 UNL     1      22.863   0.485  52.702  1.00  0.00    -0.043 A 
HETATM   28  C16 UNL     1      21.534   0.446  53.141  1.00  0.00     0.008 A 
HETATM   29  C17 UNL     1      21.166  -0.235  54.277  1.00  0.00     0.001 A 
HETATM   30  C18 UNL     1      22.161  -0.875  54.958  1.00  0.00     0.001 A 
HETATM   31  C19 UNL     1      23.492  -0.892  54.603  1.00  0.00     0.007 A 
HETATM   32  C20 UNL     1      23.801  -0.183  53.443  1.00  0.00    -0.055 A 
HETATM   33  C21 UNL     1      25.204  -0.144  53.023  1.00  0.00     0.049 C 
ENDBRANCH  25  27
ENDBRANCH   4  25
TORSDOF 5
ENDMDL
MODEL 2
REMARK VINA RESULT:      -9.3      1.731      2.827
REMARK  5 active torsions:
REMARK  status: ('A' for Active; 'I' for Inactive)
REMARK    1  A    between atoms: C2_2  and  N1_3 
REMARK    2  A    between atoms: N2_6  and  C5_7 
REMARK    3  A    between atoms: C8_10  and  C9_11 
REMARK    4  A    between atoms: C12_14  and  C13_15 
REMARK    5  A    between atoms: C13_15  and  C15_17 
ROOT
HETATM    1  C9  UNL     1      25.838   4.340  49.646  1.00  0.00     0.058 C 
HETATM    2  C10 UNL     1      25.909   2.915  49.686  1.00  0.00     0.042 C 
HETATM    3  C11 UNL     1      24.818   2.787  50.756  1.00  0.00    -0.012 C 
HETATM    4  C12 UNL     1      24.664   2.394  52.017  1.00  0.00     0.038 C 
HETATM    5  N3  UNL     1      24.173   3.761  52.559  1.00  0.00    -0.306 N 
HETATM    6  N4  UNL     1      24.360   5.096  51.768  1.00  0.00    -0.146 NA
HETATM    7  N5  UNL     1      24.792   4.593  50.566  1.00  0.00    -0.290 N 
HETATM    8  C22 UNL     1      23.679   3.675  50.095  1.00  0.00     0.185 C 
HETATM    9  H24 UNL     1      23.792   3.372  53.464  1.00  0.00     0.182 HD
HETATM   10  H25 UNL     1      25.032   5.601  52.347  1.00  0.00     0.173 HD
ENDROOT
BRANCH   1  11
HETATM   11  C8  UNL     1      26.689   5.236  48.955  1.00  0.00    -0.008 A 
HETATM   12  C7  UNL     1      27.918   4.691  48.695  1.00  0.00     0.016 A 
HETATM   13  C6  UNL     1      28.752   5.576  48.043  1.00  0.00     0.030 A 
HETATM   14  C5  UNL     1      28.474   6.866  47.657  1.00  0.00     0.030 A 
HETATM   15  C24 UNL     1      27.214   7.249  47.990  1.00  0.00     0.030 A 
HETATM   16  C23 UNL     1      26.288   6.471  48.637  1.00  0.00     0.016 A 
BRANCH  14  17
HETATM   17  N2  UNL     1      29.340   7.739  46.991  1.00  0.00    -0.378 N 
HETATM   18  C4  UNL     1      29.176   8.241  45.642  1.00  0.00     0.153 C 
HETATM   19  C3  UNL     1      29.490   9.738  45.703  1.00  0.00     0.292 C 
HETATM   20  N1  UNL     1      30.893   9.934  45.933  1.00  0.00     0.091 N 
HETATM   21  C26 UNL     1      31.496   8.843  46.672  1.00  0.00     0.292 C 
HETATM   22  C25 UNL     1      30.529   8.221  47.652  1.00  0.00     0.153 C 
BRANCH  20  23
HETATM   23  C2  UNL     1      31.218  11.220  46.493  1.00  0.00     0.268 C 
HETATM   24  C1  UNL     1      32.519  11.277  47.224  1.00  0.00     0.037 C 
ENDBRANCH  20  23
ENDBRANCH  14  17
ENDBRANCH   1  11
BRANCH   4  25
HETATM   25  C13 UNL     1      25.090   1.026  52.178  1.00  0.00     0.067 C 
HETATM   26  C14 UNL     1      24.229   0.218  53.110  1.00  0.00     0.021 C 
BRANCH  25  27
HETATM   27  C15 UNL     1      26.459   0.968  52.689  1.00  0.00    -0.043 A 
HETATM   28  C16 UNL     1      26.948   2.199  53.144  1.00  0.00     0.008 A 
HETATM   29  C17 UNL     1      28.216   2.330  53.658  1.00  0.00     0.001 A 
HETATM   30  C18 UNL     1      28.978   1.198  53.706  1.00  0.00     0.001 A 
HETATM   31  C19 UNL     1      28.584  -0.052  53.283  1.00  0.00     0.007 A 
HETATM   32  C20 UNL     1      27.289  -0.119  52.771  1.00  0.00    -0.055 A 
HETATM   33  C21 UNL     1      26.816  -1.417  52.283  1.00  0.00     0.049 C 
ENDBRANCH  25  27
ENDBRANCH   4  25
TORSDOF 5
ENDMDL
MODEL 3
REMARK VINA RESULT:      -9.3      1.575      2.377
REMARK  5 active torsions:
REMARK  status: ('A' for Active; 'I' for Inactive)
REMARK    1  A    between atoms: C2_2  and  N1_3 
REMARK    2  A    between atoms: N2_6  and  C5_7 
REMARK    3  A    between atoms: C8_10  and  C9_11 
REMARK    4  A    between atoms: C12_14  and  C13_15 
REMARK    5  A    between atoms: C13_15  and  C15_17 
ROOT
HETATM    1  C9  UNL     1      25.349   6.325  49.966  1.00  0.00     0.058 C 
HETATM    2  C10 UNL     1      25.029   5.088  49.329  1.00  0.00     0.042 C 
HETATM    3  C11 UNL     1      24.002   4.685  50.393  1.00  0.00    -0.012 C 
HETATM    4  C12 UNL     1      23.812   3.764  51.333  1.00  0.00     0.038 C 
HETATM    5  N3  UNL     1      23.743   4.753  52.525  1.00  0.00    -0.306 N 
HETATM    6  N4  UNL     1      24.247   6.229  52.423  1.00  0.00    -0.146 NA
HETATM    7  N5  UNL     1      24.462   6.307  51.069  1.00  0.00    -0.290 N 
HETATM    8  C22 UNL     1      23.117   6.003  50.434  1.00  0.00     0.185 C 
HETATM    9  H24 UNL     1      23.318   4.060  53.198  1.00  0.00     0.182 HD
HETATM   10  H25 UNL     1      25.061   6.226  53.039  1.00  0.00     0.173 HD
ENDROOT
BRANCH   1  11
HETATM   11  C8  UNL     1      26.376   7.240  49.629  1.00  0.00    -0.008 A 
HETATM   12  C7  UNL     1      27.205   6.754  48.654  1.00  0.00     0.016 A 
HETATM   13  C6  UNL     1      28.218   7.639  48.346  1.00  0.00     0.030 A 
HETATM   14  C5  UNL     1      28.449   8.880  48.894  1.00  0.00     0.030 A 
HETATM   15  C24 UNL     1      27.536   9.206  49.844  1.00  0.00     0.030 A 
HETATM   16  C23 UNL     1      26.484   8.421  50.245  1.00  0.00     0.016 A 
BRANCH  14  17
HETATM   17  N2  UNL     1      29.484   9.758  48.557  1.00  0.00    -0.378 N 
HETATM   18  C4  UNL     1      30.883   9.599  48.896  1.00  0.00     0.153 C 
HETATM   19  C3  UNL     1      31.670   9.935  47.626  1.00  0.00     0.292 C 
HETATM   20  N1  UNL     1      31.580  11.341  47.354  1.00  0.00     0.091 N 
HETATM   21  C26 UNL     1      30.352  11.930  47.851  1.00  0.00     0.292 C 
HETATM   22  C25 UNL     1      29.199  10.955  47.803  1.00  0.00     0.153 C 
BRANCH  20  23
HETATM   23  C2  UNL     1      31.835  11.686  45.980  1.00  0.00     0.268 C 
HETATM   24  C1  UNL     1      33.171  11.265  45.463  1.00  0.00     0.037 C 
ENDBRANCH  20  23
ENDBRANCH  14  17
ENDBRANCH   1  11
BRANCH   4  25
HETATM   25  C13 UNL     1      23.855   2.441  50.763  1.00  0.00     0.067 C 
HETATM   26  C14 UNL     1      22.568   2.004  50.118  1.00  0.00     0.021 C 
BRANCH  25  27
HETATM   27  C15 UNL     1      24.189   1.449  51.785  1.00  0.00    -0.043 A 
HETATM   28  C16 UNL     1      23.076   0.933  52.461  1.00  0.00     0.008 A 
HETATM   29  C17 UNL     1      23.204  -0.010  53.453  1.00  0.00     0.001 A 
HETATM   30  C18 UNL     1      24.472  -0.422  53.748  1.00  0.00     0.001 A 
HETATM   31  C19 UNL     1      25.623   0.027  53.138  1.00  0.00     0.007 A 
HETATM   32  C20 UNL     1      25.426   0.982  52.142  1.00  0.00    -0.055 A 
HETATM   33  C21 UNL     1      26.613   1.517  51.470  1.00  0.00     0.049 C 
ENDBRANCH  25  27
ENDBRANCH   4  25
TORSDOF 5
ENDMDL
MODEL 4
REMARK VINA RESULT:      -8.8      2.278      3.338
REMARK  5 active torsions:
REMARK  status: ('A' for Active; 'I' for Inactive)
REMARK    1  A    between atoms: C2_2  and  N1_3 
REMARK    2  A    between atoms: N2_6  and  C5_7 
REMARK    3  A    between atoms: C8_10  and  C9_11 
REMARK    4  A    between atoms: C12_14  and  C13_15 
REMARK    5  A    between atoms: C13_15  and  C15_17 
ROOT
HETATM    1  C9  UNL     1      25.286   6.461  49.317  1.00  0.00     0.058 C 
HETATM    2  C10 UNL     1      24.153   5.989  48.589  1.00  0.00     0.042 C 
HETATM    3  C11 UNL     1      23.170   6.275  49.730  1.00  0.00    -0.012 C 
HETATM    4  C12 UNL     1      22.366   5.633  50.572  1.00  0.00     0.038 C 
HETATM    5  N3  UNL     1      23.058   6.124  51.870  1.00  0.00    -0.306 N 
HETATM    6  N4  UNL     1      24.488   6.754  51.874  1.00  0.00    -0.146 NA
HETATM    7  N5  UNL     1      24.683   6.895  50.522  1.00  0.00    -0.290 N 
HETATM    8  C22 UNL     1      23.549   7.785  50.047  1.00  0.00     0.185 C 
HETATM    9  H24 UNL     1      22.264   5.851  52.509  1.00  0.00     0.182 HD
HETATM   10  H25 UNL     1      25.037   6.049  52.367  1.00  0.00     0.173 HD
ENDROOT
BRANCH   1  11
HETATM   11  C8  UNL     1      26.652   6.382  48.952  1.00  0.00    -0.008 A 
HETATM   12  C7  UNL     1      27.240   7.616  48.865  1.00  0.00     0.016 A 
HETATM   13  C6  UNL     1      28.563   7.535  48.486  1.00  0.00     0.030 A 
HETATM   14  C5  UNL     1      29.293   6.402  48.208  1.00  0.00     0.030 A 
HETATM   15  C24 UNL     1      28.561   5.267  48.342  1.00  0.00     0.030 A 
HETATM   16  C23 UNL     1      27.240   5.206  48.710  1.00  0.00     0.016 A 
BRANCH  14  17
HETATM   17  N2  UNL     1      30.639   6.353  47.830  1.00  0.00    -0.378 N 
HETATM   18  C4  UNL     1      31.213   6.945  46.640  1.00  0.00     0.153 C 
HETATM   19  C3  UNL     1      32.507   7.630  47.087  1.00  0.00     0.292 C 
HETATM   20  N1  UNL     1      33.487   6.641  47.438  1.00  0.00     0.091 N 
HETATM   21  C26 UNL     1      32.891   5.410  47.918  1.00  0.00     0.292 C 
HETATM   22  C25 UNL     1      31.597   5.659  48.657  1.00  0.00     0.153 C 
BRANCH  20  23
HETATM   23  C2  UNL     1      34.518   7.129  48.317  1.00  0.00     0.268 C 
HETATM   24  C1  UNL     1      35.443   6.082  48.842  1.00  0.00     0.037 C 
ENDBRANCH  20  23
ENDBRANCH  14  17
ENDBRANCH   1  11
BRANCH   4  25
HETATM   25  C13 UNL     1      21.413   4.827  49.851  1.00  0.00     0.067 C 
HETATM   26  C14 UNL     1      19.993   5.312  49.953  1.00  0.00     0.021 C 
BRANCH  25  27
HETATM   27  C15 UNL     1      21.439   3.445  50.329  1.00  0.00    -0.043 A 
HETATM   28  C16 UNL     1      20.818   3.262  51.571  1.00  0.00     0.008 A 
HETATM   29  C17 UNL     1      20.748   2.028  52.171  1.00  0.00     0.001 A 
HETATM   30  C18 UNL     1      21.313   0.984  51.495  1.00  0.00     0.001 A 
HETATM   31  C19 UNL     1      21.943   1.068  50.273  1.00  0.00     0.007 A 
HETATM   32  C20 UNL     1      21.982   2.346  49.718  1.00  0.00    -0.055 A 
HETATM   33  C21 UNL     1      22.658   2.507  48.428  1.00  0.00     0.049 C 
ENDBRANCH  25  27
ENDBRANCH   4  25
TORSDOF 5
ENDMDL
MODEL 5
REMARK VINA RESULT:      -8.7      2.959      4.550
REMARK  5 active torsions:
REMARK  status: ('A' for Active; 'I' for Inactive)
REMARK    1  A    between atoms: C2_2  and  N1_3 
REMARK    2  A    between atoms: N2_6  and  C5_7 
REMARK    3  A    between atoms: C8_10  and  C9_11 
REMARK    4  A    between atoms: C12_14  and  C13_15 
REMARK    5  A    between atoms: C13_15  and  C15_17 
ROOT
HETATM    1  C9  UNL     1      25.589   6.968  49.121  1.00  0.00     0.058 C 
HETATM    2  C10 UNL     1      24.454   6.789  48.275  1.00  0.00     0.042 C 
HETATM    3  C11 UNL     1      23.444   6.983  49.412  1.00  0.00    -0.012 C 
HETATM    4  C12 UNL     1      22.520   6.304  50.086  1.00  0.00     0.038 C 
HETATM    5  N3  UNL     1      23.186   6.452  51.478  1.00  0.00    -0.306 N 
HETATM    6  N4  UNL     1      24.678   6.882  51.656  1.00  0.00    -0.146 NA
HETATM    7  N5  UNL     1      24.970   7.245  50.364  1.00  0.00    -0.290 N 
HETATM    8  C22 UNL     1      23.981   8.346  50.027  1.00  0.00     0.185 C 
HETATM    9  H24 UNL     1      22.328   6.170  52.023  1.00  0.00     0.182 HD
HETATM   10  H25 UNL     1      25.109   6.033  52.024  1.00  0.00     0.173 HD
ENDROOT
BRANCH   1  11
HETATM   11  C8  UNL     1      26.955   6.784  48.798  1.00  0.00    -0.008 A 
HETATM   12  C7  UNL     1      27.282   5.462  48.654  1.00  0.00     0.016 A 
HETATM   13  C6  UNL     1      28.619   5.287  48.362  1.00  0.00     0.030 A 
HETATM   14  C5  UNL     1      29.583   6.257  48.213  1.00  0.00     0.030 A 
HETATM   15  C24 UNL     1      29.092   7.510  48.387  1.00  0.00     0.030 A 
HETATM   16  C23 UNL     1      27.788   7.823  48.681  1.00  0.00     0.016 A 
BRANCH  14  17
HETATM   17  N2  UNL     1      30.933   6.047  47.911  1.00  0.00    -0.378 N 
HETATM   18  C4  UNL     1      31.887   5.322  48.726  1.00  0.00     0.153 C 
HETATM   19  C3  UNL     1      32.673   4.426  47.765  1.00  0.00     0.292 C 
HETATM   20  N1  UNL     1      33.527   5.229  46.937  1.00  0.00     0.091 N 
HETATM   21  C26 UNL     1      33.003   6.563  46.721  1.00  0.00     0.292 C 
HETATM   22  C25 UNL     1      31.492   6.578  46.692  1.00  0.00     0.153 C 
BRANCH  20  23
HETATM   23  C2  UNL     1      33.917   4.588  45.708  1.00  0.00     0.268 C 
HETATM   24  C1  UNL     1      34.981   3.550  45.850  1.00  0.00     0.037 C 
ENDBRANCH  20  23
ENDBRANCH  14  17
ENDBRANCH   1  11
BRANCH   4  25
HETATM   25  C13 UNL     1      21.524   5.776  49.189  1.00  0.00     0.067 C 
HETATM   26  C14 UNL     1      20.111   5.907  49.689  1.00  0.00     0.021 C 
BRANCH  25  27
HETATM   27  C15 UNL     1      21.764   4.357  48.927  1.00  0.00    -0.043 A 
HETATM   28  C16 UNL     1      21.733   3.555  50.075  1.00  0.00     0.008 A 
HETATM   29  C17 UNL     1      21.937   2.197  50.016  1.00  0.00     0.001 A 
HETATM   30  C18 UNL     1      22.171   1.665  48.780  1.00  0.00     0.001 A 
HETATM   31  C19 UNL     1      22.219   2.373  47.599  1.00  0.00     0.007 A 
HETATM   32  C20 UNL     1      22.006   3.744  47.726  1.00  0.00    -0.055 A 
HETATM   33  C21 UNL     1      22.066   4.557  46.509  1.00  0.00     0.049 C 
ENDBRANCH  25  27
ENDBRANCH   4  25
TORSDOF 5
ENDMDL
MODEL 6
REMARK VINA RESULT:      -8.4      2.103     10.798
REMARK  5 active torsions:
REMARK  status: ('A' for Active; 'I' for Inactive)
REMARK    1  A    between atoms: C2_2  and  N1_3 
REMARK    2  A    between atoms: N2_6  and  C5_7 
REMARK    3  A    between atoms: C8_10  and  C9_11 
REMARK    4  A    between atoms: C12_14  and  C13_15 
REMARK    5  A    between atoms: C13_15  and  C15_17 
ROOT
HETATM    1  C9  UNL     1      29.260   6.785  48.006  1.00  0.00     0.058 C 
HETATM    2  C10 UNL     1      29.467   7.696  46.927  1.00  0.00     0.042 C 
HETATM    3  C11 UNL     1      30.896   8.045  47.357  1.00  0.00    -0.012 C 
HETATM    4  C12 UNL     1      31.605   9.076  47.807  1.00  0.00     0.038 C 
HETATM    5  N3  UNL     1      32.019   8.421  49.150  1.00  0.00    -0.306 N 
HETATM    6  N4  UNL     1      31.299   7.160  49.728  1.00  0.00    -0.146 NA
HETATM    7  N5  UNL     1      30.522   6.822  48.647  1.00  0.00    -0.290 N 
HETATM    8  C22 UNL     1      31.501   6.585  47.512  1.00  0.00     0.185 C 
HETATM    9  H24 UNL     1      32.789   9.112  49.358  1.00  0.00     0.182 HD
HETATM   10  H25 UNL     1      30.833   7.534  50.555  1.00  0.00     0.173 HD
ENDROOT
BRANCH   1  11
HETATM   11  C8  UNL     1      28.060   6.133  48.380  1.00  0.00    -0.008 A 
HETATM   12  C7  UNL     1      26.995   6.993  48.429  1.00  0.00     0.016 A 
HETATM   13  C6  UNL     1      25.833   6.358  48.816  1.00  0.00     0.030 A 
HETATM   14  C5  UNL     1      25.664   5.030  49.133  1.00  0.00     0.030 A 
HETATM   15  C24 UNL     1      26.817   4.320  49.033  1.00  0.00     0.030 A 
HETATM   16  C23 UNL     1      28.037   4.826  48.661  1.00  0.00     0.016 A 
BRANCH  14  17
HETATM   17  N2  UNL     1      24.469   4.413  49.519  1.00  0.00    -0.378 N 
HETATM   18  C4  UNL     1      23.334   4.140  48.661  1.00  0.00     0.153 C 
HETATM   19  C3  UNL     1      22.889   2.712  48.987  1.00  0.00     0.292 C 
HETATM   20  N1  UNL     1      22.299   2.671  50.295  1.00  0.00     0.091 N 
HETATM   21  C26 UNL     1      22.833   3.687  51.181  1.00  0.00     0.292 C 
HETATM   22  C25 UNL     1      24.283   3.989  50.885  1.00  0.00     0.153 C 
BRANCH  20  23
HETATM   23  C2  UNL     1      22.305   1.362  50.897  1.00  0.00     0.268 C 
HETATM   24  C1  UNL     1      21.054   0.573  50.698  1.00  0.00     0.037 C 
ENDBRANCH  20  23
ENDBRANCH  14  17
ENDBRANCH   1  11
BRANCH   4  25
HETATM   25  C13 UNL     1      31.530  10.184  46.888  1.00  0.00     0.067 C 
HETATM   26  C14 UNL     1      32.835  10.902  46.678  1.00  0.00     0.021 C 
BRANCH  25  27
HETATM   27  C15 UNL     1      30.557  11.174  47.351  1.00  0.00    -0.043 A 
HETATM   28  C16 UNL     1      30.864  11.733  48.597  1.00  0.00     0.008 A 
HETATM   29  C17 UNL     1      30.060  12.680  49.185  1.00  0.00     0.001 A 
HETATM   30  C18 UNL     1      28.944  13.052  48.491  1.00  0.00     0.001 A 
HETATM   31  C19 UNL     1      28.562  12.559  47.264  1.00  0.00     0.007 A 
HETATM   32  C20 UNL     1      29.418  11.602  46.722  1.00  0.00    -0.055 A 
HETATM   33  C21 UNL     1      29.056  11.021  45.426  1.00  0.00     0.049 C 
ENDBRANCH  25  27
ENDBRANCH   4  25
TORSDOF 5
ENDMDL
MODEL 7
REMARK VINA RESULT:      -8.3      1.432      2.102
REMARK  5 active torsions:
REMARK  status: ('A' for Active; 'I' for Inactive)
REMARK    1  A    between atoms: C2_2  and  N1_3 
REMARK    2  A    between atoms: N2_6  and  C5_7 
REMARK    3  A    between atoms: C8_10  and  C9_11 
REMARK    4  A    between atoms: C12_14  and  C13_15 
REMARK    5  A    between atoms: C13_15  and  C15_17 
ROOT
HETATM    1  C9  UNL     1      25.317   6.280  49.014  1.00  0.00     0.058 C 
HETATM    2  C10 UNL     1      24.487   5.163  48.696  1.00  0.00     0.042 C 
HETATM    3  C11 UNL     1      23.682   5.257  49.998  1.00  0.00    -0.012 C 
HETATM    4  C12 UNL     1      23.457   4.570  51.113  1.00  0.00     0.038 C 
HETATM    5  N3  UNL     1      23.991   5.652  52.087  1.00  0.00    -0.306 N 
HETATM    6  N4  UNL     1      24.881   6.845  51.612  1.00  0.00    -0.146 NA
HETATM    7  N5  UNL     1      24.768   6.692  50.252  1.00  0.00    -0.290 N 
HETATM    8  C22 UNL     1      23.282   6.794  49.962  1.00  0.00     0.185 C 
HETATM    9  H24 UNL     1      23.555   5.226  52.949  1.00  0.00     0.182 HD
HETATM   10  H25 UNL     1      25.781   6.634  52.046  1.00  0.00     0.173 HD
ENDROOT
BRANCH   1  11
HETATM   11  C8  UNL     1      26.457   6.745  48.316  1.00  0.00    -0.008 A 
HETATM   12  C7  UNL     1      27.557   5.959  48.534  1.00  0.00     0.016 A 
HETATM   13  C6  UNL     1      28.671   6.430  47.870  1.00  0.00     0.030 A 
HETATM   14  C5  UNL     1      28.766   7.541  47.065  1.00  0.00     0.030 A 
HETATM   15  C24 UNL     1      27.587   8.206  46.956  1.00  0.00     0.030 A 
HETATM   16  C23 UNL     1      26.409   7.848  47.561  1.00  0.00     0.016 A 
BRANCH  14  17
HETATM   17  N2  UNL     1      29.912   7.991  46.400  1.00  0.00    -0.378 N 
HETATM   18  C4  UNL     1      29.941   8.875  45.253  1.00  0.00     0.153 C 
HETATM   19  C3  UNL     1      31.044   9.899  45.533  1.00  0.00     0.292 C 
HETATM   20  N1  UNL     1      32.330   9.265  45.463  1.00  0.00     0.091 N 
HETATM   21  C26 UNL     1      32.278   7.858  45.811  1.00  0.00     0.292 C 
HETATM   22  C25 UNL     1      31.218   7.571  46.847  1.00  0.00     0.153 C 
BRANCH  20  23
HETATM   23  C2  UNL     1      33.366   9.967  46.174  1.00  0.00     0.268 C 
HETATM   24  C1  UNL     1      32.885  11.069  47.059  1.00  0.00     0.037 C 
ENDBRANCH  20  23
ENDBRANCH  14  17
ENDBRANCH   1  11
BRANCH   4  25
HETATM   25  C13 UNL     1      22.951   3.256  50.806  1.00  0.00     0.067 C 
HETATM   26  C14 UNL     1      21.464   3.112  50.978  1.00  0.00     0.021 C 
BRANCH  25  27
HETATM   27  C15 UNL     1      23.588   2.246  51.652  1.00  0.00    -0.043 A 
HETATM   28  C16 UNL     1      22.707   1.601  52.528  1.00  0.00     0.008 A 
HETATM   29  C17 UNL     1      23.133   0.623  53.395  1.00  0.00     0.001 A 
HETATM   30  C18 UNL     1      24.461   0.309  53.360  1.00  0.00     0.001 A 
HETATM   31  C19 UNL     1      25.400   0.888  52.535  1.00  0.00     0.007 A 
HETATM   32  C20 UNL     1      24.906   1.872  51.681  1.00  0.00    -0.055 A 
HETATM   33  C21 UNL     1      25.858   2.543  50.792  1.00  0.00     0.049 C 
ENDBRANCH  25  27
ENDBRANCH   4  25
TORSDOF 5
ENDMDL
MODEL 8
REMARK VINA RESULT:      -8.2      4.651     11.318
REMARK  5 active torsions:
REMARK  status: ('A' for Active; 'I' for Inactive)
REMARK    1  A    between atoms: C2_2  and  N1_3 
REMARK    2  A    between atoms: N2_6  and  C5_7 
REMARK    3  A    between atoms: C8_10  and  C9_11 
REMARK    4  A    between atoms: C12_14  and  C13_15 
REMARK    5  A    between atoms: C13_15  and  C15_17 
ROOT
HETATM    1  C9  UNL     1      21.673   3.022  51.394  1.00  0.00     0.058 C 
HETATM    2  C10 UNL     1      22.590   2.533  50.416  1.00  0.00     0.042 C 
HETATM    3  C11 UNL     1      23.794   3.256  51.031  1.00  0.00    -0.012 C 
HETATM    4  C12 UNL     1      24.661   4.222  50.747  1.00  0.00     0.038 C 
HETATM    5  N3  UNL     1      24.283   5.142  51.936  1.00  0.00    -0.306 N 
HETATM    6  N4  UNL     1      22.960   4.964  52.749  1.00  0.00    -0.146 NA
HETATM    7  N5  UNL     1      22.535   3.761  52.239  1.00  0.00    -0.290 N 
HETATM    8  C22 UNL     1      23.656   2.783  52.541  1.00  0.00     0.185 C 
HETATM    9  H24 UNL     1      25.145   5.746  51.866  1.00  0.00     0.182 HD
HETATM   10  H25 UNL     1      22.434   5.803  52.500  1.00  0.00     0.173 HD
ENDROOT
BRANCH   1  11
HETATM   11  C8  UNL     1      20.263   2.890  51.410  1.00  0.00    -0.008 A 
HETATM   12  C7  UNL     1      19.626   4.097  51.307  1.00  0.00     0.016 A 
HETATM   13  C6  UNL     1      18.254   3.965  51.347  1.00  0.00     0.030 A 
HETATM   14  C5  UNL     1      17.522   2.807  51.472  1.00  0.00     0.030 A 
HETATM   15  C24 UNL     1      18.307   1.703  51.563  1.00  0.00     0.030 A 
HETATM   16  C23 UNL     1      19.679   1.694  51.537  1.00  0.00     0.016 A 
BRANCH  14  17
HETATM   17  N2  UNL     1      16.127   2.704  51.505  1.00  0.00    -0.378 N 
HETATM   18  C4  UNL     1      15.364   1.649  52.139  1.00  0.00     0.153 C 
HETATM   19  C3  UNL     1      14.228   2.341  52.897  1.00  0.00     0.292 C 
HETATM   20  N1  UNL     1      13.281   2.886  51.967  1.00  0.00     0.091 N 
HETATM   21  C26 UNL     1      13.886   3.245  50.699  1.00  0.00     0.292 C 
HETATM   22  C25 UNL     1      15.314   3.710  50.866  1.00  0.00     0.153 C 
BRANCH  20  23
HETATM   23  C2  UNL     1      12.477   3.950  52.510  1.00  0.00     0.268 C 
HETATM   24  C1  UNL     1      12.854   4.383  53.888  1.00  0.00     0.037 C 
ENDBRANCH  20  23
ENDBRANCH  14  17
ENDBRANCH   1  11
BRANCH   4  25
HETATM   25  C13 UNL     1      25.366   3.929  49.523  1.00  0.00     0.067 C 
HETATM   26  C14 UNL     1      26.520   2.979  49.689  1.00  0.00     0.021 C 
BRANCH  25  27
HETATM   27  C15 UNL     1      25.892   5.156  48.924  1.00  0.00    -0.043 A 
HETATM   28  C16 UNL     1      27.288   5.188  48.829  1.00  0.00     0.008 A 
HETATM   29  C17 UNL     1      27.954   6.263  48.291  1.00  0.00     0.001 A 
HETATM   30  C18 UNL     1      27.185   7.301  47.849  1.00  0.00     0.001 A 
HETATM   31  C19 UNL     1      25.810   7.359  47.900  1.00  0.00     0.007 A 
HETATM   32  C20 UNL     1      25.195   6.239  48.458  1.00  0.00    -0.055 A 
HETATM   33  C21 UNL     1      23.733   6.247  48.562  1.00  0.00     0.049 C 
ENDBRANCH  25  27
ENDBRANCH   4  25
TORSDOF 5
ENDMDL
MODEL 9
REMARK VINA RESULT:      -7.9      6.242      8.349
REMARK  5 active torsions:
REMARK  status: ('A' for Active; 'I' for Inactive)
REMARK    1  A    between atoms: C2_2  and  N1_3 
REMARK    2  A    between atoms: N2_6  and  C5_7 
REMARK    3  A    between atoms: C8_10  and  C9_11 
REMARK    4  A    between atoms: C12_14  and  C13_15 
REMARK    5  A    between atoms: C13_15  and  C15_17 
ROOT
HETATM    1  C9  UNL     1      20.683   1.601  51.031  1.00  0.00     0.058 C 
HETATM    2  C10 UNL     1      19.734   0.765  50.370  1.00  0.00     0.042 C 
HETATM    3  C11 UNL     1      18.654   1.852  50.321  1.00  0.00    -0.012 C 
HETATM    4  C12 UNL     1      17.447   2.117  50.811  1.00  0.00     0.038 C 
HETATM    5  N3  UNL     1      17.850   3.416  51.555  1.00  0.00    -0.306 N 
HETATM    6  N4  UNL     1      19.339   3.785  51.857  1.00  0.00    -0.146 NA
HETATM    7  N5  UNL     1      19.972   2.822  51.110  1.00  0.00    -0.290 N 
HETATM    8  C22 UNL     1      19.492   3.043  49.687  1.00  0.00     0.185 C 
HETATM    9  H24 UNL     1      16.861   3.757  51.691  1.00  0.00     0.182 HD
HETATM   10  H25 UNL     1      19.382   3.709  52.874  1.00  0.00     0.173 HD
ENDROOT
BRANCH   1  11
HETATM   11  C8  UNL     1      21.943   1.237  51.565  1.00  0.00    -0.008 A 
HETATM   12  C7  UNL     1      21.845   0.228  52.486  1.00  0.00     0.016 A 
HETATM   13  C6  UNL     1      23.072  -0.107  53.021  1.00  0.00     0.030 A 
HETATM   14  C5  UNL     1      24.298   0.445  52.729  1.00  0.00     0.030 A 
HETATM   15  C24 UNL     1      24.216   1.429  51.798  1.00  0.00     0.030 A 
HETATM   16  C23 UNL     1      23.065   1.860  51.189  1.00  0.00     0.016 A 
BRANCH  14  17
HETATM   17  N2  UNL     1      25.528   0.079  53.286  1.00  0.00    -0.378 N 
HETATM   18  C4  UNL     1      26.211  -1.183  53.092  1.00  0.00     0.153 C 
HETATM   19  C3  UNL     1      27.681  -0.837  52.837  1.00  0.00     0.292 C 
HETATM   20  N1  UNL     1      28.284  -0.346  54.043  1.00  0.00     0.091 N 
HETATM   21  C26 UNL     1      27.330   0.305  54.920  1.00  0.00     0.292 C 
HETATM   22  C25 UNL     1      26.233   0.999  54.146  1.00  0.00     0.153 C 
BRANCH  20  23
HETATM   23  C2  UNL     1      29.460   0.455  53.823  1.00  0.00     0.268 C 
HETATM   24  C1  UNL     1      29.412   1.821  54.423  1.00  0.00     0.037 C 
ENDBRANCH  20  23
ENDBRANCH  14  17
ENDBRANCH   1  11
BRANCH   4  25
HETATM   25  C13 UNL     1      16.518   1.071  50.465  1.00  0.00     0.067 C 
HETATM   26  C14 UNL     1      15.922   1.204  49.090  1.00  0.00     0.021 C 
BRANCH  25  27
HETATM   27  C15 UNL     1      15.409   1.029  51.419  1.00  0.00    -0.043 A 
HETATM   28  C16 UNL     1      14.434   2.009  51.200  1.00  0.00     0.008 A 
HETATM   29  C17 UNL     1      13.322   2.116  52.001  1.00  0.00     0.001 A 
HETATM   30  C18 UNL     1      13.212   1.217  53.022  1.00  0.00     0.001 A 
HETATM   31  C19 UNL     1      14.118   0.221  53.313  1.00  0.00     0.007 A 
HETATM   32  C20 UNL     1      15.224   0.165  52.466  1.00  0.00    -0.055 A 
HETATM   33  C21 UNL     1      16.237  -0.858  52.736  1.00  0.00     0.049 C 
ENDBRANCH  25  27
ENDBRANCH   4  25
TORSDOF 5
ENDMDL
