MODEL 1
REMARK VINA RESULT:      -7.5      0.000      0.000
REMARK  8 active torsions:
REMARK  status: ('A' for Active; 'I' for Inactive)
REMARK    1  A    between atoms: O1_2  and  C2_3 
REMARK    2  A    between atoms: C5_6  and  N1_7 
REMARK    3  A    between atoms: C5_6  and  N2_8 
REMARK    4  A    between atoms: N2_8  and  C6_9 
REMARK    5  A    between atoms: C7_10  and  C8_11 
REMARK    6  A    between atoms: C8_11  and  C9_12 
REMARK    7  A    between atoms: C9_12  and  C11_14 
REMARK    8  A    between atoms: C16_20  and  N3_22 
ROOT
HETATM    1  C2  UNL     1      22.054  -0.542  52.657  1.00  0.00     0.154 C 
HETATM    2  C3  UNL     1      23.054   0.444  53.318  1.00  0.00     0.079 C 
HETATM    3  C4  UNL     1      23.659   1.043  52.070  1.00  0.00    -0.008 C 
HETATM    4  C5  UNL     1      24.903   1.281  51.910  1.00  0.00     0.084 C 
HETATM    5  C13 UNL     1      22.421   1.202  51.267  1.00  0.00    -0.015 A 
HETATM    6  C14 UNL     1      21.545   0.339  51.589  1.00  0.00    -0.039 A 
HETATM    7  C15 UNL     1      20.551   0.819  50.675  1.00  0.00     0.073 A 
HETATM    8  C16 UNL     1      21.561   1.802  50.235  1.00  0.00     0.064 A 
HETATM    9  C17 UNL     1      22.082   1.517  48.827  1.00  0.00     0.044 C 
ENDROOT
BRANCH   4  10
HETATM   10  N1  UNL     1      25.230   0.780  53.227  1.00  0.00    -0.288 NA
HETATM   11  H7  UNL     1      25.739   1.388  53.940  1.00  0.00     0.125 HD
HETATM   12  H8  UNL     1      25.715   1.242  54.036  1.00  0.00     0.125 HD
ENDBRANCH   4  10
BRANCH   4  13
HETATM   13  N2  UNL     1      26.145   1.690  51.401  1.00  0.00    -0.357 N 
HETATM   14  H9  UNL     1      26.465   0.731  51.731  1.00  0.00     0.166 HD
BRANCH  13  15
HETATM   15  C6  UNL     1      26.572   2.883  50.759  1.00  0.00     0.085 C 
HETATM   16  C7  UNL     1      25.705   3.240  49.761  1.00  0.00    -0.003 C 
BRANCH  16  17
HETATM   17  C8  UNL     1      26.365   4.491  49.266  1.00  0.00     0.061 C 
BRANCH  17  18
HETATM   18  C9  UNL     1      27.437   4.890  48.810  1.00  0.00    -0.015 C 
HETATM   19  C10 UNL     1      28.741   5.474  48.242  1.00  0.00     0.014 C 
BRANCH  18  20
HETATM   20  C11 UNL     1      26.764   6.256  48.767  1.00  0.00     0.171 C 
HETATM   21  C12 UNL     1      27.570   7.274  47.991  1.00  0.00     0.045 C 
HETATM   22  F1  UNL     1      25.502   6.059  48.174  1.00  0.00    -0.249 F 
ENDBRANCH  18  20
ENDBRANCH  17  18
ENDBRANCH  16  17
ENDBRANCH  13  15
ENDBRANCH   4  13
BRANCH   1  23
HETATM   23  O1  UNL     1      21.105  -0.930  53.589  1.00  0.00    -0.386 OA
HETATM   24  C1  UNL     1      21.109  -0.070  54.701  1.00  0.00     0.202 C 
ENDBRANCH   1  23
BRANCH   8  25
HETATM   25  N3  UNL     1      21.204   3.173  50.438  1.00  0.00    -0.335 N 
HETATM   26  C18 UNL     1      21.868   4.140  51.348  1.00  0.00     0.153 C 
HETATM   27  C19 UNL     1      22.001   5.467  50.610  1.00  0.00     0.188 C 
HETATM   28  O2  UNL     1      20.808   6.107  50.443  1.00  0.00    -0.380 OA
HETATM   29  C20 UNL     1      19.717   5.331  50.065  1.00  0.00     0.270 C 
HETATM   30  C21 UNL     1      20.202   3.954  49.809  1.00  0.00     0.244 C 
HETATM   31  O3  UNL     1      19.596   3.366  48.836  1.00  0.00    -0.271 OA
ENDBRANCH   8  25
TORSDOF 8
ENDMDL
MODEL 2
REMARK VINA RESULT:      -7.4      3.533      4.344
REMARK  8 active torsions:
REMARK  status: ('A' for Active; 'I' for Inactive)
REMARK    1  A    between atoms: O1_2  and  C2_3 
REMARK    2  A    between atoms: C5_6  and  N1_7 
REMARK    3  A    between atoms: C5_6  and  N2_8 
REMARK    4  A    between atoms: N2_8  and  C6_9 
REMARK    5  A    between atoms: C7_10  and  C8_11 
REMARK    6  A    between atoms: C8_11  and  C9_12 
REMARK    7  A    between atoms: C9_12  and  C11_14 
REMARK    8  A    between atoms: C16_20  and  N3_22 
ROOT
HETATM    1  C2  UNL     1      19.023  -0.706  52.763  1.00  0.00     0.154 C 
HETATM    2  C3  UNL     1      20.018  -0.270  53.872  1.00  0.00     0.079 C 
HETATM    3  C4  UNL     1      21.265  -0.127  53.031  1.00  0.00    -0.008 C 
HETATM    4  C5  UNL     1      22.426  -0.523  53.382  1.00  0.00     0.084 C 
HETATM    5  C13 UNL     1      20.670   0.544  51.848  1.00  0.00    -0.015 A 
HETATM    6  C14 UNL     1      19.446   0.230  51.705  1.00  0.00    -0.039 A 
HETATM    7  C15 UNL     1      19.236   1.057  50.553  1.00  0.00     0.073 A 
HETATM    8  C16 UNL     1      20.668   1.404  50.655  1.00  0.00     0.064 A 
HETATM    9  C17 UNL     1      21.499   0.802  49.523  1.00  0.00     0.044 C 
ENDROOT
BRANCH   4  10
HETATM   10  N1  UNL     1      21.939  -1.021  54.650  1.00  0.00    -0.288 NA
HETATM   11  H7  UNL     1      21.466  -0.374  55.354  1.00  0.00     0.125 HD
HETATM   12  H8  UNL     1      21.452  -0.528  55.441  1.00  0.00     0.125 HD
ENDBRANCH   4  10
BRANCH   4  13
HETATM   13  N2  UNL     1      23.802  -0.795  53.436  1.00  0.00    -0.357 N 
HETATM   14  H9  UNL     1      23.485  -1.720  53.852  1.00  0.00     0.166 HD
BRANCH  13  15
HETATM   15  C6  UNL     1      24.943  -0.044  53.045  1.00  0.00     0.085 C 
HETATM   16  C7  UNL     1      26.078  -0.807  53.115  1.00  0.00    -0.003 C 
BRANCH  16  17
HETATM   17  C8  UNL     1      27.101   0.191  52.662  1.00  0.00     0.061 C 
BRANCH  17  18
HETATM   18  C9  UNL     1      27.775   1.129  53.087  1.00  0.00    -0.015 C 
HETATM   19  C10 UNL     1      28.664   2.240  53.668  1.00  0.00     0.014 C 
BRANCH  18  20
HETATM   20  C11 UNL     1      28.434   0.085  53.978  1.00  0.00     0.171 C 
HETATM   21  C12 UNL     1      29.784  -0.353  53.456  1.00  0.00     0.045 C 
HETATM   22  F1  UNL     1      28.557   0.670  55.253  1.00  0.00    -0.249 F 
ENDBRANCH  18  20
ENDBRANCH  17  18
ENDBRANCH  16  17
ENDBRANCH  13  15
ENDBRANCH   4  13
BRANCH   1  23
HETATM   23  O1  UNL     1      17.724  -0.525  53.212  1.00  0.00    -0.386 OA
HETATM   24  C1  UNL     1      16.812  -1.235  52.412  1.00  0.00     0.202 C 
ENDBRANCH   1  23
BRANCH   8  25
HETATM   25  N3  UNL     1      20.943   2.789  50.882  1.00  0.00    -0.335 N 
HETATM   26  C18 UNL     1      21.324   3.422  52.170  1.00  0.00     0.153 C 
HETATM   27  C19 UNL     1      22.447   4.414  51.894  1.00  0.00     0.188 C 
HETATM   28  O2  UNL     1      22.027   5.524  51.223  1.00  0.00    -0.380 OA
HETATM   29  C20 UNL     1      21.142   5.331  50.167  1.00  0.00     0.270 C 
HETATM   30  C21 UNL     1      20.981   3.871  49.966  1.00  0.00     0.244 C 
HETATM   31  O3  UNL     1      20.851   3.531  48.730  1.00  0.00    -0.271 OA
ENDBRANCH   8  25
TORSDOF 8
ENDMDL
MODEL 3
REMARK VINA RESULT:      -7.3      2.876      4.156
REMARK  8 active torsions:
REMARK  status: ('A' for Active; 'I' for Inactive)
REMARK    1  A    between atoms: O1_2  and  C2_3 
REMARK    2  A    between atoms: C5_6  and  N1_7 
REMARK    3  A    between atoms: C5_6  and  N2_8 
REMARK    4  A    between atoms: N2_8  and  C6_9 
REMARK    5  A    between atoms: C7_10  and  C8_11 
REMARK    6  A    between atoms: C8_11  and  C9_12 
REMARK    7  A    between atoms: C9_12  and  C11_14 
REMARK    8  A    between atoms: C16_20  and  N3_22 
ROOT
HETATM    1  C2  UNL     1      18.240  -0.610  51.816  1.00  0.00     0.154 C 
HETATM    2  C3  UNL     1      18.867  -0.312  53.204  1.00  0.00     0.079 C 
HETATM    3  C4  UNL     1      20.314  -0.177  52.788  1.00  0.00    -0.008 C 
HETATM    4  C5  UNL     1      21.302  -0.662  53.433  1.00  0.00     0.084 C 
HETATM    5  C13 UNL     1      20.123   0.610  51.544  1.00  0.00    -0.015 A 
HETATM    6  C14 UNL     1      18.990   0.375  51.016  1.00  0.00    -0.039 A 
HETATM    7  C15 UNL     1      19.163   1.295  49.930  1.00  0.00     0.073 A 
HETATM    8  C16 UNL     1      20.509   1.553  50.482  1.00  0.00     0.064 A 
HETATM    9  C17 UNL     1      21.622   0.990  49.601  1.00  0.00     0.044 C 
ENDROOT
BRANCH   4  10
HETATM   10  N1  UNL     1      20.440  -1.223  54.451  1.00  0.00    -0.288 NA
HETATM   11  H7  UNL     1      19.429  -1.483  54.238  1.00  0.00     0.125 HD
HETATM   12  H8  UNL     1      19.438  -1.534  54.407  1.00  0.00     0.125 HD
ENDBRANCH   4  10
BRANCH   4  13
HETATM   13  N2  UNL     1      22.589  -1.013  53.870  1.00  0.00    -0.357 N 
HETATM   14  H9  UNL     1      22.062  -1.650  54.538  1.00  0.00     0.166 HD
BRANCH  13  15
HETATM   15  C6  UNL     1      23.886  -0.600  53.462  1.00  0.00     0.085 C 
HETATM   16  C7  UNL     1      23.826   0.568  52.749  1.00  0.00    -0.003 C 
BRANCH  16  17
HETATM   17  C8  UNL     1      25.280   0.777  52.453  1.00  0.00     0.061 C 
BRANCH  17  18
HETATM   18  C9  UNL     1      26.379   0.255  52.643  1.00  0.00    -0.015 C 
HETATM   19  C10 UNL     1      27.787  -0.313  52.881  1.00  0.00     0.014 C 
BRANCH  18  20
HETATM   20  C11 UNL     1      26.926   1.673  52.554  1.00  0.00     0.171 C 
HETATM   21  C12 UNL     1      26.570   2.350  51.249  1.00  0.00     0.045 C 
HETATM   22  F1  UNL     1      26.385   2.377  53.646  1.00  0.00    -0.249 F 
ENDBRANCH  18  20
ENDBRANCH  17  18
ENDBRANCH  16  17
ENDBRANCH  13  15
ENDBRANCH   4  13
BRANCH   1  23
HETATM   23  O1  UNL     1      16.872  -0.389  51.872  1.00  0.00    -0.386 OA
HETATM   24  C1  UNL     1      16.195  -1.538  52.319  1.00  0.00     0.202 C 
ENDBRANCH   1  23
BRANCH   8  25
HETATM   25  N3  UNL     1      20.745   2.901  50.900  1.00  0.00    -0.335 N 
HETATM   26  C18 UNL     1      21.057   3.366  52.274  1.00  0.00     0.153 C 
HETATM   27  C19 UNL     1      22.171   4.401  52.181  1.00  0.00     0.188 C 
HETATM   28  O2  UNL     1      21.759   5.583  51.640  1.00  0.00    -0.380 OA
HETATM   29  C20 UNL     1      20.924   5.517  50.529  1.00  0.00     0.270 C 
HETATM   30  C21 UNL     1      20.801   4.093  50.134  1.00  0.00     0.244 C 
HETATM   31  O3  UNL     1      20.731   3.915  48.860  1.00  0.00    -0.271 OA
ENDBRANCH   8  25
TORSDOF 8
ENDMDL
MODEL 4
REMARK VINA RESULT:      -7.1      3.115      6.984
REMARK  8 active torsions:
REMARK  status: ('A' for Active; 'I' for Inactive)
REMARK    1  A    between atoms: O1_2  and  C2_3 
REMARK    2  A    between atoms: C5_6  and  N1_7 
REMARK    3  A    between atoms: C5_6  and  N2_8 
REMARK    4  A    between atoms: N2_8  and  C6_9 
REMARK    5  A    between atoms: C7_10  and  C8_11 
REMARK    6  A    between atoms: C8_11  and  C9_12 
REMARK    7  A    between atoms: C9_12  and  C11_14 
REMARK    8  A    between atoms: C16_20  and  N3_22 
ROOT
HETATM    1  C2  UNL     1      26.925   5.919  48.950  1.00  0.00     0.154 C 
HETATM    2  C3  UNL     1      26.947   4.386  49.193  1.00  0.00     0.079 C 
HETATM    3  C4  UNL     1      25.701   4.262  50.039  1.00  0.00    -0.008 C 
HETATM    4  C5  UNL     1      25.602   3.531  51.081  1.00  0.00     0.084 C 
HETATM    5  C13 UNL     1      24.815   5.180  49.282  1.00  0.00    -0.015 A 
HETATM    6  C14 UNL     1      25.484   6.083  48.686  1.00  0.00    -0.039 A 
HETATM    7  C15 UNL     1      24.345   6.704  48.076  1.00  0.00     0.073 A 
HETATM    8  C16 UNL     1      23.529   5.705  48.797  1.00  0.00     0.064 A 
HETATM    9  C17 UNL     1      22.708   6.324  49.927  1.00  0.00     0.044 C 
ENDROOT
BRANCH   4  10
HETATM   10  N1  UNL     1      26.969   3.072  50.962  1.00  0.00    -0.288 NA
HETATM   11  H7  UNL     1      27.308   2.564  50.088  1.00  0.00     0.125 HD
HETATM   12  H8  UNL     1      27.459   2.569  50.180  1.00  0.00     0.125 HD
ENDBRANCH   4  10
BRANCH   4  13
HETATM   13  N2  UNL     1      25.130   2.850  52.213  1.00  0.00    -0.357 N 
HETATM   14  H9  UNL     1      25.536   3.680  52.738  1.00  0.00     0.166 HD
BRANCH  13  15
HETATM   15  C6  UNL     1      24.433   1.622  52.372  1.00  0.00     0.085 C 
HETATM   16  C7  UNL     1      23.147   1.839  52.789  1.00  0.00    -0.003 C 
BRANCH  16  17
HETATM   17  C8  UNL     1      22.649   0.427  52.872  1.00  0.00     0.061 C 
BRANCH  17  18
HETATM   18  C9  UNL     1      22.386  -0.447  53.698  1.00  0.00    -0.015 C 
HETATM   19  C10 UNL     1      21.973  -1.502  54.737  1.00  0.00     0.014 C 
BRANCH  18  20
HETATM   20  C11 UNL     1      21.059   0.283  53.858  1.00  0.00     0.171 C 
HETATM   21  C12 UNL     1      19.888  -0.526  53.345  1.00  0.00     0.045 C 
HETATM   22  F1  UNL     1      20.916   0.554  55.232  1.00  0.00    -0.249 F 
ENDBRANCH  18  20
ENDBRANCH  17  18
ENDBRANCH  16  17
ENDBRANCH  13  15
ENDBRANCH   4  13
BRANCH   1  23
HETATM   23  O1  UNL     1      27.749   6.228  47.878  1.00  0.00    -0.386 OA
HETATM   24  C1  UNL     1      29.097   5.980  48.192  1.00  0.00     0.202 C 
ENDBRANCH   1  23
BRANCH   8  25
HETATM   25  N3  UNL     1      22.769   4.825  47.963  1.00  0.00    -0.335 N 
HETATM   26  C18 UNL     1      22.595   3.362  48.138  1.00  0.00     0.153 C 
HETATM   27  C19 UNL     1      21.131   3.027  47.882  1.00  0.00     0.188 C 
HETATM   28  O2  UNL     1      20.780   3.132  46.568  1.00  0.00    -0.380 OA
HETATM   29  C20 UNL     1      21.261   4.234  45.868  1.00  0.00     0.270 C 
HETATM   30  C21 UNL     1      21.967   5.114  46.830  1.00  0.00     0.244 C 
HETATM   31  O3  UNL     1      21.820   6.370  46.583  1.00  0.00    -0.271 OA
ENDBRANCH   8  25
TORSDOF 8
ENDMDL
MODEL 5
REMARK VINA RESULT:      -7.0      3.929      7.156
REMARK  8 active torsions:
REMARK  status: ('A' for Active; 'I' for Inactive)
REMARK    1  A    between atoms: O1_2  and  C2_3 
REMARK    2  A    between atoms: C5_6  and  N1_7 
REMARK    3  A    between atoms: C5_6  and  N2_8 
REMARK    4  A    between atoms: N2_8  and  C6_9 
REMARK    5  A    between atoms: C7_10  and  C8_11 
REMARK    6  A    between atoms: C8_11  and  C9_12 
REMARK    7  A    between atoms: C9_12  and  C11_14 
REMARK    8  A    between atoms: C16_20  and  N3_22 
ROOT
HETATM    1  C2  UNL     1      25.382   0.848  53.667  1.00  0.00     0.154 C 
HETATM    2  C3  UNL     1      24.482  -0.399  53.453  1.00  0.00     0.079 C 
HETATM    3  C4  UNL     1      23.132   0.280  53.441  1.00  0.00    -0.008 C 
HETATM    4  C5  UNL     1      22.090  -0.168  54.025  1.00  0.00     0.084 C 
HETATM    5  C13 UNL     1      23.478   1.465  52.616  1.00  0.00    -0.015 A 
HETATM    6  C14 UNL     1      24.705   1.772  52.738  1.00  0.00    -0.039 A 
HETATM    7  C15 UNL     1      24.654   2.870  51.817  1.00  0.00     0.073 A 
HETATM    8  C16 UNL     1      23.211   2.578  51.692  1.00  0.00     0.064 A 
HETATM    9  C17 UNL     1      22.337   3.653  52.335  1.00  0.00     0.044 C 
ENDROOT
BRANCH   4  10
HETATM   10  N1  UNL     1      22.795  -1.328  54.525  1.00  0.00    -0.288 NA
HETATM   11  H7  UNL     1      23.811  -1.263  54.844  1.00  0.00     0.125 HD
HETATM   12  H8  UNL     1      23.779  -1.434  54.879  1.00  0.00     0.125 HD
ENDBRANCH   4  10
BRANCH   4  13
HETATM   13  N2  UNL     1      20.782  -0.356  54.498  1.00  0.00    -0.357 N 
HETATM   14  H9  UNL     1      21.243  -0.288  55.454  1.00  0.00     0.166 HD
BRANCH  13  15
HETATM   15  C6  UNL     1      19.538  -0.526  53.834  1.00  0.00     0.085 C 
HETATM   16  C7  UNL     1      19.626  -0.142  52.522  1.00  0.00    -0.003 C 
BRANCH  16  17
HETATM   17  C8  UNL     1      18.225  -0.418  52.067  1.00  0.00     0.061 C 
BRANCH  17  18
HETATM   18  C9  UNL     1      17.523  -0.381  51.056  1.00  0.00    -0.015 C 
HETATM   19  C10 UNL     1      16.576  -0.361  49.846  1.00  0.00     0.014 C 
BRANCH  18  20
HETATM   20  C11 UNL     1      16.414  -0.903  51.961  1.00  0.00     0.171 C 
HETATM   21  C12 UNL     1      15.130  -1.170  51.208  1.00  0.00     0.045 C 
HETATM   22  F1  UNL     1      16.904  -2.084  52.550  1.00  0.00    -0.249 F 
ENDBRANCH  18  20
ENDBRANCH  17  18
ENDBRANCH  16  17
ENDBRANCH  13  15
ENDBRANCH   4  13
BRANCH   1  23
HETATM   23  O1  UNL     1      26.689   0.538  53.326  1.00  0.00    -0.386 OA
HETATM   24  C1  UNL     1      26.727  -0.462  52.337  1.00  0.00     0.202 C 
ENDBRANCH   1  23
BRANCH   8  25
HETATM   25  N3  UNL     1      22.778   2.209  50.378  1.00  0.00    -0.335 N 
HETATM   26  C18 UNL     1      21.924   1.052  50.015  1.00  0.00     0.153 C 
HETATM   27  C19 UNL     1      20.905   1.523  48.984  1.00  0.00     0.188 C 
HETATM   28  O2  UNL     1      21.457   1.777  47.764  1.00  0.00    -0.380 OA
HETATM   29  C20 UNL     1      22.670   2.459  47.744  1.00  0.00     0.270 C 
HETATM   30  C21 UNL     1      22.993   2.858  49.135  1.00  0.00     0.244 C 
HETATM   31  O3  UNL     1      23.575   4.003  49.222  1.00  0.00    -0.271 OA
ENDBRANCH   8  25
TORSDOF 8
ENDMDL
MODEL 6
REMARK VINA RESULT:      -6.9      3.188      4.848
REMARK  8 active torsions:
REMARK  status: ('A' for Active; 'I' for Inactive)
REMARK    1  A    between atoms: O1_2  and  C2_3 
REMARK    2  A    between atoms: C5_6  and  N1_7 
REMARK    3  A    between atoms: C5_6  and  N2_8 
REMARK    4  A    between atoms: N2_8  and  C6_9 
REMARK    5  A    between atoms: C7_10  and  C8_11 
REMARK    6  A    between atoms: C8_11  and  C9_12 
REMARK    7  A    between atoms: C9_12  and  C11_14 
REMARK    8  A    between atoms: C16_20  and  N3_22 
ROOT
HETATM    1  C2  UNL     1      19.619   2.640  51.634  1.00  0.00     0.154 C 
HETATM    2  C3  UNL     1      20.653   2.508  52.785  1.00  0.00     0.079 C 
HETATM    3  C4  UNL     1      21.757   1.801  52.033  1.00  0.00    -0.008 C 
HETATM    4  C5  UNL     1      22.443   0.830  52.496  1.00  0.00     0.084 C 
HETATM    5  C13 UNL     1      21.706   2.574  50.766  1.00  0.00    -0.015 A 
HETATM    6  C14 UNL     1      20.540   3.034  50.551  1.00  0.00    -0.039 A 
HETATM    7  C15 UNL     1      20.891   3.706  49.335  1.00  0.00     0.073 A 
HETATM    8  C16 UNL     1      22.244   3.144  49.522  1.00  0.00     0.064 A 
HETATM    9  C17 UNL     1      22.575   2.059  48.498  1.00  0.00     0.044 C 
ENDROOT
BRANCH   4  10
HETATM   10  N1  UNL     1      21.728   0.846  53.754  1.00  0.00    -0.288 NA
HETATM   11  H7  UNL     1      21.859   1.639  54.455  1.00  0.00     0.125 HD
HETATM   12  H8  UNL     1      21.737   1.542  54.540  1.00  0.00     0.125 HD
ENDBRANCH   4  10
BRANCH   4  13
HETATM   13  N2  UNL     1      23.383  -0.198  52.672  1.00  0.00    -0.357 N 
HETATM   14  H9  UNL     1      22.612  -0.812  52.273  1.00  0.00     0.166 HD
BRANCH  13  15
HETATM   15  C6  UNL     1      24.716  -0.204  53.163  1.00  0.00     0.085 C 
HETATM   16  C7  UNL     1      25.552   0.478  52.320  1.00  0.00    -0.003 C 
BRANCH  16  17
HETATM   17  C8  UNL     1      26.852   0.326  53.050  1.00  0.00     0.061 C 
BRANCH  17  18
HETATM   18  C9  UNL     1      27.828  -0.422  53.120  1.00  0.00    -0.015 C 
HETATM   19  C10 UNL     1      29.073  -1.308  53.282  1.00  0.00     0.014 C 
BRANCH  18  20
HETATM   20  C11 UNL     1      28.281   0.485  54.257  1.00  0.00     0.171 C 
HETATM   21  C12 UNL     1      28.565   1.896  53.793  1.00  0.00     0.045 C 
HETATM   22  F1  UNL     1      27.247   0.471  55.213  1.00  0.00    -0.249 F 
ENDBRANCH  18  20
ENDBRANCH  17  18
ENDBRANCH  16  17
ENDBRANCH  13  15
ENDBRANCH   4  13
BRANCH   1  23
HETATM   23  O1  UNL     1      18.677   3.600  51.970  1.00  0.00    -0.386 OA
HETATM   24  C1  UNL     1      17.392   3.212  51.551  1.00  0.00     0.202 C 
ENDBRANCH   1  23
BRANCH   8  25
HETATM   25  N3  UNL     1      23.287   4.111  49.678  1.00  0.00    -0.335 N 
HETATM   26  C18 UNL     1      24.287   4.174  50.773  1.00  0.00     0.153 C 
HETATM   27  C19 UNL     1      25.645   4.484  50.155  1.00  0.00     0.188 C 
HETATM   28  O2  UNL     1      25.743   5.765  49.697  1.00  0.00    -0.380 OA
HETATM   29  C20 UNL     1      24.651   6.278  49.003  1.00  0.00     0.270 C 
HETATM   30  C21 UNL     1      23.664   5.185  48.832  1.00  0.00     0.244 C 
HETATM   31  O3  UNL     1      23.038   5.227  47.707  1.00  0.00    -0.271 OA
ENDBRANCH   8  25
TORSDOF 8
ENDMDL
MODEL 7
REMARK VINA RESULT:      -6.9      2.778      6.704
REMARK  8 active torsions:
REMARK  status: ('A' for Active; 'I' for Inactive)
REMARK    1  A    between atoms: O1_2  and  C2_3 
REMARK    2  A    between atoms: C5_6  and  N1_7 
REMARK    3  A    between atoms: C5_6  and  N2_8 
REMARK    4  A    between atoms: N2_8  and  C6_9 
REMARK    5  A    between atoms: C7_10  and  C8_11 
REMARK    6  A    between atoms: C8_11  and  C9_12 
REMARK    7  A    between atoms: C9_12  and  C11_14 
REMARK    8  A    between atoms: C16_20  and  N3_22 
ROOT
HETATM    1  C2  UNL     1      26.256   6.144  49.230  1.00  0.00     0.154 C 
HETATM    2  C3  UNL     1      26.468   4.608  49.294  1.00  0.00     0.079 C 
HETATM    3  C4  UNL     1      25.420   4.266  50.328  1.00  0.00    -0.008 C 
HETATM    4  C5  UNL     1      25.588   3.436  51.283  1.00  0.00     0.084 C 
HETATM    5  C13 UNL     1      24.325   5.143  49.846  1.00  0.00    -0.015 A 
HETATM    6  C14 UNL     1      24.781   6.166  49.245  1.00  0.00    -0.039 A 
HETATM    7  C15 UNL     1      23.495   6.708  48.919  1.00  0.00     0.073 A 
HETATM    8  C16 UNL     1      22.927   5.562  49.658  1.00  0.00     0.064 A 
HETATM    9  C17 UNL     1      22.277   5.977  50.977  1.00  0.00     0.044 C 
ENDROOT
BRANCH   4  10
HETATM   10  N1  UNL     1      26.945   3.147  50.874  1.00  0.00    -0.288 NA
HETATM   11  H7  UNL     1      27.774   3.666  51.300  1.00  0.00     0.125 HD
HETATM   12  H8  UNL     1      27.860   3.555  51.192  1.00  0.00     0.125 HD
ENDBRANCH   4  10
BRANCH   4  13
HETATM   13  N2  UNL     1      25.403   2.605  52.399  1.00  0.00    -0.357 N 
HETATM   14  H9  UNL     1      25.909   3.384  52.917  1.00  0.00     0.166 HD
BRANCH  13  15
HETATM   15  C6  UNL     1      24.781   1.338  52.558  1.00  0.00     0.085 C 
HETATM   16  C7  UNL     1      23.543   1.468  53.130  1.00  0.00    -0.003 C 
BRANCH  16  17
HETATM   17  C8  UNL     1      23.118   0.032  53.179  1.00  0.00     0.061 C 
BRANCH  17  18
HETATM   18  C9  UNL     1      22.263  -0.695  53.687  1.00  0.00    -0.015 C 
HETATM   19  C10 UNL     1      21.135  -1.540  54.300  1.00  0.00     0.014 C 
BRANCH  18  20
HETATM   20  C11 UNL     1      21.300   0.448  53.397  1.00  0.00     0.171 C 
HETATM   21  C12 UNL     1      20.347   0.129  52.268  1.00  0.00     0.045 C 
HETATM   22  F1  UNL     1      20.597   0.689  54.593  1.00  0.00    -0.249 F 
ENDBRANCH  18  20
ENDBRANCH  17  18
ENDBRANCH  16  17
ENDBRANCH  13  15
ENDBRANCH   4  13
BRANCH   1  23
HETATM   23  O1  UNL     1      26.831   6.640  48.070  1.00  0.00    -0.386 OA
HETATM   24  C1  UNL     1      28.195   6.307  48.003  1.00  0.00     0.202 C 
ENDBRANCH   1  23
BRANCH   8  25
HETATM   25  N3  UNL     1      22.111   4.681  48.879  1.00  0.00    -0.335 N 
HETATM   26  C18 UNL     1      21.593   4.925  47.510  1.00  0.00     0.153 C 
HETATM   27  C19 UNL     1      21.759   3.640  46.707  1.00  0.00     0.188 C 
HETATM   28  O2  UNL     1      20.899   2.654  47.092  1.00  0.00    -0.380 OA
HETATM   29  C20 UNL     1      20.712   2.473  48.459  1.00  0.00     0.270 C 
HETATM   30  C21 UNL     1      21.649   3.373  49.173  1.00  0.00     0.244 C 
HETATM   31  O3  UNL     1      22.124   2.867  50.258  1.00  0.00    -0.271 OA
ENDBRANCH   8  25
TORSDOF 8
ENDMDL
MODEL 8
REMARK VINA RESULT:      -6.8      3.648      6.553
REMARK  8 active torsions:
REMARK  status: ('A' for Active; 'I' for Inactive)
REMARK    1  A    between atoms: O1_2  and  C2_3 
REMARK    2  A    between atoms: C5_6  and  N1_7 
REMARK    3  A    between atoms: C5_6  and  N2_8 
REMARK    4  A    between atoms: N2_8  and  C6_9 
REMARK    5  A    between atoms: C7_10  and  C8_11 
REMARK    6  A    between atoms: C8_11  and  C9_12 
REMARK    7  A    between atoms: C9_12  and  C11_14 
REMARK    8  A    between atoms: C16_20  and  N3_22 
ROOT
HETATM    1  C2  UNL     1      25.942   7.210  49.583  1.00  0.00     0.154 C 
HETATM    2  C3  UNL     1      26.525   5.884  49.026  1.00  0.00     0.079 C 
HETATM    3  C4  UNL     1      25.558   4.912  49.661  1.00  0.00    -0.008 C 
HETATM    4  C5  UNL     1      25.891   3.800  50.193  1.00  0.00     0.084 C 
HETATM    5  C13 UNL     1      24.297   5.664  49.443  1.00  0.00    -0.015 A 
HETATM    6  C14 UNL     1      24.508   6.918  49.398  1.00  0.00    -0.039 A 
HETATM    7  C15 UNL     1      23.140   7.268  49.152  1.00  0.00     0.073 A 
HETATM    8  C16 UNL     1      22.847   5.824  49.252  1.00  0.00     0.064 A 
HETATM    9  C17 UNL     1      22.067   5.470  50.517  1.00  0.00     0.044 C 
ENDROOT
BRANCH   4  10
HETATM   10  N1  UNL     1      27.291   4.010  49.897  1.00  0.00    -0.288 NA
HETATM   11  H7  UNL     1      28.049   3.776  50.609  1.00  0.00     0.125 HD
HETATM   12  H8  UNL     1      28.150   3.830  50.474  1.00  0.00     0.125 HD
ENDBRANCH   4  10
BRANCH   4  13
HETATM   13  N2  UNL     1      25.877   2.544  50.818  1.00  0.00    -0.357 N 
HETATM   14  H9  UNL     1      25.007   2.389  50.227  1.00  0.00     0.166 HD
BRANCH  13  15
HETATM   15  C6  UNL     1      26.737   1.939  51.773  1.00  0.00     0.085 C 
HETATM   16  C7  UNL     1      26.477   0.599  51.887  1.00  0.00    -0.003 C 
BRANCH  16  17
HETATM   17  C8  UNL     1      27.492   0.215  52.920  1.00  0.00     0.061 C 
BRANCH  17  18
HETATM   18  C9  UNL     1      28.379  -0.615  53.128  1.00  0.00    -0.015 C 
HETATM   19  C10 UNL     1      29.493  -1.616  53.472  1.00  0.00     0.014 C 
BRANCH  18  20
HETATM   20  C11 UNL     1      28.523   0.068  54.482  1.00  0.00     0.171 C 
HETATM   21  C12 UNL     1      29.210   1.411  54.383  1.00  0.00     0.045 C 
HETATM   22  F1  UNL     1      27.220   0.209  54.997  1.00  0.00    -0.249 F 
ENDBRANCH  18  20
ENDBRANCH  17  18
ENDBRANCH  16  17
ENDBRANCH  13  15
ENDBRANCH   4  13
BRANCH   1  23
HETATM   23  O1  UNL     1      26.418   8.274  48.833  1.00  0.00    -0.386 OA
HETATM   24  C1  UNL     1      27.691   8.673  49.277  1.00  0.00     0.202 C 
ENDBRANCH   1  23
BRANCH   8  25
HETATM   25  N3  UNL     1      22.304   5.230  48.069  1.00  0.00    -0.335 N 
HETATM   26  C18 UNL     1      21.705   5.939  46.911  1.00  0.00     0.153 C 
HETATM   27  C19 UNL     1      22.218   5.279  45.637  1.00  0.00     0.188 C 
HETATM   28  O2  UNL     1      21.691   4.039  45.428  1.00  0.00    -0.380 OA
HETATM   29  C20 UNL     1      21.597   3.195  46.530  1.00  0.00     0.270 C 
HETATM   30  C21 UNL     1      22.249   3.867  47.679  1.00  0.00     0.244 C 
HETATM   31  O3  UNL     1      22.877   3.060  48.462  1.00  0.00    -0.271 OA
ENDBRANCH   8  25
TORSDOF 8
ENDMDL
MODEL 9
REMARK VINA RESULT:      -6.8      2.771      6.328
REMARK  8 active torsions:
REMARK  status: ('A' for Active; 'I' for Inactive)
REMARK    1  A    between atoms: O1_2  and  C2_3 
REMARK    2  A    between atoms: C5_6  and  N1_7 
REMARK    3  A    between atoms: C5_6  and  N2_8 
REMARK    4  A    between atoms: N2_8  and  C6_9 
REMARK    5  A    between atoms: C7_10  and  C8_11 
REMARK    6  A    between atoms: C8_11  and  C9_12 
REMARK    7  A    between atoms: C9_12  and  C11_14 
REMARK    8  A    between atoms: C16_20  and  N3_22 
ROOT
HETATM    1  C2  UNL     1      24.514   7.319  49.510  1.00  0.00     0.154 C 
HETATM    2  C3  UNL     1      25.279   6.177  48.789  1.00  0.00     0.079 C 
HETATM    3  C4  UNL     1      25.126   5.092  49.830  1.00  0.00    -0.008 C 
HETATM    4  C5  UNL     1      26.053   4.289  50.182  1.00  0.00     0.084 C 
HETATM    5  C13 UNL     1      23.706   5.322  50.196  1.00  0.00    -0.015 A 
HETATM    6  C14 UNL     1      23.372   6.536  50.018  1.00  0.00    -0.039 A 
HETATM    7  C15 UNL     1      22.009   6.354  50.422  1.00  0.00     0.073 A 
HETATM    8  C16 UNL     1      22.373   4.948  50.692  1.00  0.00     0.064 A 
HETATM    9  C17 UNL     1      22.394   4.624  52.185  1.00  0.00     0.044 C 
ENDROOT
BRANCH   4  10
HETATM   10  N1  UNL     1      27.000   4.886  49.266  1.00  0.00    -0.288 NA
HETATM   11  H7  UNL     1      27.991   5.131  49.575  1.00  0.00     0.125 HD
HETATM   12  H8  UNL     1      28.000   5.179  49.404  1.00  0.00     0.125 HD
ENDBRANCH   4  10
BRANCH   4  13
HETATM   13  N2  UNL     1      26.791   3.257  50.783  1.00  0.00    -0.357 N 
HETATM   14  H9  UNL     1      27.629   3.815  50.441  1.00  0.00     0.166 HD
BRANCH  13  15
HETATM   15  C6  UNL     1      26.402   2.089  51.491  1.00  0.00     0.085 C 
HETATM   16  C7  UNL     1      25.556   2.400  52.523  1.00  0.00    -0.003 C 
BRANCH  16  17
HETATM   17  C8  UNL     1      25.304   1.034  53.085  1.00  0.00     0.061 C 
BRANCH  17  18
HETATM   18  C9  UNL     1      24.379   0.274  53.374  1.00  0.00    -0.015 C 
HETATM   19  C10 UNL     1      23.285  -0.726  53.780  1.00  0.00     0.014 C 
BRANCH  18  20
HETATM   20  C11 UNL     1      25.461  -0.601  53.994  1.00  0.00     0.171 C 
HETATM   21  C12 UNL     1      26.370  -1.220  52.955  1.00  0.00     0.045 C 
HETATM   22  F1  UNL     1      26.190   0.226  54.868  1.00  0.00    -0.249 F 
ENDBRANCH  18  20
ENDBRANCH  17  18
ENDBRANCH  16  17
ENDBRANCH  13  15
ENDBRANCH   4  13
BRANCH   1  23
HETATM   23  O1  UNL     1      24.180   8.302  48.592  1.00  0.00    -0.386 OA
HETATM   24  C1  UNL     1      25.066   8.293  47.501  1.00  0.00     0.202 C 
ENDBRANCH   1  23
BRANCH   8  25
HETATM   25  N3  UNL     1      21.666   3.977  49.914  1.00  0.00    -0.335 N 
HETATM   26  C18 UNL     1      20.446   4.205  49.099  1.00  0.00     0.153 C 
HETATM   27  C19 UNL     1      20.619   3.471  47.775  1.00  0.00     0.188 C 
HETATM   28  O2  UNL     1      20.545   2.116  47.902  1.00  0.00    -0.380 OA
HETATM   29  C20 UNL     1      21.207   1.541  48.982  1.00  0.00     0.270 C 
HETATM   30  C21 UNL     1      21.963   2.611  49.677  1.00  0.00     0.244 C 
HETATM   31  O3  UNL     1      23.095   2.219  50.150  1.00  0.00    -0.271 OA
ENDBRANCH   8  25
TORSDOF 8
ENDMDL
