MODEL 1
REMARK VINA RESULT:      -7.8      0.000      0.000
REMARK  3 active torsions:
REMARK  status: ('A' for Active; 'I' for Inactive)
REMARK    1  A    between atoms: C6_6  and  S1_7 
REMARK    2  A    between atoms: S1_7  and  C7_8 
REMARK    3  A    between atoms: C8_9  and  O1_10 
ROOT
HETATM    1  C1  UNL     1      18.041   0.267  50.146  1.00  0.00     0.043 C 
HETATM    2  C2  UNL     1      19.307   0.967  50.499  1.00  0.00    -0.086 C 
HETATM    3  C3  UNL     1      19.490   1.273  51.778  1.00  0.00    -0.008 C 
HETATM    4  C4  UNL     1      20.707   1.962  52.210  1.00  0.00     0.029 C 
HETATM    5  C5  UNL     1      20.527   3.454  52.073  1.00  0.00     0.028 C 
HETATM    6  C6  UNL     1      21.679   4.055  51.761  1.00  0.00     0.091 C 
HETATM    7  N1  UNL     1      22.633   2.998  51.683  1.00  0.00    -0.252 N 
HETATM    8  N2  UNL     1      23.948   2.551  51.840  1.00  0.00    -0.179 NA
HETATM    9  C9  UNL     1      23.931   1.279  52.170  1.00  0.00     0.038 C 
HETATM   10  C10 UNL     1      24.651   0.224  52.980  1.00  0.00     0.087 C 
HETATM   11  C11 UNL     1      23.743  -0.559  53.840  1.00  0.00     0.021 C 
HETATM   12  C12 UNL     1      22.615  -0.934  54.474  1.00  0.00     0.112 C 
HETATM   13  F1  UNL     1      22.695  -2.080  55.268  1.00  0.00    -0.206 F 
HETATM   14  C13 UNL     1      21.277  -0.392  54.647  1.00  0.00     0.038 C 
HETATM   15  C14 UNL     1      20.479   0.650  54.358  1.00  0.00    -0.022 C 
HETATM   16  C15 UNL     1      21.172   1.673  53.580  1.00  0.00     0.047 C 
HETATM   17  C16 UNL     1      22.765   0.675  51.474  1.00  0.00     0.091 C 
HETATM   18  C17 UNL     1      21.871   1.817  51.224  1.00  0.00     0.076 C 
HETATM   19  C18 UNL     1      21.479   1.987  49.814  1.00  0.00     0.039 C 
HETATM   20  C19 UNL     1      20.245   1.256  49.391  1.00  0.00     0.036 C 
ENDROOT
BRANCH   6  21
HETATM   21  S1  UNL     1      22.054   5.766  51.482  1.00  0.00    -0.081 SA
BRANCH  21  22
HETATM   22  C7  UNL     1      23.360   5.969  50.309  1.00  0.00     0.075 C 
HETATM   23  C8  UNL     1      24.452   6.438  50.926  1.00  0.00     0.138 C 
BRANCH  23  24
HETATM   24  O1  UNL     1      24.273   6.635  52.290  1.00  0.00    -0.372 OA
HETATM   25  H8  UNL     1      23.480   6.279  52.800  1.00  0.00     0.216 HD
ENDBRANCH  23  24
ENDBRANCH  21  22
ENDBRANCH   6  21
TORSDOF 3
ENDMDL
MODEL 2
REMARK VINA RESULT:      -7.3      2.493      4.566
REMARK  3 active torsions:
REMARK  status: ('A' for Active; 'I' for Inactive)
REMARK    1  A    between atoms: C6_6  and  S1_7 
REMARK    2  A    between atoms: S1_7  and  C7_8 
REMARK    3  A    between atoms: C8_9  and  O1_10 
ROOT
HETATM    1  C1  UNL     1      25.111   0.535  53.400  1.00  0.00     0.043 C 
HETATM    2  C2  UNL     1      24.430   1.662  52.705  1.00  0.00    -0.086 C 
HETATM    3  C3  UNL     1      23.847   1.389  51.543  1.00  0.00    -0.008 C 
HETATM    4  C4  UNL     1      23.155   2.439  50.795  1.00  0.00     0.029 C 
HETATM    5  C5  UNL     1      24.138   3.172  49.914  1.00  0.00     0.028 C 
HETATM    6  C6  UNL     1      23.805   4.459  49.783  1.00  0.00     0.091 C 
HETATM    7  N1  UNL     1      22.618   4.611  50.558  1.00  0.00    -0.252 N 
HETATM    8  N2  UNL     1      21.389   5.245  50.764  1.00  0.00    -0.179 NA
HETATM    9  C9  UNL     1      20.567   4.403  51.350  1.00  0.00     0.038 C 
HETATM   10  C10 UNL     1      19.115   3.994  51.448  1.00  0.00     0.087 C 
HETATM   11  C11 UNL     1      18.916   2.540  51.292  1.00  0.00     0.021 C 
HETATM   12  C12 UNL     1      19.196   1.248  51.034  1.00  0.00     0.112 C 
HETATM   13  F1  UNL     1      18.148   0.337  51.189  1.00  0.00    -0.206 F 
HETATM   14  C13 UNL     1      20.331   0.502  50.516  1.00  0.00     0.038 C 
HETATM   15  C14 UNL     1      21.580   0.617  50.030  1.00  0.00    -0.022 C 
HETATM   16  C15 UNL     1      22.016   2.009  49.962  1.00  0.00     0.047 C 
HETATM   17  C16 UNL     1      21.396   3.552  52.243  1.00  0.00     0.091 C 
HETATM   18  C17 UNL     1      22.745   3.635  51.661  1.00  0.00     0.076 C 
HETATM   19  C18 UNL     1      23.789   4.072  52.604  1.00  0.00     0.039 C 
HETATM   20  C19 UNL     1      24.465   2.982  53.372  1.00  0.00     0.036 C 
ENDROOT
BRANCH   6  21
HETATM   21  S1  UNL     1      24.587   5.770  48.879  1.00  0.00    -0.081 SA
BRANCH  21  22
HETATM   22  C7  UNL     1      24.635   7.272  49.810  1.00  0.00     0.075 C 
HETATM   23  C8  UNL     1      25.903   7.562  50.133  1.00  0.00     0.138 C 
BRANCH  23  24
HETATM   24  O1  UNL     1      26.819   6.630  49.661  1.00  0.00    -0.372 OA
HETATM   25  H8  UNL     1      27.238   5.923  50.244  1.00  0.00     0.216 HD
ENDBRANCH  23  24
ENDBRANCH  21  22
ENDBRANCH   6  21
TORSDOF 3
ENDMDL
MODEL 3
REMARK VINA RESULT:      -7.3      3.940      4.984
REMARK  3 active torsions:
REMARK  status: ('A' for Active; 'I' for Inactive)
REMARK    1  A    between atoms: C6_6  and  S1_7 
REMARK    2  A    between atoms: S1_7  and  C7_8 
REMARK    3  A    between atoms: C8_9  and  O1_10 
ROOT
HETATM    1  C1  UNL     1      19.744   5.607  49.504  1.00  0.00     0.043 C 
HETATM    2  C2  UNL     1      21.215   5.826  49.438  1.00  0.00    -0.086 C 
HETATM    3  C3  UNL     1      21.867   5.893  50.593  1.00  0.00    -0.008 C 
HETATM    4  C4  UNL     1      23.315   6.106  50.618  1.00  0.00     0.029 C 
HETATM    5  C5  UNL     1      23.615   7.585  50.578  1.00  0.00     0.028 C 
HETATM    6  C6  UNL     1      24.751   7.832  49.918  1.00  0.00     0.091 C 
HETATM    7  N1  UNL     1      25.222   6.549  49.511  1.00  0.00    -0.252 N 
HETATM    8  N2  UNL     1      26.293   5.698  49.221  1.00  0.00    -0.179 NA
HETATM    9  C9  UNL     1      25.949   4.464  49.512  1.00  0.00     0.038 C 
HETATM   10  C10 UNL     1      26.481   3.143  50.020  1.00  0.00     0.087 C 
HETATM   11  C11 UNL     1      25.667   2.578  51.114  1.00  0.00     0.021 C 
HETATM   12  C12 UNL     1      24.725   2.495  52.073  1.00  0.00     0.112 C 
HETATM   13  F1  UNL     1      24.650   1.289  52.774  1.00  0.00    -0.206 F 
HETATM   14  C13 UNL     1      23.766   3.400  52.685  1.00  0.00     0.038 C 
HETATM   15  C14 UNL     1      23.317   4.667  52.695  1.00  0.00    -0.022 C 
HETATM   16  C15 UNL     1      24.045   5.514  51.754  1.00  0.00     0.047 C 
HETATM   17  C16 UNL     1      24.496   4.348  49.223  1.00  0.00     0.091 C 
HETATM   18  C17 UNL     1      24.007   5.734  49.303  1.00  0.00     0.076 C 
HETATM   19  C18 UNL     1      23.290   6.197  48.102  1.00  0.00     0.039 C 
HETATM   20  C19 UNL     1      21.816   5.948  48.091  1.00  0.00     0.036 C 
ENDROOT
BRANCH   6  21
HETATM   21  S1  UNL     1      25.576   9.362  49.568  1.00  0.00    -0.081 SA
BRANCH  21  22
HETATM   22  C7  UNL     1      27.194   9.098  48.907  1.00  0.00     0.075 C 
HETATM   23  C8  UNL     1      28.111   9.304  49.862  1.00  0.00     0.138 C 
BRANCH  23  24
HETATM   24  O1  UNL     1      27.560   9.660  51.087  1.00  0.00    -0.372 OA
HETATM   25  H8  UNL     1      26.895  10.410  51.196  1.00  0.00     0.216 HD
ENDBRANCH  23  24
ENDBRANCH  21  22
ENDBRANCH   6  21
TORSDOF 3
ENDMDL
MODEL 4
REMARK VINA RESULT:      -7.3      2.449      3.320
REMARK  3 active torsions:
REMARK  status: ('A' for Active; 'I' for Inactive)
REMARK    1  A    between atoms: C6_6  and  S1_7 
REMARK    2  A    between atoms: S1_7  and  C7_8 
REMARK    3  A    between atoms: C8_9  and  O1_10 
ROOT
HETATM    1  C1  UNL     1      20.245   0.310  51.629  1.00  0.00     0.043 C 
HETATM    2  C2  UNL     1      21.045   1.485  51.186  1.00  0.00    -0.086 C 
HETATM    3  C3  UNL     1      21.842   2.046  52.087  1.00  0.00    -0.008 C 
HETATM    4  C4  UNL     1      22.663   3.205  51.734  1.00  0.00     0.029 C 
HETATM    5  C5  UNL     1      21.866   4.473  51.925  1.00  0.00     0.028 C 
HETATM    6  C6  UNL     1      22.214   5.404  51.032  1.00  0.00     0.091 C 
HETATM    7  N1  UNL     1      23.229   4.790  50.240  1.00  0.00    -0.252 N 
HETATM    8  N2  UNL     1      24.393   4.907  49.475  1.00  0.00    -0.179 NA
HETATM    9  C9  UNL     1      25.088   3.797  49.583  1.00  0.00     0.038 C 
HETATM   10  C10 UNL     1      26.496   3.245  49.618  1.00  0.00     0.087 C 
HETATM   11  C11 UNL     1      26.726   2.331  50.754  1.00  0.00     0.021 C 
HETATM   12  C12 UNL     1      26.504   1.669  51.906  1.00  0.00     0.112 C 
HETATM   13  F1  UNL     1      27.505   0.787  52.322  1.00  0.00    -0.206 F 
HETATM   14  C13 UNL     1      25.493   1.684  52.950  1.00  0.00     0.038 C 
HETATM   15  C14 UNL     1      24.361   2.283  53.361  1.00  0.00    -0.022 C 
HETATM   16  C15 UNL     1      23.943   3.347  52.453  1.00  0.00     0.047 C 
HETATM   17  C16 UNL     1      24.105   2.691  49.713  1.00  0.00     0.091 C 
HETATM   18  C17 UNL     1      22.894   3.350  50.226  1.00  0.00     0.076 C 
HETATM   19  C18 UNL     1      21.686   3.121  49.414  1.00  0.00     0.039 C 
HETATM   20  C19 UNL     1      20.877   1.919  49.781  1.00  0.00     0.036 C 
ENDROOT
BRANCH   6  21
HETATM   21  S1  UNL     1      21.618   7.058  50.792  1.00  0.00    -0.081 SA
BRANCH  21  22
HETATM   22  C7  UNL     1      22.565   7.927  49.578  1.00  0.00     0.075 C 
HETATM   23  C8  UNL     1      23.727   8.325  50.113  1.00  0.00     0.138 C 
BRANCH  23  24
HETATM   24  O1  UNL     1      23.875   7.959  51.445  1.00  0.00    -0.372 OA
HETATM   25  H8  UNL     1      23.099   7.857  52.080  1.00  0.00     0.216 HD
ENDBRANCH  23  24
ENDBRANCH  21  22
ENDBRANCH   6  21
TORSDOF 3
ENDMDL
MODEL 5
REMARK VINA RESULT:      -7.3      3.401      5.515
REMARK  3 active torsions:
REMARK  status: ('A' for Active; 'I' for Inactive)
REMARK    1  A    between atoms: C6_6  and  S1_7 
REMARK    2  A    between atoms: S1_7  and  C7_8 
REMARK    3  A    between atoms: C8_9  and  O1_10 
ROOT
HETATM    1  C1  UNL     1      19.053   0.478  50.943  1.00  0.00     0.043 C 
HETATM    2  C2  UNL     1      20.231   1.371  51.121  1.00  0.00    -0.086 C 
HETATM    3  C3  UNL     1      21.213   1.257  50.234  1.00  0.00    -0.008 C 
HETATM    4  C4  UNL     1      22.407   2.097  50.335  1.00  0.00     0.029 C 
HETATM    5  C5  UNL     1      23.414   1.446  51.253  1.00  0.00     0.028 C 
HETATM    6  C6  UNL     1      24.121   2.361  51.924  1.00  0.00     0.091 C 
HETATM    7  N1  UNL     1      23.611   3.616  51.478  1.00  0.00    -0.252 N 
HETATM    8  N2  UNL     1      23.823   4.968  51.196  1.00  0.00    -0.179 NA
HETATM    9  C9  UNL     1      23.017   5.334  50.224  1.00  0.00     0.038 C 
HETATM   10  C10 UNL     1      22.898   6.245  49.023  1.00  0.00     0.087 C 
HETATM   11  C11 UNL     1      22.431   5.542  47.813  1.00  0.00     0.021 C 
HETATM   12  C12 UNL     1      22.077   4.528  46.999  1.00  0.00     0.112 C 
HETATM   13  F1  UNL     1      21.649   4.876  45.716  1.00  0.00    -0.206 F 
HETATM   14  C13 UNL     1      22.105   3.076  47.056  1.00  0.00     0.038 C 
HETATM   15  C14 UNL     1      22.464   2.023  47.811  1.00  0.00    -0.022 C 
HETATM   16  C15 UNL     1      23.082   2.433  49.068  1.00  0.00     0.047 C 
HETATM   17  C16 UNL     1      21.766   4.550  50.392  1.00  0.00     0.091 C 
HETATM   18  C17 UNL     1      22.188   3.369  51.162  1.00  0.00     0.076 C 
HETATM   19  C18 UNL     1      21.426   3.147  52.403  1.00  0.00     0.039 C 
HETATM   20  C19 UNL     1      20.199   2.304  52.269  1.00  0.00     0.036 C 
ENDROOT
BRANCH   6  21
HETATM   21  S1  UNL     1      25.419   2.173  53.119  1.00  0.00    -0.081 SA
BRANCH  21  22
HETATM   22  C7  UNL     1      26.929   1.644  52.369  1.00  0.00     0.075 C 
HETATM   23  C8  UNL     1      27.970   2.120  53.065  1.00  0.00     0.138 C 
BRANCH  23  24
HETATM   24  O1  UNL     1      27.595   2.883  54.164  1.00  0.00    -0.372 OA
HETATM   25  H8  UNL     1      27.960   2.733  55.091  1.00  0.00     0.216 HD
ENDBRANCH  23  24
ENDBRANCH  21  22
ENDBRANCH   6  21
TORSDOF 3
ENDMDL
MODEL 6
REMARK VINA RESULT:      -7.3      3.202      5.827
REMARK  3 active torsions:
REMARK  status: ('A' for Active; 'I' for Inactive)
REMARK    1  A    between atoms: C6_6  and  S1_7 
REMARK    2  A    between atoms: S1_7  and  C7_8 
REMARK    3  A    between atoms: C8_9  and  O1_10 
ROOT
HETATM    1  C1  UNL     1      26.293   8.070  50.174  1.00  0.00     0.043 C 
HETATM    2  C2  UNL     1      25.204   7.056  50.215  1.00  0.00    -0.086 C 
HETATM    3  C3  UNL     1      25.436   5.897  49.610  1.00  0.00    -0.008 C 
HETATM    4  C4  UNL     1      24.418   4.845  49.604  1.00  0.00     0.029 C 
HETATM    5  C5  UNL     1      23.479   5.049  48.440  1.00  0.00     0.028 C 
HETATM    6  C6  UNL     1      22.240   4.648  48.741  1.00  0.00     0.091 C 
HETATM    7  N1  UNL     1      22.324   4.178  50.084  1.00  0.00    -0.252 N 
HETATM    8  N2  UNL     1      21.883   3.306  51.083  1.00  0.00    -0.179 NA
HETATM    9  C9  UNL     1      22.879   3.053  51.901  1.00  0.00     0.038 C 
HETATM   10  C10 UNL     1      23.485   1.984  52.784  1.00  0.00     0.087 C 
HETATM   11  C11 UNL     1      24.930   1.797  52.550  1.00  0.00     0.021 C 
HETATM   12  C12 UNL     1      26.142   1.919  51.974  1.00  0.00     0.112 C 
HETATM   13  F1  UNL     1      27.194   1.228  52.579  1.00  0.00    -0.206 F 
HETATM   14  C13 UNL     1      26.676   2.532  50.769  1.00  0.00     0.038 C 
HETATM   15  C14 UNL     1      26.349   3.216  49.658  1.00  0.00    -0.022 C 
HETATM   16  C15 UNL     1      24.912   3.455  49.564  1.00  0.00     0.047 C 
HETATM   17  C16 UNL     1      23.697   4.292  51.971  1.00  0.00     0.091 C 
HETATM   18  C17 UNL     1      23.379   4.997  50.719  1.00  0.00     0.076 C 
HETATM   19  C18 UNL     1      22.902   6.379  50.903  1.00  0.00     0.039 C 
HETATM   20  C19 UNL     1      23.962   7.433  50.928  1.00  0.00     0.036 C 
ENDROOT
BRANCH   6  21
HETATM   21  S1  UNL     1      20.754   4.653  47.771  1.00  0.00    -0.081 SA
BRANCH  21  22
HETATM   22  C7  UNL     1      19.326   4.321  48.758  1.00  0.00     0.075 C 
HETATM   23  C8  UNL     1      18.963   3.040  48.610  1.00  0.00     0.138 C 
BRANCH  23  24
HETATM   24  O1  UNL     1      19.786   2.331  47.744  1.00  0.00    -0.372 OA
HETATM   25  H8  UNL     1      20.700   1.994  48.002  1.00  0.00     0.216 HD
ENDBRANCH  23  24
ENDBRANCH  21  22
ENDBRANCH   6  21
TORSDOF 3
ENDMDL
MODEL 7
REMARK VINA RESULT:      -7.1      1.770      2.257
REMARK  3 active torsions:
REMARK  status: ('A' for Active; 'I' for Inactive)
REMARK    1  A    between atoms: C6_6  and  S1_7 
REMARK    2  A    between atoms: S1_7  and  C7_8 
REMARK    3  A    between atoms: C8_9  and  O1_10 
ROOT
HETATM    1  C1  UNL     1      19.665   2.785  47.807  1.00  0.00     0.043 C 
HETATM    2  C2  UNL     1      20.831   3.053  48.693  1.00  0.00    -0.086 C 
HETATM    3  C3  UNL     1      20.573   3.282  49.976  1.00  0.00    -0.008 C 
HETATM    4  C4  UNL     1      21.662   3.554  50.915  1.00  0.00     0.029 C 
HETATM    5  C5  UNL     1      21.985   5.029  50.911  1.00  0.00     0.028 C 
HETATM    6  C6  UNL     1      23.286   5.241  51.131  1.00  0.00     0.091 C 
HETATM    7  N1  UNL     1      23.847   3.939  51.282  1.00  0.00    -0.252 N 
HETATM    8  N2  UNL     1      24.806   3.103  51.862  1.00  0.00    -0.179 NA
HETATM    9  C9  UNL     1      24.298   1.899  51.997  1.00  0.00     0.038 C 
HETATM   10  C10 UNL     1      24.306   0.669  52.877  1.00  0.00     0.087 C 
HETATM   11  C11 UNL     1      22.950   0.205  53.229  1.00  0.00     0.021 C 
HETATM   12  C12 UNL     1      21.608   0.198  53.342  1.00  0.00     0.112 C 
HETATM   13  F1  UNL     1      21.037  -0.919  53.956  1.00  0.00    -0.206 F 
HETATM   14  C13 UNL     1      20.526   1.130  53.069  1.00  0.00     0.038 C 
HETATM   15  C14 UNL     1      20.240   2.371  52.637  1.00  0.00    -0.022 C 
HETATM   16  C15 UNL     1      21.444   3.129  52.311  1.00  0.00     0.047 C 
HETATM   17  C16 UNL     1      23.382   1.692  50.845  1.00  0.00     0.091 C 
HETATM   18  C17 UNL     1      23.026   3.057  50.426  1.00  0.00     0.076 C 
HETATM   19  C18 UNL     1      23.289   3.346  49.005  1.00  0.00     0.039 C 
HETATM   20  C19 UNL     1      22.170   3.039  48.063  1.00  0.00     0.036 C 
ENDROOT
BRANCH   6  21
HETATM   21  S1  UNL     1      24.211   6.751  51.231  1.00  0.00    -0.081 SA
BRANCH  21  22
HETATM   22  C7  UNL     1      24.585   7.399  49.630  1.00  0.00     0.075 C 
HETATM   23  C8  UNL     1      25.830   7.893  49.622  1.00  0.00     0.138 C 
BRANCH  23  24
HETATM   24  O1  UNL     1      26.481   7.767  50.844  1.00  0.00    -0.372 OA
HETATM   25  H8  UNL     1      27.466   7.943  50.966  1.00  0.00     0.216 HD
ENDBRANCH  23  24
ENDBRANCH  21  22
ENDBRANCH   6  21
TORSDOF 3
ENDMDL
MODEL 8
REMARK VINA RESULT:      -6.8      9.411     12.229
REMARK  3 active torsions:
REMARK  status: ('A' for Active; 'I' for Inactive)
REMARK    1  A    between atoms: C6_6  and  S1_7 
REMARK    2  A    between atoms: S1_7  and  C7_8 
REMARK    3  A    between atoms: C8_9  and  O1_10 
ROOT
HETATM    1  C1  UNL     1      27.347   6.100  48.250  1.00  0.00     0.043 C 
HETATM    2  C2  UNL     1      28.404   7.103  47.947  1.00  0.00    -0.086 C 
HETATM    3  C3  UNL     1      29.464   7.122  48.746  1.00  0.00    -0.008 C 
HETATM    4  C4  UNL     1      30.550   8.077  48.518  1.00  0.00     0.029 C 
HETATM    5  C5  UNL     1      30.238   9.381  49.212  1.00  0.00     0.028 C 
HETATM    6  C6  UNL     1      30.728  10.421  48.531  1.00  0.00     0.091 C 
HETATM    7  N1  UNL     1      31.363   9.846  47.391  1.00  0.00    -0.252 N 
HETATM    8  N2  UNL     1      32.375   9.891  46.428  1.00  0.00    -0.179 NA
HETATM    9  C9  UNL     1      32.687   8.663  46.079  1.00  0.00     0.038 C 
HETATM   10  C10 UNL     1      33.833   7.780  45.637  1.00  0.00     0.087 C 
HETATM   11  C11 UNL     1      33.926   6.528  46.412  1.00  0.00     0.021 C 
HETATM   12  C12 UNL     1      33.679   5.617  47.374  1.00  0.00     0.112 C 
HETATM   13  F1  UNL     1      34.396   4.421  47.300  1.00  0.00    -0.206 F 
HETATM   14  C13 UNL     1      32.893   5.566  48.596  1.00  0.00     0.038 C 
HETATM   15  C14 UNL     1      32.087   6.278  49.403  1.00  0.00    -0.022 C 
HETATM   16  C15 UNL     1      31.900   7.644  48.925  1.00  0.00     0.047 C 
HETATM   17  C16 UNL     1      31.433   7.869  46.150  1.00  0.00     0.091 C 
HETATM   18  C17 UNL     1      30.587   8.625  47.087  1.00  0.00     0.076 C 
HETATM   19  C18 UNL     1      29.262   8.988  46.555  1.00  0.00     0.039 C 
HETATM   20  C19 UNL     1      28.176   7.987  46.781  1.00  0.00     0.036 C 
ENDROOT
BRANCH   6  21
HETATM   21  S1  UNL     1      30.663  12.161  48.872  1.00  0.00    -0.081 SA
BRANCH  21  22
HETATM   22  C7  UNL     1      29.553  13.001  47.783  1.00  0.00     0.075 C 
HETATM   23  C8  UNL     1      28.442  13.345  48.449  1.00  0.00     0.138 C 
BRANCH  23  24
HETATM   24  O1  UNL     1      28.458  12.961  49.784  1.00  0.00    -0.372 OA
HETATM   25  H8  UNL     1      27.790  13.292  50.462  1.00  0.00     0.216 HD
ENDBRANCH  23  24
ENDBRANCH  21  22
ENDBRANCH   6  21
TORSDOF 3
ENDMDL
MODEL 9
REMARK VINA RESULT:      -6.6     11.996     13.856
REMARK  3 active torsions:
REMARK  status: ('A' for Active; 'I' for Inactive)
REMARK    1  A    between atoms: C6_6  and  S1_7 
REMARK    2  A    between atoms: S1_7  and  C7_8 
REMARK    3  A    between atoms: C8_9  and  O1_10 
ROOT
HETATM    1  C1  UNL     1      34.990   9.916  44.273  1.00  0.00     0.043 C 
HETATM    2  C2  UNL     1      34.319   9.144  45.354  1.00  0.00    -0.086 C 
HETATM    3  C3  UNL     1      33.558   8.121  44.982  1.00  0.00    -0.008 C 
HETATM    4  C4  UNL     1      32.863   7.310  45.982  1.00  0.00     0.029 C 
HETATM    5  C5  UNL     1      31.530   7.937  46.313  1.00  0.00     0.028 C 
HETATM    6  C6  UNL     1      31.198   7.724  47.590  1.00  0.00     0.091 C 
HETATM    7  N1  UNL     1      32.280   6.967  48.128  1.00  0.00    -0.252 N 
HETATM    8  N2  UNL     1      32.742   6.000  49.025  1.00  0.00    -0.179 NA
HETATM    9  C9  UNL     1      33.780   5.390  48.499  1.00  0.00     0.038 C 
HETATM   10  C10 UNL     1      34.496   4.060  48.419  1.00  0.00     0.087 C 
HETATM   11  C11 UNL     1      34.805   3.656  47.034  1.00  0.00     0.021 C 
HETATM   12  C12 UNL     1      34.808   3.665  45.687  1.00  0.00     0.112 C 
HETATM   13  F1  UNL     1      35.560   2.672  45.056  1.00  0.00    -0.206 F 
HETATM   14  C13 UNL     1      34.129   4.412  44.640  1.00  0.00     0.038 C 
HETATM   15  C14 UNL     1      33.216   5.369  44.403  1.00  0.00    -0.022 C 
HETATM   16  C15 UNL     1      32.637   5.894  45.636  1.00  0.00     0.047 C 
HETATM   17  C16 UNL     1      34.504   6.405  47.690  1.00  0.00     0.091 C 
HETATM   18  C17 UNL     1      33.476   7.412  47.383  1.00  0.00     0.076 C 
HETATM   19  C18 UNL     1      33.833   8.786  47.776  1.00  0.00     0.039 C 
HETATM   20  C19 UNL     1      34.562   9.587  46.745  1.00  0.00     0.036 C 
ENDROOT
BRANCH   6  21
HETATM   21  S1  UNL     1      29.767   8.223  48.512  1.00  0.00    -0.081 SA
BRANCH  21  22
HETATM   22  C7  UNL     1      29.324   9.901  48.179  1.00  0.00     0.075 C 
HETATM   23  C8  UNL     1      29.769  10.690  49.167  1.00  0.00     0.138 C 
BRANCH  23  24
HETATM   24  O1  UNL     1      30.444   9.996  50.164  1.00  0.00    -0.372 OA
HETATM   25  H8  UNL     1      30.158   9.088  50.495  1.00  0.00     0.216 HD
ENDBRANCH  23  24
ENDBRANCH  21  22
ENDBRANCH   6  21
TORSDOF 3
ENDMDL
