MODEL 1
REMARK VINA RESULT:      -8.4      0.000      0.000
REMARK  5 active torsions:
REMARK  status: ('A' for Active; 'I' for Inactive)
REMARK    1  A    between atoms: C5_5  and  C6_6 
REMARK    2  A    between atoms: C10_10  and  C11_11 
REMARK    3  A    between atoms: C11_11  and  C12_12 
REMARK       I    between atoms: C12_12  and  N1_14 
REMARK    4  A    between atoms: N1_14  and  C13_15 
REMARK    5  A    between atoms: C19_21  and  O2_22 
ROOT
HETATM    1  C6  UNL     1      26.283   0.110  53.838  1.00  0.00    -0.016 A 
HETATM    2  C7  UNL     1      26.065   0.851  52.693  1.00  0.00     0.011 A 
HETATM    3  C8  UNL     1      24.788   0.968  52.184  1.00  0.00     0.001 A 
HETATM    4  C9  UNL     1      23.716   0.356  52.800  1.00  0.00     0.010 A 
HETATM    5  C10 UNL     1      23.914  -0.393  53.952  1.00  0.00    -0.016 A 
HETATM    6  C19 UNL     1      25.189  -0.502  54.450  1.00  0.00     0.079 A 
ENDROOT
BRANCH   5   7
HETATM    7  C11 UNL     1      22.849  -1.090  54.687  1.00  0.00     0.144 C 
BRANCH   7   8
HETATM    8  C12 UNL     1      21.536  -0.421  54.584  1.00  0.00     0.226 C 
HETATM    9  O1  UNL     1      20.868   0.526  55.071  1.00  0.00    -0.273 OA
HETATM   10  N1  UNL     1      20.793  -1.098  53.591  1.00  0.00    -0.327 N 
HETATM   11  H13 UNL     1      21.005  -1.924  52.970  1.00  0.00     0.169 HD
BRANCH  10  12
HETATM   12  C13 UNL     1      19.479  -0.882  53.086  1.00  0.00     0.034 A 
HETATM   13  C14 UNL     1      19.353   0.053  52.054  1.00  0.00     0.029 A 
HETATM   14  C15 UNL     1      18.154   0.392  51.444  1.00  0.00     0.002 A 
HETATM   15  C16 UNL     1      16.998  -0.236  51.882  1.00  0.00     0.000 A 
HETATM   16  C17 UNL     1      17.114  -1.161  52.900  1.00  0.00     0.002 A 
HETATM   17  C18 UNL     1      18.294  -1.498  53.504  1.00  0.00     0.029 A 
ENDBRANCH  10  12
ENDBRANCH   7   8
ENDBRANCH   5   7
BRANCH   6  18
HETATM   18  O2  UNL     1      25.441  -1.243  55.604  1.00  0.00    -0.360 OA
HETATM   19  H19 UNL     1      26.042  -2.076  55.521  1.00  0.00     0.217 HD
ENDBRANCH   6  18
BRANCH   1  20
HETATM   20  C5  UNL     1      27.648  -0.063  54.452  1.00  0.00     0.053 A 
HETATM   21  C2  UNL     1      28.588  -0.816  53.655  1.00  0.00    -0.079 A 
HETATM   22  C1  UNL     1      28.808  -2.196  53.087  1.00  0.00     0.044 C 
HETATM   23  C3  UNL     1      29.390   0.195  53.499  1.00  0.00    -0.023 A 
HETATM   24  C4  UNL     1      28.561   1.088  54.273  1.00  0.00     0.041 A 
ENDBRANCH   1  20
TORSDOF 5
ENDMDL
MODEL 2
REMARK VINA RESULT:      -8.2      4.038      6.600
REMARK  5 active torsions:
REMARK  status: ('A' for Active; 'I' for Inactive)
REMARK    1  A    between atoms: C5_5  and  C6_6 
REMARK    2  A    between atoms: C10_10  and  C11_11 
REMARK    3  A    between atoms: C11_11  and  C12_12 
REMARK       I    between atoms: C12_12  and  N1_14 
REMARK    4  A    between atoms: N1_14  and  C13_15 
REMARK    5  A    between atoms: C19_21  and  O2_22 
ROOT
HETATM    1  C6  UNL     1      26.301   0.070  53.004  1.00  0.00    -0.016 A 
HETATM    2  C7  UNL     1      25.575  -0.597  53.970  1.00  0.00     0.011 A 
HETATM    3  C8  UNL     1      24.203  -0.458  54.016  1.00  0.00     0.001 A 
HETATM    4  C9  UNL     1      23.537   0.339  53.109  1.00  0.00     0.010 A 
HETATM    5  C10 UNL     1      24.249   1.019  52.130  1.00  0.00    -0.016 A 
HETATM    6  C19 UNL     1      25.614   0.873  52.093  1.00  0.00     0.079 A 
ENDROOT
BRANCH   5   7
HETATM    7  C11 UNL     1      23.645   1.897  51.118  1.00  0.00     0.144 C 
BRANCH   7   8
HETATM    8  C12 UNL     1      24.222   3.258  51.108  1.00  0.00     0.226 C 
HETATM    9  O1  UNL     1      24.364   4.277  51.831  1.00  0.00    -0.273 OA
HETATM   10  N1  UNL     1      24.808   3.459  49.838  1.00  0.00    -0.327 N 
HETATM   11  H13 UNL     1      24.893   2.853  48.979  1.00  0.00     0.169 HD
BRANCH  10  12
HETATM   12  C13 UNL     1      25.497   4.576  49.284  1.00  0.00     0.034 A 
HETATM   13  C14 UNL     1      26.876   4.431  49.102  1.00  0.00     0.029 A 
HETATM   14  C15 UNL     1      27.707   5.412  48.580  1.00  0.00     0.002 A 
HETATM   15  C16 UNL     1      27.137   6.621  48.210  1.00  0.00     0.000 A 
HETATM   16  C17 UNL     1      25.776   6.772  48.386  1.00  0.00     0.002 A 
HETATM   17  C18 UNL     1      24.954   5.808  48.902  1.00  0.00     0.029 A 
ENDBRANCH  10  12
ENDBRANCH   7   8
ENDBRANCH   5   7
BRANCH   6  18
HETATM   18  O2  UNL     1      26.374   1.533  51.130  1.00  0.00    -0.360 OA
HETATM   19  H19 UNL     1      25.875   2.065  50.401  1.00  0.00     0.217 HD
ENDBRANCH   6  18
BRANCH   1  20
HETATM   20  C5  UNL     1      27.800  -0.033  52.892  1.00  0.00     0.053 A 
HETATM   21  C2  UNL     1      28.541   0.957  53.639  1.00  0.00    -0.079 A 
HETATM   22  C1  UNL     1      28.775   2.446  53.708  1.00  0.00     0.044 C 
HETATM   23  C3  UNL     1      29.089   0.075  54.421  1.00  0.00    -0.023 A 
HETATM   24  C4  UNL     1      28.424  -1.037  53.783  1.00  0.00     0.041 A 
ENDBRANCH   1  20
TORSDOF 5
ENDMDL
MODEL 3
REMARK VINA RESULT:      -8.0      1.886      3.351
REMARK  5 active torsions:
REMARK  status: ('A' for Active; 'I' for Inactive)
REMARK    1  A    between atoms: C5_5  and  C6_6 
REMARK    2  A    between atoms: C10_10  and  C11_11 
REMARK    3  A    between atoms: C11_11  and  C12_12 
REMARK       I    between atoms: C12_12  and  N1_14 
REMARK    4  A    between atoms: N1_14  and  C13_15 
REMARK    5  A    between atoms: C19_21  and  O2_22 
ROOT
HETATM    1  C6  UNL     1      24.052  -0.253  53.490  1.00  0.00    -0.016 A 
HETATM    2  C7  UNL     1      24.086  -1.107  54.575  1.00  0.00     0.011 A 
HETATM    3  C8  UNL     1      22.941  -1.319  55.316  1.00  0.00     0.001 A 
HETATM    4  C9  UNL     1      21.756  -0.691  54.994  1.00  0.00     0.010 A 
HETATM    5  C10 UNL     1      21.702   0.172  53.907  1.00  0.00    -0.016 A 
HETATM    6  C19 UNL     1      22.847   0.374  53.176  1.00  0.00     0.079 A 
ENDROOT
BRANCH   5   7
HETATM    7  C11 UNL     1      20.499   0.896  53.476  1.00  0.00     0.144 C 
BRANCH   7   8
HETATM    8  C12 UNL     1      19.598   0.081  52.634  1.00  0.00     0.226 C 
HETATM    9  O1  UNL     1      19.329  -0.173  51.433  1.00  0.00    -0.273 OA
HETATM   10  N1  UNL     1      18.761  -0.657  53.502  1.00  0.00    -0.327 N 
HETATM   11  H13 UNL     1      18.683  -0.714  54.551  1.00  0.00     0.169 HD
BRANCH  10  12
HETATM   12  C13 UNL     1      17.719  -1.591  53.237  1.00  0.00     0.034 A 
HETATM   13  C14 UNL     1      17.901  -2.885  53.735  1.00  0.00     0.029 A 
HETATM   14  C15 UNL     1      16.995  -3.923  53.572  1.00  0.00     0.002 A 
HETATM   15  C16 UNL     1      15.827  -3.666  52.869  1.00  0.00     0.000 A 
HETATM   16  C17 UNL     1      15.640  -2.391  52.375  1.00  0.00     0.002 A 
HETATM   17  C18 UNL     1      16.531  -1.365  52.533  1.00  0.00     0.029 A 
ENDBRANCH  10  12
ENDBRANCH   7   8
ENDBRANCH   5   7
BRANCH   6  18
HETATM   18  O2  UNL     1      22.846   1.230  52.076  1.00  0.00    -0.360 OA
HETATM   19  H19 UNL     1      23.537   1.061  51.331  1.00  0.00     0.217 HD
ENDBRANCH   6  18
BRANCH   1  20
HETATM   20  C5  UNL     1      25.260   0.028  52.635  1.00  0.00     0.053 A 
HETATM   21  C2  UNL     1      26.256   0.881  53.240  1.00  0.00    -0.079 A 
HETATM   22  C1  UNL     1      26.446   2.289  53.748  1.00  0.00     0.044 C 
HETATM   23  C3  UNL     1      27.164  -0.048  53.252  1.00  0.00    -0.023 A 
HETATM   24  C4  UNL     1      26.294  -1.032  52.650  1.00  0.00     0.041 A 
ENDBRANCH   1  20
TORSDOF 5
ENDMDL
MODEL 4
REMARK VINA RESULT:      -7.9      4.207      7.075
REMARK  5 active torsions:
REMARK  status: ('A' for Active; 'I' for Inactive)
REMARK    1  A    between atoms: C5_5  and  C6_6 
REMARK    2  A    between atoms: C10_10  and  C11_11 
REMARK    3  A    between atoms: C11_11  and  C12_12 
REMARK       I    between atoms: C12_12  and  N1_14 
REMARK    4  A    between atoms: N1_14  and  C13_15 
REMARK    5  A    between atoms: C19_21  and  O2_22 
ROOT
HETATM    1  C6  UNL     1      24.525   0.054  53.331  1.00  0.00    -0.016 A 
HETATM    2  C7  UNL     1      25.206  -1.139  53.194  1.00  0.00     0.011 A 
HETATM    3  C8  UNL     1      26.492  -1.141  52.692  1.00  0.00     0.001 A 
HETATM    4  C9  UNL     1      27.114   0.034  52.322  1.00  0.00     0.010 A 
HETATM    5  C10 UNL     1      26.445   1.243  52.451  1.00  0.00    -0.016 A 
HETATM    6  C19 UNL     1      25.166   1.233  52.953  1.00  0.00     0.079 A 
ENDROOT
BRANCH   5   7
HETATM    7  C11 UNL     1      27.007   2.551  52.085  1.00  0.00     0.144 C 
BRANCH   7   8
HETATM    8  C12 UNL     1      26.658   2.971  50.712  1.00  0.00     0.226 C 
HETATM    9  O1  UNL     1      26.832   2.657  49.507  1.00  0.00    -0.273 OA
HETATM   10  N1  UNL     1      25.851   4.127  50.816  1.00  0.00    -0.327 N 
HETATM   11  H13 UNL     1      25.492   4.684  51.636  1.00  0.00     0.169 HD
BRANCH  10  12
HETATM   12  C13 UNL     1      25.240   4.942  49.821  1.00  0.00     0.034 A 
HETATM   13  C14 UNL     1      25.989   6.030  49.360  1.00  0.00     0.029 A 
HETATM   14  C15 UNL     1      25.555   6.931  48.399  1.00  0.00     0.002 A 
HETATM   15  C16 UNL     1      24.294   6.746  47.852  1.00  0.00     0.000 A 
HETATM   16  C17 UNL     1      23.549   5.674  48.301  1.00  0.00     0.002 A 
HETATM   17  C18 UNL     1      23.973   4.784  49.249  1.00  0.00     0.029 A 
ENDBRANCH  10  12
ENDBRANCH   7   8
ENDBRANCH   5   7
BRANCH   6  18
HETATM   18  O2  UNL     1      24.452   2.420  53.102  1.00  0.00    -0.360 OA
HETATM   19  H19 UNL     1      24.358   3.035  52.280  1.00  0.00     0.217 HD
ENDBRANCH   6  18
BRANCH   1  20
HETATM   20  C5  UNL     1      23.120   0.134  53.871  1.00  0.00     0.053 A 
HETATM   21  C2  UNL     1      22.084  -0.260  52.946  1.00  0.00    -0.079 A 
HETATM   22  C1  UNL     1      21.466   0.145  51.630  1.00  0.00     0.044 C 
HETATM   23  C3  UNL     1      21.714  -1.277  53.665  1.00  0.00    -0.023 A 
HETATM   24  C4  UNL     1      22.700  -1.025  54.690  1.00  0.00     0.041 A 
ENDBRANCH   1  20
TORSDOF 5
ENDMDL
MODEL 5
REMARK VINA RESULT:      -7.9      4.581      7.266
REMARK  5 active torsions:
REMARK  status: ('A' for Active; 'I' for Inactive)
REMARK    1  A    between atoms: C5_5  and  C6_6 
REMARK    2  A    between atoms: C10_10  and  C11_11 
REMARK    3  A    between atoms: C11_11  and  C12_12 
REMARK       I    between atoms: C12_12  and  N1_14 
REMARK    4  A    between atoms: N1_14  and  C13_15 
REMARK    5  A    between atoms: C19_21  and  O2_22 
ROOT
HETATM    1  C6  UNL     1      24.017   1.266  52.978  1.00  0.00    -0.016 A 
HETATM    2  C7  UNL     1      22.962   0.436  52.655  1.00  0.00     0.011 A 
HETATM    3  C8  UNL     1      21.811   0.969  52.111  1.00  0.00     0.001 A 
HETATM    4  C9  UNL     1      21.693   2.324  51.883  1.00  0.00     0.010 A 
HETATM    5  C10 UNL     1      22.743   3.175  52.201  1.00  0.00    -0.016 A 
HETATM    6  C19 UNL     1      23.883   2.633  52.741  1.00  0.00     0.079 A 
ENDROOT
BRANCH   5   7
HETATM    7  C11 UNL     1      22.725   4.632  52.005  1.00  0.00     0.144 C 
BRANCH   7   8
HETATM    8  C12 UNL     1      23.292   5.052  50.707  1.00  0.00     0.226 C 
HETATM    9  O1  UNL     1      22.968   5.271  49.512  1.00  0.00    -0.273 OA
HETATM   10  N1  UNL     1      24.672   5.280  50.902  1.00  0.00    -0.327 N 
HETATM   11  H13 UNL     1      25.303   5.205  51.743  1.00  0.00     0.169 HD
BRANCH  10  12
HETATM   12  C13 UNL     1      25.695   5.696  50.002  1.00  0.00     0.034 A 
HETATM   13  C14 UNL     1      26.511   4.689  49.477  1.00  0.00     0.029 A 
HETATM   14  C15 UNL     1      27.556   4.907  48.592  1.00  0.00     0.002 A 
HETATM   15  C16 UNL     1      27.814   6.211  48.195  1.00  0.00     0.000 A 
HETATM   16  C17 UNL     1      27.013   7.211  48.708  1.00  0.00     0.002 A 
HETATM   17  C18 UNL     1      25.982   6.999  49.582  1.00  0.00     0.029 A 
ENDBRANCH  10  12
ENDBRANCH   7   8
ENDBRANCH   5   7
BRANCH   6  18
HETATM   18  O2  UNL     1      24.965   3.444  53.078  1.00  0.00    -0.360 OA
HETATM   19  H19 UNL     1      25.157   4.266  52.485  1.00  0.00     0.217 HD
ENDBRANCH   6  18
BRANCH   1  20
HETATM   20  C5  UNL     1      25.304   0.756  53.575  1.00  0.00     0.053 A 
HETATM   21  C2  UNL     1      25.211  -0.529  54.227  1.00  0.00    -0.079 A 
HETATM   22  C1  UNL     1      24.546  -1.208  55.399  1.00  0.00     0.044 C 
HETATM   23  C3  UNL     1      26.014  -1.107  53.384  1.00  0.00    -0.023 A 
HETATM   24  C4  UNL     1      26.218   0.098  52.614  1.00  0.00     0.041 A 
ENDBRANCH   1  20
TORSDOF 5
ENDMDL
MODEL 6
REMARK VINA RESULT:      -7.8      1.869      2.814
REMARK  5 active torsions:
REMARK  status: ('A' for Active; 'I' for Inactive)
REMARK    1  A    between atoms: C5_5  and  C6_6 
REMARK    2  A    between atoms: C10_10  and  C11_11 
REMARK    3  A    between atoms: C11_11  and  C12_12 
REMARK       I    between atoms: C12_12  and  N1_14 
REMARK    4  A    between atoms: N1_14  and  C13_15 
REMARK    5  A    between atoms: C19_21  and  O2_22 
ROOT
HETATM    1  C6  UNL     1      25.381   0.056  52.852  1.00  0.00    -0.016 A 
HETATM    2  C7  UNL     1      24.864  -0.756  53.842  1.00  0.00     0.011 A 
HETATM    3  C8  UNL     1      23.545  -0.619  54.222  1.00  0.00     0.001 A 
HETATM    4  C9  UNL     1      22.726   0.320  53.629  1.00  0.00     0.010 A 
HETATM    5  C10 UNL     1      23.227   1.145  52.631  1.00  0.00    -0.016 A 
HETATM    6  C19 UNL     1      24.541   0.999  52.260  1.00  0.00     0.079 A 
ENDROOT
BRANCH   5   7
HETATM    7  C11 UNL     1      22.449   2.179  51.935  1.00  0.00     0.144 C 
BRANCH   7   8
HETATM    8  C12 UNL     1      20.998   2.098  52.205  1.00  0.00     0.226 C 
HETATM    9  O1  UNL     1      20.069   2.697  52.803  1.00  0.00    -0.273 OA
HETATM   10  N1  UNL     1      20.512   0.941  51.557  1.00  0.00    -0.327 N 
HETATM   11  H13 UNL     1      20.973   0.197  50.968  1.00  0.00     0.169 HD
BRANCH  10  12
HETATM   12  C13 UNL     1      19.205   0.381  51.482  1.00  0.00     0.034 A 
HETATM   13  C14 UNL     1      18.805  -0.416  52.560  1.00  0.00     0.029 A 
HETATM   14  C15 UNL     1      17.572  -1.043  52.657  1.00  0.00     0.002 A 
HETATM   15  C16 UNL     1      16.668  -0.871  51.620  1.00  0.00     0.000 A 
HETATM   16  C17 UNL     1      17.054  -0.086  50.553  1.00  0.00     0.002 A 
HETATM   17  C18 UNL     1      18.270   0.534  50.452  1.00  0.00     0.029 A 
ENDBRANCH  10  12
ENDBRANCH   7   8
ENDBRANCH   5   7
BRANCH   6  18
HETATM   18  O2  UNL     1      25.093   1.803  51.265  1.00  0.00    -0.360 OA
HETATM   19  H19 UNL     1      24.515   2.568  50.886  1.00  0.00     0.217 HD
ENDBRANCH   6  18
BRANCH   1  20
HETATM   20  C5  UNL     1      26.810  -0.036  52.385  1.00  0.00     0.053 A 
HETATM   21  C2  UNL     1      27.755   0.751  53.142  1.00  0.00    -0.079 A 
HETATM   22  C1  UNL     1      28.090   2.183  53.478  1.00  0.00     0.044 C 
HETATM   23  C3  UNL     1      28.405  -0.290  53.569  1.00  0.00    -0.023 A 
HETATM   24  C4  UNL     1      27.550  -1.222  52.872  1.00  0.00     0.041 A 
ENDBRANCH   1  20
TORSDOF 5
ENDMDL
MODEL 7
REMARK VINA RESULT:      -7.8      3.726      7.184
REMARK  5 active torsions:
REMARK  status: ('A' for Active; 'I' for Inactive)
REMARK    1  A    between atoms: C5_5  and  C6_6 
REMARK    2  A    between atoms: C10_10  and  C11_11 
REMARK    3  A    between atoms: C11_11  and  C12_12 
REMARK       I    between atoms: C12_12  and  N1_14 
REMARK    4  A    between atoms: N1_14  and  C13_15 
REMARK    5  A    between atoms: C19_21  and  O2_22 
ROOT
HETATM    1  C6  UNL     1      24.251   4.069  50.179  1.00  0.00    -0.016 A 
HETATM    2  C7  UNL     1      23.677   3.528  49.046  1.00  0.00     0.011 A 
HETATM    3  C8  UNL     1      22.907   2.387  49.145  1.00  0.00     0.001 A 
HETATM    4  C9  UNL     1      22.698   1.772  50.362  1.00  0.00     0.010 A 
HETATM    5  C10 UNL     1      23.267   2.301  51.513  1.00  0.00    -0.016 A 
HETATM    6  C19 UNL     1      24.030   3.437  51.402  1.00  0.00     0.079 A 
ENDROOT
BRANCH   5   7
HETATM    7  C11 UNL     1      23.114   1.729  52.858  1.00  0.00     0.144 C 
BRANCH   7   8
HETATM    8  C12 UNL     1      24.002   0.574  53.104  1.00  0.00     0.226 C 
HETATM    9  O1  UNL     1      23.984  -0.677  53.235  1.00  0.00    -0.273 OA
HETATM   10  N1  UNL     1      25.318   1.072  53.234  1.00  0.00    -0.327 N 
HETATM   11  H13 UNL     1      25.729   2.042  53.187  1.00  0.00     0.169 HD
BRANCH  10  12
HETATM   12  C13 UNL     1      26.556   0.412  53.476  1.00  0.00     0.034 A 
HETATM   13  C14 UNL     1      26.871  -0.655  52.629  1.00  0.00     0.029 A 
HETATM   14  C15 UNL     1      28.029  -1.414  52.718  1.00  0.00     0.002 A 
HETATM   15  C16 UNL     1      28.942  -1.097  53.712  1.00  0.00     0.000 A 
HETATM   16  C17 UNL     1      28.639  -0.045  54.552  1.00  0.00     0.002 A 
HETATM   17  C18 UNL     1      27.498   0.705  54.469  1.00  0.00     0.029 A 
ENDBRANCH  10  12
ENDBRANCH   7   8
ENDBRANCH   5   7
BRANCH   6  18
HETATM   18  O2  UNL     1      24.623   4.008  52.527  1.00  0.00    -0.360 OA
HETATM   19  H19 UNL     1      24.770   3.408  53.353  1.00  0.00     0.217 HD
ENDBRANCH   6  18
BRANCH   1  20
HETATM   20  C5  UNL     1      25.103   5.312  50.149  1.00  0.00     0.053 A 
HETATM   21  C2  UNL     1      26.159   5.308  49.163  1.00  0.00    -0.079 A 
HETATM   22  C1  UNL     1      27.431   4.580  48.805  1.00  0.00     0.044 C 
HETATM   23  C3  UNL     1      25.653   6.303  48.498  1.00  0.00    -0.023 A 
HETATM   24  C4  UNL     1      24.526   6.444  49.390  1.00  0.00     0.041 A 
ENDBRANCH   1  20
TORSDOF 5
ENDMDL
MODEL 8
REMARK VINA RESULT:      -7.6      4.448      8.164
REMARK  5 active torsions:
REMARK  status: ('A' for Active; 'I' for Inactive)
REMARK    1  A    between atoms: C5_5  and  C6_6 
REMARK    2  A    between atoms: C10_10  and  C11_11 
REMARK    3  A    between atoms: C11_11  and  C12_12 
REMARK       I    between atoms: C12_12  and  N1_14 
REMARK    4  A    between atoms: N1_14  and  C13_15 
REMARK    5  A    between atoms: C19_21  and  O2_22 
ROOT
HETATM    1  C6  UNL     1      22.591   0.805  53.202  1.00  0.00    -0.016 A 
HETATM    2  C7  UNL     1      23.824   0.182  53.184  1.00  0.00     0.011 A 
HETATM    3  C8  UNL     1      24.808   0.633  52.328  1.00  0.00     0.001 A 
HETATM    4  C9  UNL     1      24.583   1.700  51.483  1.00  0.00     0.010 A 
HETATM    5  C10 UNL     1      23.351   2.339  51.486  1.00  0.00    -0.016 A 
HETATM    6  C19 UNL     1      22.380   1.884  52.343  1.00  0.00     0.079 A 
ENDROOT
BRANCH   5   7
HETATM    7  C11 UNL     1      23.001   3.480  50.628  1.00  0.00     0.144 C 
BRANCH   7   8
HETATM    8  C12 UNL     1      24.010   4.560  50.653  1.00  0.00     0.226 C 
HETATM    9  O1  UNL     1      24.419   5.515  51.362  1.00  0.00    -0.273 OA
HETATM   10  N1  UNL     1      24.760   4.466  49.460  1.00  0.00    -0.327 N 
HETATM   11  H13 UNL     1      24.720   3.812  48.633  1.00  0.00     0.169 HD
BRANCH  10  12
HETATM   12  C13 UNL     1      25.846   5.243  48.965  1.00  0.00     0.034 A 
HETATM   13  C14 UNL     1      27.093   4.611  48.914  1.00  0.00     0.029 A 
HETATM   14  C15 UNL     1      28.260   5.212  48.466  1.00  0.00     0.002 A 
HETATM   15  C16 UNL     1      28.193   6.528  48.036  1.00  0.00     0.000 A 
HETATM   16  C17 UNL     1      26.966   7.159  48.083  1.00  0.00     0.002 A 
HETATM   17  C18 UNL     1      25.814   6.571  48.525  1.00  0.00     0.029 A 
ENDBRANCH  10  12
ENDBRANCH   7   8
ENDBRANCH   5   7
BRANCH   6  18
HETATM   18  O2  UNL     1      21.126   2.491  52.384  1.00  0.00    -0.360 OA
HETATM   19  H19 UNL     1      20.302   1.913  52.163  1.00  0.00     0.217 HD
ENDBRANCH   6  18
BRANCH   1  20
HETATM   20  C5  UNL     1      21.470   0.370  54.109  1.00  0.00     0.053 A 
HETATM   21  C2  UNL     1      20.449  -0.436  53.480  1.00  0.00    -0.079 A 
HETATM   22  C1  UNL     1      19.387  -0.364  52.410  1.00  0.00     0.044 C 
HETATM   23  C3  UNL     1      20.708  -1.480  54.209  1.00  0.00    -0.023 A 
HETATM   24  C4  UNL     1      21.765  -0.819  54.939  1.00  0.00     0.041 A 
ENDBRANCH   1  20
TORSDOF 5
ENDMDL
MODEL 9
REMARK VINA RESULT:      -7.6      3.817      4.999
REMARK  5 active torsions:
REMARK  status: ('A' for Active; 'I' for Inactive)
REMARK    1  A    between atoms: C5_5  and  C6_6 
REMARK    2  A    between atoms: C10_10  and  C11_11 
REMARK    3  A    between atoms: C11_11  and  C12_12 
REMARK       I    between atoms: C12_12  and  N1_14 
REMARK    4  A    between atoms: N1_14  and  C13_15 
REMARK    5  A    between atoms: C19_21  and  O2_22 
ROOT
HETATM    1  C6  UNL     1      26.523   0.301  52.987  1.00  0.00    -0.016 A 
HETATM    2  C7  UNL     1      25.684  -0.703  53.428  1.00  0.00     0.011 A 
HETATM    3  C8  UNL     1      24.345  -0.438  53.632  1.00  0.00     0.001 A 
HETATM    4  C9  UNL     1      23.824   0.818  53.402  1.00  0.00     0.010 A 
HETATM    5  C10 UNL     1      24.651   1.841  52.958  1.00  0.00    -0.016 A 
HETATM    6  C19 UNL     1      25.982   1.566  52.758  1.00  0.00     0.079 A 
ENDROOT
BRANCH   5   7
HETATM    7  C11 UNL     1      24.207   3.215  52.686  1.00  0.00     0.144 C 
BRANCH   7   8
HETATM    8  C12 UNL     1      23.110   3.287  51.698  1.00  0.00     0.226 C 
HETATM    9  O1  UNL     1      21.855   3.288  51.613  1.00  0.00    -0.273 OA
HETATM   10  N1  UNL     1      23.699   3.390  50.419  1.00  0.00    -0.327 N 
HETATM   11  H13 UNL     1      24.699   3.420  50.086  1.00  0.00     0.169 HD
BRANCH  10  12
HETATM   12  C13 UNL     1      23.121   3.488  49.120  1.00  0.00     0.034 A 
HETATM   13  C14 UNL     1      22.997   4.776  48.589  1.00  0.00     0.029 A 
HETATM   14  C15 UNL     1      22.457   5.063  47.344  1.00  0.00     0.002 A 
HETATM   15  C16 UNL     1      22.009   4.006  46.567  1.00  0.00     0.000 A 
HETATM   16  C17 UNL     1      22.129   2.731  47.084  1.00  0.00     0.002 A 
HETATM   17  C18 UNL     1      22.660   2.444  48.311  1.00  0.00     0.029 A 
ENDBRANCH  10  12
ENDBRANCH   7   8
ENDBRANCH   5   7
BRANCH   6  18
HETATM   18  O2  UNL     1      26.854   2.558  52.314  1.00  0.00    -0.360 OA
HETATM   19  H19 UNL     1      27.670   2.782  52.902  1.00  0.00     0.217 HD
ENDBRANCH   6  18
BRANCH   1  20
HETATM   20  C5  UNL     1      27.994   0.087  52.743  1.00  0.00     0.053 A 
HETATM   21  C2  UNL     1      28.865   0.552  53.797  1.00  0.00    -0.079 A 
HETATM   22  C1  UNL     1      29.295   1.820  54.493  1.00  0.00     0.044 C 
HETATM   23  C3  UNL     1      29.299  -0.640  54.077  1.00  0.00    -0.023 A 
HETATM   24  C4  UNL     1      28.487  -1.272  53.063  1.00  0.00     0.041 A 
ENDBRANCH   1  20
TORSDOF 5
ENDMDL
