MODEL 1
REMARK VINA RESULT:      -6.5      0.000      0.000
REMARK  8 active torsions:
REMARK  status: ('A' for Active; 'I' for Inactive)
REMARK    1  A    between atoms: C2_2  and  N1_3 
REMARK    2  A    between atoms: N1_3  and  C3_4 
REMARK    3  A    between atoms: C3_4  and  C4_5 
REMARK    4  A    between atoms: C4_5  and  C5_6 
REMARK    5  A    between atoms: C5_6  and  C6_8 
REMARK    6  A    between atoms: C8_11  and  S1_12 
REMARK    7  A    between atoms: S1_12  and  C9_13 
REMARK    8  A    between atoms: C11_16  and  C12_17 
ROOT
HETATM    1  C6  UNL     1      23.175  -0.377  54.007  1.00  0.00     0.144 A 
HETATM    2  N2  UNL     1      24.420  -0.786  54.243  1.00  0.00    -0.248 NA
HETATM    3  C7  UNL     1      25.344  -0.197  53.503  1.00  0.00     0.144 A 
HETATM    4  C8  UNL     1      25.093   0.778  52.542  1.00  0.00     0.069 A 
HETATM    5  S2  UNL     1      23.292   0.855  52.727  1.00  0.00    -0.058 SA
ENDROOT
BRANCH   4   6
HETATM    6  S1  UNL     1      26.503   1.403  51.718  1.00  0.00    -0.036 SA
BRANCH   6   7
HETATM    7  C9  UNL     1      26.155   2.934  50.886  1.00  0.00     0.214 A 
HETATM    8  N3  UNL     1      26.946   3.199  49.812  1.00  0.00    -0.228 NA
HETATM    9  C10 UNL     1      26.582   4.386  49.267  1.00  0.00     0.153 A 
HETATM   10  C11 UNL     1      25.549   4.830  50.044  1.00  0.00     0.081 A 
HETATM   11  O2  UNL     1      25.321   3.960  50.984  1.00  0.00    -0.288 OA
BRANCH  10  12
HETATM   12  C12 UNL     1      24.787   6.093  49.884  1.00  0.00    -0.000 C 
HETATM   13  C13 UNL     1      24.287   6.185  48.452  1.00  0.00     0.021 C 
HETATM   14  C14 UNL     1      23.522   6.031  50.740  1.00  0.00     0.021 C 
HETATM   15  C15 UNL     1      25.560   7.323  50.300  1.00  0.00     0.021 C 
ENDBRANCH  10  12
ENDBRANCH   6   7
ENDBRANCH   4   6
BRANCH   1  16
HETATM   16  C5  UNL     1      21.872  -0.795  54.625  1.00  0.00     0.186 C 
HETATM   17  O1  UNL     1      21.869  -1.907  55.203  1.00  0.00    -0.290 OA
BRANCH  16  18
HETATM   18  C4  UNL     1      20.791   0.229  54.430  1.00  0.00     0.116 C 
BRANCH  18  19
HETATM   19  C3  UNL     1      19.795  -0.338  53.430  1.00  0.00     0.277 C 
BRANCH  19  20
HETATM   20  N1  UNL     1      19.194  -1.559  53.884  1.00  0.00     0.083 N 
HETATM   21  H6  UNL     1      19.827  -2.330  53.544  1.00  0.00     0.315 HD
BRANCH  20  22
HETATM   22  C2  UNL     1      17.848  -1.772  53.452  1.00  0.00     0.265 C 
HETATM   23  C1  UNL     1      17.501  -3.231  53.638  1.00  0.00     0.037 C 
ENDBRANCH  20  22
ENDBRANCH  19  20
ENDBRANCH  18  19
ENDBRANCH  16  18
ENDBRANCH   1  16
TORSDOF 8
ENDMDL
MODEL 2
REMARK VINA RESULT:      -6.4      3.200      5.277
REMARK  8 active torsions:
REMARK  status: ('A' for Active; 'I' for Inactive)
REMARK    1  A    between atoms: C2_2  and  N1_3 
REMARK    2  A    between atoms: N1_3  and  C3_4 
REMARK    3  A    between atoms: C3_4  and  C4_5 
REMARK    4  A    between atoms: C4_5  and  C5_6 
REMARK    5  A    between atoms: C5_6  and  C6_8 
REMARK    6  A    between atoms: C8_11  and  S1_12 
REMARK    7  A    between atoms: S1_12  and  C9_13 
REMARK    8  A    between atoms: C11_16  and  C12_17 
ROOT
HETATM    1  C6  UNL     1      24.678   0.472  53.429  1.00  0.00     0.144 A 
HETATM    2  N2  UNL     1      23.388   0.570  53.114  1.00  0.00    -0.248 NA
HETATM    3  C7  UNL     1      22.998   1.783  52.759  1.00  0.00     0.144 A 
HETATM    4  C8  UNL     1      23.824   2.900  52.700  1.00  0.00     0.069 A 
HETATM    5  S2  UNL     1      25.363   2.102  53.226  1.00  0.00    -0.058 SA
ENDROOT
BRANCH   4   6
HETATM    6  S1  UNL     1      23.052   4.382  52.181  1.00  0.00    -0.036 SA
BRANCH   6   7
HETATM    7  C9  UNL     1      23.929   5.146  50.837  1.00  0.00     0.214 A 
HETATM    8  N3  UNL     1      23.406   4.915  49.603  1.00  0.00    -0.228 NA
HETATM    9  C10 UNL     1      24.158   5.549  48.670  1.00  0.00     0.153 A 
HETATM   10  C11 UNL     1      25.152   6.167  49.377  1.00  0.00     0.081 A 
HETATM   11  O2  UNL     1      24.992   5.913  50.644  1.00  0.00    -0.288 OA
BRANCH  10  12
HETATM   12  C12 UNL     1      26.255   6.996  48.833  1.00  0.00    -0.000 C 
HETATM   13  C13 UNL     1      27.413   6.086  48.459  1.00  0.00     0.021 C 
HETATM   14  C14 UNL     1      25.809   7.629  47.516  1.00  0.00     0.021 C 
HETATM   15  C15 UNL     1      26.682   8.114  49.756  1.00  0.00     0.021 C 
ENDBRANCH  10  12
ENDBRANCH   6   7
ENDBRANCH   4   6
BRANCH   1  16
HETATM   16  C5  UNL     1      25.490  -0.709  53.875  1.00  0.00     0.186 C 
HETATM   17  O1  UNL     1      25.323  -1.075  55.062  1.00  0.00    -0.290 OA
BRANCH  16  18
HETATM   18  C4  UNL     1      26.372  -1.243  52.782  1.00  0.00     0.116 C 
BRANCH  18  19
HETATM   19  C3  UNL     1      27.797  -0.805  53.085  1.00  0.00     0.277 C 
BRANCH  19  20
HETATM   20  N1  UNL     1      28.014  -0.568  54.483  1.00  0.00     0.083 N 
HETATM   21  H6  UNL     1      27.055  -0.446  54.902  1.00  0.00     0.315 HD
BRANCH  20  22
HETATM   22  C2  UNL     1      28.853   0.548  54.788  1.00  0.00     0.265 C 
HETATM   23  C1  UNL     1      29.034   1.378  53.539  1.00  0.00     0.037 C 
ENDBRANCH  20  22
ENDBRANCH  19  20
ENDBRANCH  18  19
ENDBRANCH  16  18
ENDBRANCH   1  16
TORSDOF 8
ENDMDL
MODEL 3
REMARK VINA RESULT:      -6.4      4.088      5.915
REMARK  8 active torsions:
REMARK  status: ('A' for Active; 'I' for Inactive)
REMARK    1  A    between atoms: C2_2  and  N1_3 
REMARK    2  A    between atoms: N1_3  and  C3_4 
REMARK    3  A    between atoms: C3_4  and  C4_5 
REMARK    4  A    between atoms: C4_5  and  C5_6 
REMARK    5  A    between atoms: C5_6  and  C6_8 
REMARK    6  A    between atoms: C8_11  and  S1_12 
REMARK    7  A    between atoms: S1_12  and  C9_13 
REMARK    8  A    between atoms: C11_16  and  C12_17 
ROOT
HETATM    1  C6  UNL     1      25.548   1.969  52.781  1.00  0.00     0.144 A 
HETATM    2  N2  UNL     1      24.468   2.739  52.660  1.00  0.00    -0.248 NA
HETATM    3  C7  UNL     1      24.461   3.515  51.590  1.00  0.00     0.144 A 
HETATM    4  C8  UNL     1      25.471   3.564  50.634  1.00  0.00     0.069 A 
HETATM    5  S2  UNL     1      26.576   2.333  51.374  1.00  0.00    -0.058 SA
ENDROOT
BRANCH   4   6
HETATM    6  S1  UNL     1      25.199   4.670  49.307  1.00  0.00    -0.036 SA
BRANCH   6   7
HETATM    7  C9  UNL     1      26.700   5.478  48.805  1.00  0.00     0.214 A 
HETATM    8  N3  UNL     1      27.792   4.670  48.732  1.00  0.00    -0.228 NA
HETATM    9  C10 UNL     1      28.865   5.400  48.340  1.00  0.00     0.153 A 
HETATM   10  C11 UNL     1      28.390   6.671  48.180  1.00  0.00     0.081 A 
HETATM   11  O2  UNL     1      27.119   6.687  48.459  1.00  0.00    -0.288 OA
BRANCH  10  12
HETATM   12  C12 UNL     1      29.159   7.869  47.763  1.00  0.00    -0.000 C 
HETATM   13  C13 UNL     1      28.396   9.113  48.186  1.00  0.00     0.021 C 
HETATM   14  C14 UNL     1      30.470   7.925  48.546  1.00  0.00     0.021 C 
HETATM   15  C15 UNL     1      29.505   7.883  46.292  1.00  0.00     0.021 C 
ENDBRANCH  10  12
ENDBRANCH   6   7
ENDBRANCH   4   6
BRANCH   1  16
HETATM   16  C5  UNL     1      25.927   0.971  53.836  1.00  0.00     0.186 C 
HETATM   17  O1  UNL     1      26.563   1.422  54.817  1.00  0.00    -0.290 OA
BRANCH  16  18
HETATM   18  C4  UNL     1      25.455  -0.417  53.507  1.00  0.00     0.116 C 
BRANCH  18  19
HETATM   19  C3  UNL     1      26.646  -1.190  52.960  1.00  0.00     0.277 C 
BRANCH  19  20
HETATM   20  N1  UNL     1      27.761  -1.194  53.862  1.00  0.00     0.083 N 
HETATM   21  H6  UNL     1      27.605  -0.376  54.509  1.00  0.00     0.315 HD
BRANCH  20  22
HETATM   22  C2  UNL     1      29.046  -1.119  53.241  1.00  0.00     0.265 C 
HETATM   23  C1  UNL     1      29.704   0.182  53.638  1.00  0.00     0.037 C 
ENDBRANCH  20  22
ENDBRANCH  19  20
ENDBRANCH  18  19
ENDBRANCH  16  18
ENDBRANCH   1  16
TORSDOF 8
ENDMDL
MODEL 4
REMARK VINA RESULT:      -6.3      4.382      6.261
REMARK  8 active torsions:
REMARK  status: ('A' for Active; 'I' for Inactive)
REMARK    1  A    between atoms: C2_2  and  N1_3 
REMARK    2  A    between atoms: N1_3  and  C3_4 
REMARK    3  A    between atoms: C3_4  and  C4_5 
REMARK    4  A    between atoms: C4_5  and  C5_6 
REMARK    5  A    between atoms: C5_6  and  C6_8 
REMARK    6  A    between atoms: C8_11  and  S1_12 
REMARK    7  A    between atoms: S1_12  and  C9_13 
REMARK    8  A    between atoms: C11_16  and  C12_17 
ROOT
HETATM    1  C6  UNL     1      25.958   2.238  52.157  1.00  0.00     0.144 A 
HETATM    2  N2  UNL     1      26.873   2.549  51.241  1.00  0.00    -0.248 NA
HETATM    3  C7  UNL     1      26.487   3.457  50.362  1.00  0.00     0.144 A 
HETATM    4  C8  UNL     1      25.239   4.072  50.348  1.00  0.00     0.069 A 
HETATM    5  S2  UNL     1      24.528   3.231  51.786  1.00  0.00    -0.058 SA
ENDROOT
BRANCH   4   6
HETATM    6  S1  UNL     1      24.997   5.253  49.080  1.00  0.00    -0.036 SA
BRANCH   6   7
HETATM    7  C9  UNL     1      26.469   6.200  48.772  1.00  0.00     0.214 A 
HETATM    8  N3  UNL     1      26.452   7.467  49.265  1.00  0.00    -0.228 NA
HETATM    9  C10 UNL     1      27.624   8.081  48.968  1.00  0.00     0.153 A 
HETATM   10  C11 UNL     1      28.348   7.148  48.281  1.00  0.00     0.081 A 
HETATM   11  O2  UNL     1      27.647   6.056  48.182  1.00  0.00    -0.288 OA
BRANCH  10  12
HETATM   12  C12 UNL     1      29.711   7.308  47.718  1.00  0.00    -0.000 C 
HETATM   13  C13 UNL     1      29.600   7.936  46.339  1.00  0.00     0.021 C 
HETATM   14  C14 UNL     1      30.487   8.325  48.554  1.00  0.00     0.021 C 
HETATM   15  C15 UNL     1      30.512   6.026  47.699  1.00  0.00     0.021 C 
ENDBRANCH  10  12
ENDBRANCH   6   7
ENDBRANCH   4   6
BRANCH   1  16
HETATM   16  C5  UNL     1      26.008   1.269  53.303  1.00  0.00     0.186 C 
HETATM   17  O1  UNL     1      26.127   1.774  54.445  1.00  0.00    -0.290 OA
BRANCH  16  18
HETATM   18  C4  UNL     1      25.900  -0.159  52.852  1.00  0.00     0.116 C 
BRANCH  18  19
HETATM   19  C3  UNL     1      27.261  -0.809  53.050  1.00  0.00     0.277 C 
BRANCH  19  20
HETATM   20  N1  UNL     1      27.751  -0.661  54.390  1.00  0.00     0.083 N 
HETATM   21  H6  UNL     1      27.055  -0.038  54.879  1.00  0.00     0.315 HD
BRANCH  20  22
HETATM   22  C2  UNL     1      29.076  -0.136  54.500  1.00  0.00     0.265 C 
HETATM   23  C1  UNL     1      29.960  -0.828  53.488  1.00  0.00     0.037 C 
ENDBRANCH  20  22
ENDBRANCH  19  20
ENDBRANCH  18  19
ENDBRANCH  16  18
ENDBRANCH   1  16
TORSDOF 8
ENDMDL
MODEL 5
REMARK VINA RESULT:      -6.2      3.863     10.060
REMARK  8 active torsions:
REMARK  status: ('A' for Active; 'I' for Inactive)
REMARK    1  A    between atoms: C2_2  and  N1_3 
REMARK    2  A    between atoms: N1_3  and  C3_4 
REMARK    3  A    between atoms: C3_4  and  C4_5 
REMARK    4  A    between atoms: C4_5  and  C5_6 
REMARK    5  A    between atoms: C5_6  and  C6_8 
REMARK    6  A    between atoms: C8_11  and  S1_12 
REMARK    7  A    between atoms: S1_12  and  C9_13 
REMARK    8  A    between atoms: C11_16  and  C12_17 
ROOT
HETATM    1  C6  UNL     1      27.565   5.829  48.520  1.00  0.00     0.144 A 
HETATM    2  N2  UNL     1      27.762   4.551  48.839  1.00  0.00    -0.248 NA
HETATM    3  C7  UNL     1      26.684   3.919  49.273  1.00  0.00     0.144 A 
HETATM    4  C8  UNL     1      25.423   4.492  49.405  1.00  0.00     0.069 A 
HETATM    5  S2  UNL     1      25.844   6.158  48.831  1.00  0.00    -0.058 SA
ENDROOT
BRANCH   4   6
HETATM    6  S1  UNL     1      24.168   3.423  49.988  1.00  0.00    -0.036 SA
BRANCH   6   7
HETATM    7  C9  UNL     1      24.792   2.267  51.185  1.00  0.00     0.214 A 
HETATM    8  N3  UNL     1      23.845   1.513  51.805  1.00  0.00    -0.228 NA
HETATM    9  C10 UNL     1      24.443   0.675  52.687  1.00  0.00     0.153 A 
HETATM   10  C11 UNL     1      25.778   0.946  52.583  1.00  0.00     0.081 A 
HETATM   11  O2  UNL     1      25.953   1.882  51.695  1.00  0.00    -0.288 OA
BRANCH  10  12
HETATM   12  C12 UNL     1      26.884   0.309  53.339  1.00  0.00    -0.000 C 
HETATM   13  C13 UNL     1      26.447   0.122  54.782  1.00  0.00     0.021 C 
HETATM   14  C14 UNL     1      27.109  -1.107  52.808  1.00  0.00     0.021 C 
HETATM   15  C15 UNL     1      28.197   1.050  53.230  1.00  0.00     0.021 C 
ENDBRANCH  10  12
ENDBRANCH   6   7
ENDBRANCH   4   6
BRANCH   1  16
HETATM   16  C5  UNL     1      28.517   6.867  48.001  1.00  0.00     0.186 C 
HETATM   17  O1  UNL     1      28.071   8.036  47.930  1.00  0.00    -0.290 OA
BRANCH  16  18
HETATM   18  C4  UNL     1      29.861   6.291  47.659  1.00  0.00     0.116 C 
BRANCH  18  19
HETATM   19  C3  UNL     1      30.804   6.606  48.811  1.00  0.00     0.277 C 
BRANCH  19  20
HETATM   20  N1  UNL     1      30.499   7.857  49.444  1.00  0.00     0.083 N 
HETATM   21  H6  UNL     1      29.495   8.062  49.197  1.00  0.00     0.315 HD
BRANCH  20  22
HETATM   22  C2  UNL     1      31.350   8.946  49.080  1.00  0.00     0.265 C 
HETATM   23  C1  UNL     1      30.609  10.242  49.312  1.00  0.00     0.037 C 
ENDBRANCH  20  22
ENDBRANCH  19  20
ENDBRANCH  18  19
ENDBRANCH  16  18
ENDBRANCH   1  16
TORSDOF 8
ENDMDL
MODEL 6
REMARK VINA RESULT:      -6.1      3.767      5.658
REMARK  8 active torsions:
REMARK  status: ('A' for Active; 'I' for Inactive)
REMARK    1  A    between atoms: C2_2  and  N1_3 
REMARK    2  A    between atoms: N1_3  and  C3_4 
REMARK    3  A    between atoms: C3_4  and  C4_5 
REMARK    4  A    between atoms: C4_5  and  C5_6 
REMARK    5  A    between atoms: C5_6  and  C6_8 
REMARK    6  A    between atoms: C8_11  and  S1_12 
REMARK    7  A    between atoms: S1_12  and  C9_13 
REMARK    8  A    between atoms: C11_16  and  C12_17 
ROOT
HETATM    1  C6  UNL     1      24.679   1.433  52.510  1.00  0.00     0.144 A 
HETATM    2  N2  UNL     1      23.518   1.987  52.854  1.00  0.00    -0.248 NA
HETATM    3  C7  UNL     1      23.314   3.195  52.355  1.00  0.00     0.144 A 
HETATM    4  C8  UNL     1      24.204   3.878  51.532  1.00  0.00     0.069 A 
HETATM    5  S2  UNL     1      25.505   2.618  51.470  1.00  0.00    -0.058 SA
ENDROOT
BRANCH   4   6
HETATM    6  S1  UNL     1      23.676   5.458  50.999  1.00  0.00    -0.036 SA
BRANCH   6   7
HETATM    7  C9  UNL     1      24.808   6.170  49.830  1.00  0.00     0.214 A 
HETATM    8  N3  UNL     1      24.226   6.741  48.741  1.00  0.00    -0.228 NA
HETATM    9  C10 UNL     1      25.189   7.247  47.931  1.00  0.00     0.153 A 
HETATM   10  C11 UNL     1      26.367   6.963  48.561  1.00  0.00     0.081 A 
HETATM   11  O2  UNL     1      26.113   6.333  49.671  1.00  0.00    -0.288 OA
BRANCH  10  12
HETATM   12  C12 UNL     1      27.736   7.295  48.094  1.00  0.00    -0.000 C 
HETATM   13  C13 UNL     1      27.641   7.950  46.727  1.00  0.00     0.021 C 
HETATM   14  C14 UNL     1      28.334   8.366  49.005  1.00  0.00     0.021 C 
HETATM   15  C15 UNL     1      28.678   6.113  48.098  1.00  0.00     0.021 C 
ENDBRANCH  10  12
ENDBRANCH   6   7
ENDBRANCH   4   6
BRANCH   1  16
HETATM   16  C5  UNL     1      25.272   0.101  52.865  1.00  0.00     0.186 C 
HETATM   17  O1  UNL     1      24.653  -0.565  53.729  1.00  0.00    -0.290 OA
BRANCH  16  18
HETATM   18  C4  UNL     1      26.528  -0.191  52.095  1.00  0.00     0.116 C 
BRANCH  18  19
HETATM   19  C3  UNL     1      27.401  -1.089  52.959  1.00  0.00     0.277 C 
BRANCH  19  20
HETATM   20  N1  UNL     1      27.610  -0.552  54.273  1.00  0.00     0.083 N 
HETATM   21  H6  UNL     1      26.883   0.202  54.390  1.00  0.00     0.315 HD
BRANCH  20  22
HETATM   22  C2  UNL     1      28.922  -0.042  54.520  1.00  0.00     0.265 C 
HETATM   23  C1  UNL     1      29.902  -0.764  53.624  1.00  0.00     0.037 C 
ENDBRANCH  20  22
ENDBRANCH  19  20
ENDBRANCH  18  19
ENDBRANCH  16  18
ENDBRANCH   1  16
TORSDOF 8
ENDMDL
MODEL 7
REMARK VINA RESULT:      -6.1      5.337      8.451
REMARK  8 active torsions:
REMARK  status: ('A' for Active; 'I' for Inactive)
REMARK    1  A    between atoms: C2_2  and  N1_3 
REMARK    2  A    between atoms: N1_3  and  C3_4 
REMARK    3  A    between atoms: C3_4  and  C4_5 
REMARK    4  A    between atoms: C4_5  and  C5_6 
REMARK    5  A    between atoms: C5_6  and  C6_8 
REMARK    6  A    between atoms: C8_11  and  S1_12 
REMARK    7  A    between atoms: S1_12  and  C9_13 
REMARK    8  A    between atoms: C11_16  and  C12_17 
ROOT
HETATM    1  C6  UNL     1      26.197   4.858  49.361  1.00  0.00     0.144 A 
HETATM    2  N2  UNL     1      27.323   4.214  49.058  1.00  0.00    -0.248 NA
HETATM    3  C7  UNL     1      28.253   4.966  48.493  1.00  0.00     0.144 A 
HETATM    4  C8  UNL     1      28.121   6.323  48.217  1.00  0.00     0.069 A 
HETATM    5  S2  UNL     1      26.438   6.545  48.850  1.00  0.00    -0.058 SA
ENDROOT
BRANCH   4   6
HETATM    6  S1  UNL     1      29.515   7.080  47.479  1.00  0.00    -0.036 SA
BRANCH   6   7
HETATM    7  C9  UNL     1      30.960   6.053  47.597  1.00  0.00     0.214 A 
HETATM    8  N3  UNL     1      31.741   6.281  48.688  1.00  0.00    -0.228 NA
HETATM    9  C10 UNL     1      32.803   5.439  48.664  1.00  0.00     0.153 A 
HETATM   10  C11 UNL     1      32.643   4.698  47.527  1.00  0.00     0.081 A 
HETATM   11  O2  UNL     1      31.555   5.079  46.923  1.00  0.00    -0.288 OA
BRANCH  10  12
HETATM   12  C12 UNL     1      33.537   3.628  47.022  1.00  0.00    -0.000 C 
HETATM   13  C13 UNL     1      33.961   3.973  45.604  1.00  0.00     0.021 C 
HETATM   14  C14 UNL     1      34.833   3.628  47.832  1.00  0.00     0.021 C 
HETATM   15  C15 UNL     1      32.938   2.244  47.118  1.00  0.00     0.021 C 
ENDBRANCH  10  12
ENDBRANCH   6   7
ENDBRANCH   4   6
BRANCH   1  16
HETATM   16  C5  UNL     1      24.930   4.367  49.999  1.00  0.00     0.186 C 
HETATM   17  O1  UNL     1      24.060   5.238  50.235  1.00  0.00    -0.290 OA
BRANCH  16  18
HETATM   18  C4  UNL     1      24.945   2.884  50.236  1.00  0.00     0.116 C 
BRANCH  18  19
HETATM   19  C3  UNL     1      25.362   2.653  51.681  1.00  0.00     0.277 C 
BRANCH  19  20
HETATM   20  N1  UNL     1      26.786   2.691  51.855  1.00  0.00     0.083 N 
HETATM   21  H6  UNL     1      27.193   2.543  50.894  1.00  0.00     0.315 HD
BRANCH  20  22
HETATM   22  C2  UNL     1      27.311   1.743  52.787  1.00  0.00     0.265 C 
HETATM   23  C1  UNL     1      28.456   2.380  53.539  1.00  0.00     0.037 C 
ENDBRANCH  20  22
ENDBRANCH  19  20
ENDBRANCH  18  19
ENDBRANCH  16  18
ENDBRANCH   1  16
TORSDOF 8
ENDMDL
MODEL 8
REMARK VINA RESULT:      -6.0      4.159     10.265
REMARK  8 active torsions:
REMARK  status: ('A' for Active; 'I' for Inactive)
REMARK    1  A    between atoms: C2_2  and  N1_3 
REMARK    2  A    between atoms: N1_3  and  C3_4 
REMARK    3  A    between atoms: C3_4  and  C4_5 
REMARK    4  A    between atoms: C4_5  and  C5_6 
REMARK    5  A    between atoms: C5_6  and  C6_8 
REMARK    6  A    between atoms: C8_11  and  S1_12 
REMARK    7  A    between atoms: S1_12  and  C9_13 
REMARK    8  A    between atoms: C11_16  and  C12_17 
ROOT
HETATM    1  C6  UNL     1      28.515   5.974  48.289  1.00  0.00     0.144 A 
HETATM    2  N2  UNL     1      28.282   4.696  48.583  1.00  0.00    -0.248 NA
HETATM    3  C7  UNL     1      27.050   4.441  48.991  1.00  0.00     0.144 A 
HETATM    4  C8  UNL     1      26.041   5.390  49.119  1.00  0.00     0.069 A 
HETATM    5  S2  UNL     1      26.988   6.839  48.585  1.00  0.00    -0.058 SA
ENDROOT
BRANCH   4   6
HETATM    6  S1  UNL     1      24.496   4.776  49.665  1.00  0.00    -0.036 SA
BRANCH   6   7
HETATM    7  C9  UNL     1      24.684   3.601  50.985  1.00  0.00     0.214 A 
HETATM    8  N3  UNL     1      24.008   3.905  52.125  1.00  0.00    -0.228 NA
HETATM    9  C10 UNL     1      24.229   2.937  53.049  1.00  0.00     0.153 A 
HETATM   10  C11 UNL     1      25.059   2.043  52.434  1.00  0.00     0.081 A 
HETATM   11  O2  UNL     1      25.308   2.457  51.225  1.00  0.00    -0.288 OA
BRANCH  10  12
HETATM   12  C12 UNL     1      25.614   0.793  53.009  1.00  0.00    -0.000 C 
HETATM   13  C13 UNL     1      24.481  -0.198  53.213  1.00  0.00     0.021 C 
HETATM   14  C14 UNL     1      26.537   0.132  51.986  1.00  0.00     0.021 C 
HETATM   15  C15 UNL     1      26.416   1.013  54.272  1.00  0.00     0.021 C 
ENDBRANCH  10  12
ENDBRANCH   6   7
ENDBRANCH   4   6
BRANCH   1  16
HETATM   16  C5  UNL     1      29.762   6.655  47.803  1.00  0.00     0.186 C 
HETATM   17  O1  UNL     1      29.648   7.869  47.513  1.00  0.00    -0.290 OA
BRANCH  16  18
HETATM   18  C4  UNL     1      30.941   5.726  47.758  1.00  0.00     0.116 C 
BRANCH  18  19
HETATM   19  C3  UNL     1      31.643   5.808  49.105  1.00  0.00     0.277 C 
BRANCH  19  20
HETATM   20  N1  UNL     1      32.998   5.341  49.049  1.00  0.00     0.083 N 
HETATM   21  H6  UNL     1      33.592   6.157  49.353  1.00  0.00     0.315 HD
BRANCH  20  22
HETATM   22  C2  UNL     1      33.419   4.847  47.775  1.00  0.00     0.265 C 
HETATM   23  C1  UNL     1      34.704   4.071  47.953  1.00  0.00     0.037 C 
ENDBRANCH  20  22
ENDBRANCH  19  20
ENDBRANCH  18  19
ENDBRANCH  16  18
ENDBRANCH   1  16
TORSDOF 8
ENDMDL
MODEL 9
REMARK VINA RESULT:      -6.0      3.772      7.653
REMARK  8 active torsions:
REMARK  status: ('A' for Active; 'I' for Inactive)
REMARK    1  A    between atoms: C2_2  and  N1_3 
REMARK    2  A    between atoms: N1_3  and  C3_4 
REMARK    3  A    between atoms: C3_4  and  C4_5 
REMARK    4  A    between atoms: C4_5  and  C5_6 
REMARK    5  A    between atoms: C5_6  and  C6_8 
REMARK    6  A    between atoms: C8_11  and  S1_12 
REMARK    7  A    between atoms: S1_12  and  C9_13 
REMARK    8  A    between atoms: C11_16  and  C12_17 
ROOT
HETATM    1  C6  UNL     1      25.007   0.802  53.270  1.00  0.00     0.144 A 
HETATM    2  N2  UNL     1      25.202   2.118  53.331  1.00  0.00    -0.248 NA
HETATM    3  C7  UNL     1      24.164   2.847  52.956  1.00  0.00     0.144 A 
HETATM    4  C8  UNL     1      22.945   2.335  52.526  1.00  0.00     0.069 A 
HETATM    5  S2  UNL     1      23.344   0.574  52.678  1.00  0.00    -0.058 SA
ENDROOT
BRANCH   4   6
HETATM    6  S1  UNL     1      21.735   3.526  52.104  1.00  0.00    -0.036 SA
BRANCH   6   7
HETATM    7  C9  UNL     1      20.133   2.788  51.886  1.00  0.00     0.214 A 
HETATM    8  N3  UNL     1      19.098   3.668  51.820  1.00  0.00    -0.228 NA
HETATM    9  C10 UNL     1      17.938   2.986  51.652  1.00  0.00     0.153 A 
HETATM   10  C11 UNL     1      18.303   1.670  51.619  1.00  0.00     0.081 A 
HETATM   11  O2  UNL     1      19.594   1.584  51.758  1.00  0.00    -0.288 OA
BRANCH  10  12
HETATM   12  C12 UNL     1      17.409   0.496  51.458  1.00  0.00    -0.000 C 
HETATM   13  C13 UNL     1      17.449   0.046  50.008  1.00  0.00     0.021 C 
HETATM   14  C14 UNL     1      17.974  -0.681  52.253  1.00  0.00     0.021 C 
HETATM   15  C15 UNL     1      15.999   0.740  51.943  1.00  0.00     0.021 C 
ENDBRANCH  10  12
ENDBRANCH   6   7
ENDBRANCH   4   6
BRANCH   1  16
HETATM   16  C5  UNL     1      25.922  -0.341  53.602  1.00  0.00     0.186 C 
HETATM   17  O1  UNL     1      25.642  -0.987  54.639  1.00  0.00    -0.290 OA
BRANCH  16  18
HETATM   18  C4  UNL     1      27.029  -0.498  52.599  1.00  0.00     0.116 C 
BRANCH  18  19
HETATM   19  C3  UNL     1      28.285  -0.898  53.358  1.00  0.00     0.277 C 
BRANCH  19  20
HETATM   20  N1  UNL     1      29.272   0.144  53.377  1.00  0.00     0.083 N 
HETATM   21  H6  UNL     1      30.197  -0.345  53.504  1.00  0.00     0.315 HD
BRANCH  20  22
HETATM   22  C2  UNL     1      29.079   1.147  54.377  1.00  0.00     0.265 C 
HETATM   23  C1  UNL     1      28.767   2.460  53.698  1.00  0.00     0.037 C 
ENDBRANCH  20  22
ENDBRANCH  19  20
ENDBRANCH  18  19
ENDBRANCH  16  18
ENDBRANCH   1  16
TORSDOF 8
ENDMDL
