MODEL 1
REMARK VINA RESULT:     -10.0      0.000      0.000
REMARK  2 active torsions:
REMARK  status: ('A' for Active; 'I' for Inactive)
REMARK    1  A    between atoms: C3_4  and  C4_5 
REMARK    2  A    between atoms: C8_11  and  S1_12 
ROOT
HETATM    1  C4  UNL     1      25.021   0.261  52.985  1.00  0.00     0.090 A 
HETATM    2  C5  UNL     1      23.931  -0.449  53.453  1.00  0.00     0.038 A 
HETATM    3  C6  UNL     1      22.638  -0.308  53.005  1.00  0.00     0.057 A 
HETATM    4  C7  UNL     1      22.438   0.637  51.995  1.00  0.00     0.175 A 
HETATM    5  N2  UNL     1      21.392   1.090  51.287  1.00  0.00    -0.128 NA
HETATM    6  N3  UNL     1      21.826   2.023  50.437  1.00  0.00    -0.121 NA
HETATM    7  C8  UNL     1      23.153   2.173  50.598  1.00  0.00     0.206 A 
HETATM    8  N4  UNL     1      23.521   1.311  51.563  1.00  0.00    -0.188 N 
HETATM    9  N5  UNL     1      24.783   1.174  51.999  1.00  0.00    -0.163 NA
ENDROOT
BRANCH   7  10
HETATM   10  S1  UNL     1      23.957   3.352  49.585  1.00  0.00    -0.123 SA
HETATM   11  C9  UNL     1      23.567   4.865  49.973  1.00  0.00     0.020 C 
HETATM   12  C10 UNL     1      24.185   5.966  49.185  1.00  0.00     0.072 C 
HETATM   13  C11 UNL     1      25.611   5.735  48.926  1.00  0.00    -0.051 A 
HETATM   14  C12 UNL     1      26.316   6.709  48.391  1.00  0.00    -0.019 A 
HETATM   15  C16 UNL     1      26.301   4.487  49.224  1.00  0.00    -0.046 A 
HETATM   16  C13 UNL     1      27.745   6.783  48.018  1.00  0.00     0.031 A 
HETATM   17  C14 UNL     1      28.499   5.518  48.304  1.00  0.00     0.031 A 
HETATM   18  C15 UNL     1      27.580   4.529  48.898  1.00  0.00    -0.018 A 
HETATM   19  C17 UNL     1      25.761   3.239  49.822  1.00  0.00     0.114 C 
ENDBRANCH   7  10
BRANCH   1  20
HETATM   20  C3  UNL     1      26.339  -0.008  53.570  1.00  0.00     0.031 A 
HETATM   21  C2  UNL     1      27.446  -0.497  52.926  1.00  0.00     0.127 A 
HETATM   22  N1  UNL     1      28.447  -0.592  53.837  1.00  0.00    -0.285 N 
HETATM   23  C1  UNL     1      29.794  -1.061  53.598  1.00  0.00     0.179 C 
HETATM   24  N6  UNL     1      27.987  -0.178  55.011  1.00  0.00    -0.185 NA
HETATM   25  C18 UNL     1      26.700   0.189  54.889  1.00  0.00     0.154 A 
ENDBRANCH   1  20
TORSDOF 2
ENDMDL
MODEL 2
REMARK VINA RESULT:      -9.1      2.760      7.470
REMARK  2 active torsions:
REMARK  status: ('A' for Active; 'I' for Inactive)
REMARK    1  A    between atoms: C3_4  and  C4_5 
REMARK    2  A    between atoms: C8_11  and  S1_12 
ROOT
HETATM    1  C4  UNL     1      26.127   2.368  51.718  1.00  0.00     0.090 A 
HETATM    2  C5  UNL     1      27.346   2.350  52.369  1.00  0.00     0.038 A 
HETATM    3  C6  UNL     1      27.690   1.494  53.389  1.00  0.00     0.057 A 
HETATM    4  C7  UNL     1      26.708   0.580  53.780  1.00  0.00     0.175 A 
HETATM    5  N2  UNL     1      26.606  -0.401  54.692  1.00  0.00    -0.128 NA
HETATM    6  N3  UNL     1      25.392  -0.945  54.597  1.00  0.00    -0.121 NA
HETATM    7  C8  UNL     1      24.709  -0.315  53.623  1.00  0.00     0.206 A 
HETATM    8  N4  UNL     1      25.533   0.625  53.125  1.00  0.00    -0.188 N 
HETATM    9  N5  UNL     1      25.195   1.459  52.129  1.00  0.00    -0.163 NA
ENDROOT
BRANCH   7  10
HETATM   10  S1  UNL     1      23.075  -0.857  53.308  1.00  0.00    -0.123 SA
HETATM   11  C9  UNL     1      22.196  -0.975  54.652  1.00  0.00     0.020 C 
HETATM   12  C10 UNL     1      20.784  -1.427  54.521  1.00  0.00     0.072 C 
HETATM   13  C11 UNL     1      20.102  -0.805  53.380  1.00  0.00    -0.051 A 
HETATM   14  C12 UNL     1      18.804  -0.984  53.253  1.00  0.00    -0.019 A 
HETATM   15  C16 UNL     1      20.774   0.003  52.372  1.00  0.00    -0.046 A 
HETATM   16  C13 UNL     1      17.852  -0.496  52.233  1.00  0.00     0.031 A 
HETATM   17  C14 UNL     1      18.498   0.341  51.169  1.00  0.00     0.031 A 
HETATM   18  C15 UNL     1      19.942   0.449  51.448  1.00  0.00    -0.018 A 
HETATM   19  C17 UNL     1      22.211   0.364  52.268  1.00  0.00     0.114 C 
ENDBRANCH   7  10
BRANCH   1  20
HETATM   20  C3  UNL     1      25.917   3.347  50.646  1.00  0.00     0.031 A 
HETATM   21  C2  UNL     1      24.763   4.034  50.367  1.00  0.00     0.127 A 
HETATM   22  N1  UNL     1      25.006   4.833  49.298  1.00  0.00    -0.285 N 
HETATM   23  C1  UNL     1      24.071   5.735  48.659  1.00  0.00     0.179 C 
HETATM   24  N6  UNL     1      26.266   4.657  48.919  1.00  0.00    -0.185 NA
HETATM   25  C18 UNL     1      26.857   3.755  49.719  1.00  0.00     0.154 A 
ENDBRANCH   1  20
TORSDOF 2
ENDMDL
MODEL 3
REMARK VINA RESULT:      -9.1      3.852      7.535
REMARK  2 active torsions:
REMARK  status: ('A' for Active; 'I' for Inactive)
REMARK    1  A    between atoms: C3_4  and  C4_5 
REMARK    2  A    between atoms: C8_11  and  S1_12 
ROOT
HETATM    1  C4  UNL     1      29.221   5.768  48.224  1.00  0.00     0.090 A 
HETATM    2  C5  UNL     1      28.801   6.993  47.741  1.00  0.00     0.038 A 
HETATM    3  C6  UNL     1      27.501   7.443  47.735  1.00  0.00     0.057 A 
HETATM    4  C7  UNL     1      26.547   6.571  48.266  1.00  0.00     0.175 A 
HETATM    5  N2  UNL     1      25.219   6.589  48.458  1.00  0.00    -0.128 NA
HETATM    6  N3  UNL     1      24.855   5.438  49.026  1.00  0.00    -0.121 NA
HETATM    7  C8  UNL     1      25.950   4.676  49.201  1.00  0.00     0.206 A 
HETATM    8  N4  UNL     1      26.991   5.386  48.728  1.00  0.00    -0.188 N 
HETATM    9  N5  UNL     1      28.258   4.945  48.734  1.00  0.00    -0.163 NA
ENDROOT
BRANCH   7  10
HETATM   10  S1  UNL     1      25.726   3.103  49.936  1.00  0.00    -0.123 SA
HETATM   11  C9  UNL     1      26.761   2.832  51.138  1.00  0.00     0.020 C 
HETATM   12  C10 UNL     1      26.675   1.527  51.849  1.00  0.00     0.072 C 
HETATM   13  C11 UNL     1      25.288   1.127  52.115  1.00  0.00    -0.051 A 
HETATM   14  C12 UNL     1      25.075   0.082  52.887  1.00  0.00    -0.019 A 
HETATM   15  C16 UNL     1      24.124   1.815  51.575  1.00  0.00    -0.046 A 
HETATM   16  C13 UNL     1      23.819  -0.556  53.334  1.00  0.00     0.031 A 
HETATM   17  C14 UNL     1      22.589   0.118  52.800  1.00  0.00     0.031 A 
HETATM   18  C15 UNL     1      22.989   1.261  51.960  1.00  0.00    -0.018 A 
HETATM   19  C17 UNL     1      24.070   3.006  50.689  1.00  0.00     0.114 C 
ENDBRANCH   7  10
BRANCH   1  20
HETATM   20  C3  UNL     1      30.648   5.437  48.157  1.00  0.00     0.031 A 
HETATM   21  C2  UNL     1      31.238   4.473  47.381  1.00  0.00     0.127 A 
HETATM   22  N1  UNL     1      32.572   4.504  47.626  1.00  0.00    -0.285 N 
HETATM   23  C1  UNL     1      33.584   3.660  47.028  1.00  0.00     0.179 C 
HETATM   24  N6  UNL     1      32.813   5.454  48.521  1.00  0.00    -0.185 NA
HETATM   25  C18 UNL     1      31.660   6.049  48.872  1.00  0.00     0.154 A 
ENDBRANCH   1  20
TORSDOF 2
ENDMDL
MODEL 4
REMARK VINA RESULT:      -9.0      3.565      6.463
REMARK  2 active torsions:
REMARK  status: ('A' for Active; 'I' for Inactive)
REMARK    1  A    between atoms: C3_4  and  C4_5 
REMARK    2  A    between atoms: C8_11  and  S1_12 
ROOT
HETATM    1  C4  UNL     1      21.421   1.229  52.913  1.00  0.00     0.090 A 
HETATM    2  C5  UNL     1      20.631   2.336  52.668  1.00  0.00     0.038 A 
HETATM    3  C6  UNL     1      21.085   3.554  52.220  1.00  0.00     0.057 A 
HETATM    4  C7  UNL     1      22.462   3.654  52.003  1.00  0.00     0.175 A 
HETATM    5  N2  UNL     1      23.311   4.607  51.585  1.00  0.00    -0.128 NA
HETATM    6  N3  UNL     1      24.546   4.103  51.577  1.00  0.00    -0.121 NA
HETATM    7  C8  UNL     1      24.495   2.824  51.990  1.00  0.00     0.206 A 
HETATM    8  N4  UNL     1      23.202   2.556  52.250  1.00  0.00    -0.188 N 
HETATM    9  N5  UNL     1      22.761   1.367  52.688  1.00  0.00    -0.163 NA
ENDROOT
BRANCH   7  10
HETATM   10  S1  UNL     1      26.006   1.943  52.065  1.00  0.00    -0.123 SA
HETATM   11  C9  UNL     1      26.919   2.393  53.312  1.00  0.00     0.020 C 
HETATM   12  C10 UNL     1      28.235   1.718  53.489  1.00  0.00     0.072 C 
HETATM   13  C11 UNL     1      28.154   0.270  53.263  1.00  0.00    -0.051 A 
HETATM   14  C12 UNL     1      29.203  -0.468  53.555  1.00  0.00    -0.019 A 
HETATM   15  C16 UNL     1      26.979  -0.407  52.731  1.00  0.00    -0.046 A 
HETATM   16  C13 UNL     1      29.428  -1.925  53.442  1.00  0.00     0.031 A 
HETATM   17  C14 UNL     1      28.244  -2.668  52.896  1.00  0.00     0.031 A 
HETATM   18  C15 UNL     1      27.157  -1.710  52.620  1.00  0.00    -0.018 A 
HETATM   19  C17 UNL     1      25.673   0.170  52.321  1.00  0.00     0.114 C 
ENDBRANCH   7  10
BRANCH   1  20
HETATM   20  C3  UNL     1      20.781  -0.001  53.390  1.00  0.00     0.031 A 
HETATM   21  C2  UNL     1      19.505  -0.427  53.123  1.00  0.00     0.127 A 
HETATM   22  N1  UNL     1      19.322  -1.611  53.760  1.00  0.00    -0.285 N 
HETATM   23  C1  UNL     1      18.124  -2.421  53.757  1.00  0.00     0.179 C 
HETATM   24  N6  UNL     1      20.441  -1.919  54.404  1.00  0.00    -0.185 NA
HETATM   25  C18 UNL     1      21.359  -0.958  54.202  1.00  0.00     0.154 A 
ENDBRANCH   1  20
TORSDOF 2
ENDMDL
MODEL 5
REMARK VINA RESULT:      -8.9      2.579      5.502
REMARK  2 active torsions:
REMARK  status: ('A' for Active; 'I' for Inactive)
REMARK    1  A    between atoms: C3_4  and  C4_5 
REMARK    2  A    between atoms: C8_11  and  S1_12 
ROOT
HETATM    1  C4  UNL     1      20.831  -0.476  53.235  1.00  0.00     0.090 A 
HETATM    2  C5  UNL     1      21.284  -1.320  54.231  1.00  0.00     0.038 A 
HETATM    3  C6  UNL     1      22.583  -1.403  54.675  1.00  0.00     0.057 A 
HETATM    4  C7  UNL     1      23.500  -0.553  54.051  1.00  0.00     0.175 A 
HETATM    5  N2  UNL     1      24.815  -0.302  54.156  1.00  0.00    -0.128 NA
HETATM    6  N3  UNL     1      25.139   0.642  53.271  1.00  0.00    -0.121 NA
HETATM    7  C8  UNL     1      24.033   1.001  52.594  1.00  0.00     0.206 A 
HETATM    8  N4  UNL     1      23.026   0.256  53.085  1.00  0.00    -0.188 N 
HETATM    9  N5  UNL     1      21.758   0.338  52.650  1.00  0.00    -0.163 NA
ENDROOT
BRANCH   7  10
HETATM   10  S1  UNL     1      24.208   2.237  51.367  1.00  0.00    -0.123 SA
HETATM   11  C9  UNL     1      23.715   3.683  51.876  1.00  0.00     0.020 C 
HETATM   12  C10 UNL     1      23.811   4.825  50.925  1.00  0.00     0.072 C 
HETATM   13  C11 UNL     1      25.073   4.821  50.175  1.00  0.00    -0.051 A 
HETATM   14  C12 UNL     1      25.360   5.867  49.429  1.00  0.00    -0.019 A 
HETATM   15  C16 UNL     1      26.034   3.727  50.203  1.00  0.00    -0.046 A 
HETATM   16  C13 UNL     1      26.530   6.158  48.573  1.00  0.00     0.031 A 
HETATM   17  C14 UNL     1      27.550   5.057  48.567  1.00  0.00     0.031 A 
HETATM   18  C15 UNL     1      27.088   3.964  49.443  1.00  0.00    -0.018 A 
HETATM   19  C17 UNL     1      25.969   2.444  50.947  1.00  0.00     0.114 C 
ENDBRANCH   7  10
BRANCH   1  20
HETATM   20  C3  UNL     1      19.410  -0.510  52.876  1.00  0.00     0.031 A 
HETATM   21  C2  UNL     1      18.783   0.229  51.906  1.00  0.00     0.127 A 
HETATM   22  N1  UNL     1      17.471  -0.112  51.908  1.00  0.00    -0.285 N 
HETATM   23  C1  UNL     1      16.435   0.418  51.048  1.00  0.00     0.179 C 
HETATM   24  N6  UNL     1      17.278  -1.033  52.845  1.00  0.00    -0.185 NA
HETATM   25  C18 UNL     1      18.441  -1.303  53.460  1.00  0.00     0.154 A 
ENDBRANCH   1  20
TORSDOF 2
ENDMDL
MODEL 6
REMARK VINA RESULT:      -8.7      3.112      6.839
REMARK  2 active torsions:
REMARK  status: ('A' for Active; 'I' for Inactive)
REMARK    1  A    between atoms: C3_4  and  C4_5 
REMARK    2  A    between atoms: C8_11  and  S1_12 
ROOT
HETATM    1  C4  UNL     1      25.615   1.348  51.927  1.00  0.00     0.090 A 
HETATM    2  C5  UNL     1      26.048   2.534  51.365  1.00  0.00     0.038 A 
HETATM    3  C6  UNL     1      25.255   3.430  50.686  1.00  0.00     0.057 A 
HETATM    4  C7  UNL     1      23.905   3.088  50.571  1.00  0.00     0.175 A 
HETATM    5  N2  UNL     1      22.812   3.637  50.018  1.00  0.00    -0.128 NA
HETATM    6  N3  UNL     1      21.774   2.828  50.235  1.00  0.00    -0.121 NA
HETATM    7  C8  UNL     1      22.198   1.755  50.927  1.00  0.00     0.206 A 
HETATM    8  N4  UNL     1      23.517   1.927  51.130  1.00  0.00    -0.188 N 
HETATM    9  N5  UNL     1      24.289   1.051  51.792  1.00  0.00    -0.163 NA
ENDROOT
BRANCH   7  10
HETATM   10  S1  UNL     1      21.006   0.539  51.335  1.00  0.00    -0.123 SA
HETATM   11  C9  UNL     1      20.725   0.460  52.918  1.00  0.00     0.020 C 
HETATM   12  C10 UNL     1      19.728  -0.537  53.398  1.00  0.00     0.072 C 
HETATM   13  C11 UNL     1      18.533  -0.586  52.546  1.00  0.00    -0.051 A 
HETATM   14  C12 UNL     1      17.504  -1.297  52.954  1.00  0.00    -0.019 A 
HETATM   15  C16 UNL     1      18.414   0.107  51.271  1.00  0.00    -0.046 A 
HETATM   16  C13 UNL     1      16.183  -1.538  52.334  1.00  0.00     0.031 A 
HETATM   17  C14 UNL     1      16.012  -0.846  51.014  1.00  0.00     0.031 A 
HETATM   18  C15 UNL     1      17.242  -0.096  50.697  1.00  0.00    -0.018 A 
HETATM   19  C17 UNL     1      19.405   0.969  50.578  1.00  0.00     0.114 C 
ENDBRANCH   7  10
BRANCH   1  20
HETATM   20  C3  UNL     1      26.591   0.500  52.619  1.00  0.00     0.031 A 
HETATM   21  C2  UNL     1      27.938   0.722  52.746  1.00  0.00     0.127 A 
HETATM   22  N1  UNL     1      28.462  -0.306  53.459  1.00  0.00    -0.285 N 
HETATM   23  C1  UNL     1      29.848  -0.486  53.833  1.00  0.00     0.179 C 
HETATM   24  N6  UNL     1      27.480  -1.144  53.770  1.00  0.00    -0.185 NA
HETATM   25  C18 UNL     1      26.319  -0.686  53.274  1.00  0.00     0.154 A 
ENDBRANCH   1  20
TORSDOF 2
ENDMDL
MODEL 7
REMARK VINA RESULT:      -8.5      2.657      6.781
REMARK  2 active torsions:
REMARK  status: ('A' for Active; 'I' for Inactive)
REMARK    1  A    between atoms: C3_4  and  C4_5 
REMARK    2  A    between atoms: C8_11  and  S1_12 
ROOT
HETATM    1  C4  UNL     1      25.262   5.026  49.944  1.00  0.00     0.090 A 
HETATM    2  C5  UNL     1      24.036   5.645  49.794  1.00  0.00     0.038 A 
HETATM    3  C6  UNL     1      22.882   5.297  50.456  1.00  0.00     0.057 A 
HETATM    4  C7  UNL     1      22.986   4.226  51.348  1.00  0.00     0.175 A 
HETATM    5  N2  UNL     1      22.156   3.570  52.175  1.00  0.00    -0.128 NA
HETATM    6  N3  UNL     1      22.843   2.607  52.791  1.00  0.00    -0.121 NA
HETATM    7  C8  UNL     1      24.118   2.641  52.362  1.00  0.00     0.206 A 
HETATM    8  N4  UNL     1      24.195   3.646  51.470  1.00  0.00    -0.188 N 
HETATM    9  N5  UNL     1      25.322   3.984  50.825  1.00  0.00    -0.163 NA
ENDROOT
BRANCH   7  10
HETATM   10  S1  UNL     1      25.223   1.462  53.034  1.00  0.00    -0.123 SA
HETATM   11  C9  UNL     1      25.140   0.041  52.281  1.00  0.00     0.020 C 
HETATM   12  C10 UNL     1      26.032  -1.051  52.757  1.00  0.00     0.072 C 
HETATM   13  C11 UNL     1      27.390  -0.576  53.048  1.00  0.00    -0.051 A 
HETATM   14  C12 UNL     1      28.322  -1.467  53.311  1.00  0.00    -0.019 A 
HETATM   15  C16 UNL     1      27.774   0.829  53.066  1.00  0.00    -0.046 A 
HETATM   16  C13 UNL     1      29.756  -1.307  53.634  1.00  0.00     0.031 A 
HETATM   17  C14 UNL     1      30.201   0.125  53.667  1.00  0.00     0.031 A 
HETATM   18  C15 UNL     1      29.052   0.996  53.355  1.00  0.00    -0.018 A 
HETATM   19  C17 UNL     1      26.940   2.030  52.810  1.00  0.00     0.114 C 
ENDBRANCH   7  10
BRANCH   1  20
HETATM   20  C3  UNL     1      26.400   5.519  49.161  1.00  0.00     0.031 A 
HETATM   21  C2  UNL     1      26.579   6.786  48.669  1.00  0.00     0.127 A 
HETATM   22  N1  UNL     1      27.763   6.810  48.007  1.00  0.00    -0.285 N 
HETATM   23  C1  UNL     1      28.354   7.943  47.328  1.00  0.00     0.179 C 
HETATM   24  N6  UNL     1      28.309   5.602  48.080  1.00  0.00    -0.185 NA
HETATM   25  C18 UNL     1      27.505   4.783  48.779  1.00  0.00     0.154 A 
ENDBRANCH   1  20
TORSDOF 2
ENDMDL
MODEL 8
REMARK VINA RESULT:      -8.4      3.172      6.982
REMARK  2 active torsions:
REMARK  status: ('A' for Active; 'I' for Inactive)
REMARK    1  A    between atoms: C3_4  and  C4_5 
REMARK    2  A    between atoms: C8_11  and  S1_12 
ROOT
HETATM    1  C4  UNL     1      25.396   6.174  49.250  1.00  0.00     0.090 A 
HETATM    2  C5  UNL     1      24.709   7.283  48.794  1.00  0.00     0.038 A 
HETATM    3  C6  UNL     1      23.419   7.616  49.135  1.00  0.00     0.057 A 
HETATM    4  C7  UNL     1      22.773   6.745  50.016  1.00  0.00     0.175 A 
HETATM    5  N2  UNL     1      21.565   6.676  50.598  1.00  0.00    -0.128 NA
HETATM    6  N3  UNL     1      21.524   5.585  51.364  1.00  0.00    -0.121 NA
HETATM    7  C8  UNL     1      22.706   4.949  51.277  1.00  0.00     0.206 A 
HETATM    8  N4  UNL     1      23.471   5.675  50.441  1.00  0.00    -0.188 N 
HETATM    9  N5  UNL     1      24.730   5.349  50.110  1.00  0.00    -0.163 NA
ENDROOT
BRANCH   7  10
HETATM   10  S1  UNL     1      22.896   3.475  52.203  1.00  0.00    -0.123 SA
HETATM   11  C9  UNL     1      22.577   2.158  51.335  1.00  0.00     0.020 C 
HETATM   12  C10 UNL     1      22.702   0.835  52.007  1.00  0.00     0.072 C 
HETATM   13  C11 UNL     1      23.897   0.751  52.855  1.00  0.00    -0.051 A 
HETATM   14  C12 UNL     1      24.218  -0.417  53.369  1.00  0.00    -0.019 A 
HETATM   15  C16 UNL     1      24.754   1.886  53.168  1.00  0.00    -0.046 A 
HETATM   16  C13 UNL     1      25.340  -0.818  54.244  1.00  0.00     0.031 A 
HETATM   17  C14 UNL     1      26.253   0.319  54.597  1.00  0.00     0.031 A 
HETATM   18  C15 UNL     1      25.763   1.551  53.951  1.00  0.00    -0.018 A 
HETATM   19  C17 UNL     1      24.631   3.300  52.731  1.00  0.00     0.114 C 
ENDBRANCH   7  10
BRANCH   1  20
HETATM   20  C3  UNL     1      26.772   5.960  48.789  1.00  0.00     0.031 A 
HETATM   21  C2  UNL     1      27.633   6.901  48.288  1.00  0.00     0.127 A 
HETATM   22  N1  UNL     1      28.799   6.277  47.985  1.00  0.00    -0.285 N 
HETATM   23  C1  UNL     1      29.989   6.884  47.430  1.00  0.00     0.179 C 
HETATM   24  N6  UNL     1      28.676   4.990  48.286  1.00  0.00    -0.185 NA
HETATM   25  C18 UNL     1      27.450   4.756  48.782  1.00  0.00     0.154 A 
ENDBRANCH   1  20
TORSDOF 2
ENDMDL
MODEL 9
REMARK VINA RESULT:      -8.3      3.210      7.800
REMARK  2 active torsions:
REMARK  status: ('A' for Active; 'I' for Inactive)
REMARK    1  A    between atoms: C3_4  and  C4_5 
REMARK    2  A    between atoms: C8_11  and  S1_12 
ROOT
HETATM    1  C4  UNL     1      25.486   3.114  50.752  1.00  0.00     0.090 A 
HETATM    2  C5  UNL     1      26.681   2.579  51.194  1.00  0.00     0.038 A 
HETATM    3  C6  UNL     1      26.806   1.495  52.030  1.00  0.00     0.057 A 
HETATM    4  C7  UNL     1      25.612   0.905  52.454  1.00  0.00     0.175 A 
HETATM    5  N2  UNL     1      25.266  -0.127  53.239  1.00  0.00    -0.128 NA
HETATM    6  N3  UNL     1      23.936  -0.212  53.270  1.00  0.00    -0.121 NA
HETATM    7  C8  UNL     1      23.421   0.767  52.504  1.00  0.00     0.206 A 
HETATM    8  N4  UNL     1      24.466   1.452  52.004  1.00  0.00    -0.188 N 
HETATM    9  N5  UNL     1      24.342   2.510  51.188  1.00  0.00    -0.163 NA
ENDROOT
BRANCH   7  10
HETATM   10  S1  UNL     1      21.677   0.863  52.386  1.00  0.00    -0.123 SA
HETATM   11  C9  UNL     1      21.159   0.794  50.864  1.00  0.00     0.020 C 
HETATM   12  C10 UNL     1      19.691   0.865  50.625  1.00  0.00     0.072 C 
HETATM   13  C11 UNL     1      18.930   0.053  51.583  1.00  0.00    -0.051 A 
HETATM   14  C12 UNL     1      17.640  -0.110  51.379  1.00  0.00    -0.019 A 
HETATM   15  C16 UNL     1      19.515  -0.586  52.753  1.00  0.00    -0.046 A 
HETATM   16  C13 UNL     1      16.622  -0.857  52.148  1.00  0.00     0.031 A 
HETATM   17  C14 UNL     1      17.176  -1.533  53.367  1.00  0.00     0.031 A 
HETATM   18  C15 UNL     1      18.622  -1.259  53.457  1.00  0.00    -0.018 A 
HETATM   19  C17 UNL     1      20.924  -0.571  53.221  1.00  0.00     0.114 C 
ENDBRANCH   7  10
BRANCH   1  20
HETATM   20  C3  UNL     1      25.524   4.277  49.859  1.00  0.00     0.031 A 
HETATM   21  C2  UNL     1      24.453   4.989  49.381  1.00  0.00     0.127 A 
HETATM   22  N1  UNL     1      24.935   5.981  48.592  1.00  0.00    -0.285 N 
HETATM   23  C1  UNL     1      24.162   6.975  47.879  1.00  0.00     0.179 C 
HETATM   24  N6  UNL     1      26.260   5.898  48.574  1.00  0.00    -0.185 NA
HETATM   25  C18 UNL     1      26.659   4.868  49.338  1.00  0.00     0.154 A 
ENDBRANCH   1  20
TORSDOF 2
ENDMDL
