MODEL 1
REMARK VINA RESULT:      -6.9      0.000      0.000
REMARK  8 active torsions:
REMARK  status: ('A' for Active; 'I' for Inactive)
REMARK    1  A    between atoms: C2_2  and  C3_3 
REMARK    2  A    between atoms: C7_9  and  N3_10 
REMARK    3  A    between atoms: N3_10  and  C8_11 
REMARK    4  A    between atoms: C8_11  and  C9_12 
REMARK    5  A    between atoms: C12_16  and  O1_17 
REMARK    6  A    between atoms: C15_21  and  C16_22 
REMARK    7  A    between atoms: C16_22  and  C17_23 
REMARK    8  A    between atoms: C17_23  and  C18_24 
ROOT
HETATM    1  C3  UNL     1      23.995   2.859  51.654  1.00  0.00     0.108 A 
HETATM    2  N1  UNL     1      25.186   3.116  52.438  1.00  0.00    -0.282 NA
HETATM    3  C4  UNL     1      25.726   2.332  53.272  1.00  0.00     0.137 A 
HETATM    4  C5  UNL     1      25.190   1.006  53.556  1.00  0.00     0.088 A 
HETATM    5  C6  UNL     1      25.804   0.109  54.518  1.00  0.00     0.103 C 
HETATM    6  N2  UNL     1      26.306  -0.615  55.282  1.00  0.00    -0.191 NA
HETATM    7  C7  UNL     1      24.092   0.533  52.943  1.00  0.00     0.059 A 
HETATM    8  C10 UNL     1      23.556   1.473  51.926  1.00  0.00     0.005 A 
HETATM    9  C11 UNL     1      22.585   0.782  51.291  1.00  0.00     0.050 C 
HETATM   10  C12 UNL     1      21.763   1.303  50.177  1.00  0.00     0.090 C 
HETATM   11  C14 UNL     1      22.101   2.268  49.301  1.00  0.00     0.172 C 
HETATM   12  O2  UNL     1      23.307   2.945  49.306  1.00  0.00    -0.352 OA
HETATM   13  C15 UNL     1      24.251   3.262  50.281  1.00  0.00     0.162 C 
ENDROOT
BRANCH   7  14
HETATM   14  N3  UNL     1      23.499  -0.741  53.162  1.00  0.00    -0.387 N 
HETATM   15  H7  UNL     1      23.544  -1.522  52.447  1.00  0.00     0.159 HD
BRANCH  14  16
HETATM   16  C8  UNL     1      22.833  -0.929  54.397  1.00  0.00     0.135 C 
BRANCH  16  17
HETATM   17  C9  UNL     1      21.334  -0.995  54.310  1.00  0.00     0.134 C 
HETATM   18 CL1  UNL     1      20.509   0.538  54.463  1.00  0.00    -0.129 Cl
ENDBRANCH  16  17
ENDBRANCH  14  16
ENDBRANCH   7  14
BRANCH   1  19
HETATM   19  C2  UNL     1      22.968   3.850  52.264  1.00  0.00     0.036 C 
HETATM   20  C1  UNL     1      23.490   5.246  52.017  1.00  0.00     0.008 C 
ENDBRANCH   1  19
BRANCH  13  21
HETATM   21  C16 UNL     1      25.602   2.872  49.741  1.00  0.00     0.037 C 
BRANCH  21  22
HETATM   22  C17 UNL     1      26.608   3.965  49.676  1.00  0.00     0.040 C 
BRANCH  22  23
HETATM   23  C18 UNL     1      25.874   5.258  49.290  1.00  0.00     0.248 A 
HETATM   24  C19 UNL     1      26.553   6.320  48.612  1.00  0.00     0.305 A 
HETATM   25  N4  UNL     1      26.291   6.465  50.035  1.00  0.00     0.091 N 
HETATM   26  H25 UNL     1      25.490   7.074  50.349  1.00  0.00     0.316 HD
ENDBRANCH  22  23
ENDBRANCH  21  22
ENDBRANCH  13  21
BRANCH  10  27
HETATM   27  O1  UNL     1      20.494   0.703  50.043  1.00  0.00    -0.354 OA
HETATM   28  C13 UNL     1      19.503   0.925  51.011  1.00  0.00     0.210 C 
ENDBRANCH  10  27
TORSDOF 8
ENDMDL
MODEL 2
REMARK VINA RESULT:      -6.9      2.725      4.750
REMARK  8 active torsions:
REMARK  status: ('A' for Active; 'I' for Inactive)
REMARK    1  A    between atoms: C2_2  and  C3_3 
REMARK    2  A    between atoms: C7_9  and  N3_10 
REMARK    3  A    between atoms: N3_10  and  C8_11 
REMARK    4  A    between atoms: C8_11  and  C9_12 
REMARK    5  A    between atoms: C12_16  and  O1_17 
REMARK    6  A    between atoms: C15_21  and  C16_22 
REMARK    7  A    between atoms: C16_22  and  C17_23 
REMARK    8  A    between atoms: C17_23  and  C18_24 
ROOT
HETATM    1  C3  UNL     1      25.366   0.984  53.126  1.00  0.00     0.108 A 
HETATM    2  N1  UNL     1      25.281  -0.057  54.129  1.00  0.00    -0.282 NA
HETATM    3  C4  UNL     1      24.244  -0.698  54.467  1.00  0.00     0.137 A 
HETATM    4  C5  UNL     1      22.944  -0.457  53.854  1.00  0.00     0.088 A 
HETATM    5  C6  UNL     1      21.752  -1.187  54.247  1.00  0.00     0.103 C 
HETATM    6  N2  UNL     1      20.798  -1.782  54.555  1.00  0.00    -0.191 NA
HETATM    7  C7  UNL     1      22.769   0.457  52.885  1.00  0.00     0.059 A 
HETATM    8  C10 UNL     1      24.038   1.117  52.487  1.00  0.00     0.005 A 
HETATM    9  C11 UNL     1      23.721   1.857  51.403  1.00  0.00     0.050 C 
HETATM   10  C12 UNL     1      24.673   2.693  50.638  1.00  0.00     0.090 C 
HETATM   11  C14 UNL     1      26.003   2.519  50.534  1.00  0.00     0.172 C 
HETATM   12  O2  UNL     1      26.712   1.501  51.147  1.00  0.00    -0.352 OA
HETATM   13  C15 UNL     1      26.528   0.727  52.291  1.00  0.00     0.162 C 
ENDROOT
BRANCH   7  14
HETATM   14  N3  UNL     1      21.540   0.760  52.238  1.00  0.00    -0.387 N 
HETATM   15  H7  UNL     1      21.289   0.379  51.281  1.00  0.00     0.159 HD
BRANCH  14  16
HETATM   16  C8  UNL     1      20.645   1.608  52.934  1.00  0.00     0.135 C 
BRANCH  16  17
HETATM   17  C9  UNL     1      20.205   2.830  52.177  1.00  0.00     0.134 C 
HETATM   18 CL1  UNL     1      21.295   4.194  52.261  1.00  0.00    -0.129 Cl
ENDBRANCH  16  17
ENDBRANCH  14  16
ENDBRANCH   7  14
BRANCH   1  19
HETATM   19  C2  UNL     1      25.654   2.251  53.976  1.00  0.00     0.036 C 
HETATM   20  C1  UNL     1      27.153   2.423  54.032  1.00  0.00     0.008 C 
ENDBRANCH   1  19
BRANCH  13  21
HETATM   21  C16 UNL     1      26.726  -0.713  51.895  1.00  0.00     0.037 C 
BRANCH  21  22
HETATM   22  C17 UNL     1      27.651  -1.494  52.757  1.00  0.00     0.040 C 
BRANCH  22  23
HETATM   23  C18 UNL     1      28.765  -0.550  53.231  1.00  0.00     0.248 A 
HETATM   24  C19 UNL     1      29.989  -1.059  53.769  1.00  0.00     0.305 A 
HETATM   25  N4  UNL     1      28.996  -0.531  54.692  1.00  0.00     0.091 N 
HETATM   26  H25 UNL     1      29.133   0.433  55.093  1.00  0.00     0.316 HD
ENDBRANCH  22  23
ENDBRANCH  21  22
ENDBRANCH  13  21
BRANCH  10  27
HETATM   27  O1  UNL     1      24.092   3.779  49.953  1.00  0.00    -0.354 OA
HETATM   28  C13 UNL     1      23.009   3.567  49.085  1.00  0.00     0.210 C 
ENDBRANCH  10  27
TORSDOF 8
ENDMDL
MODEL 3
REMARK VINA RESULT:      -6.7      2.642      4.972
REMARK  8 active torsions:
REMARK  status: ('A' for Active; 'I' for Inactive)
REMARK    1  A    between atoms: C2_2  and  C3_3 
REMARK    2  A    between atoms: C7_9  and  N3_10 
REMARK    3  A    between atoms: N3_10  and  C8_11 
REMARK    4  A    between atoms: C8_11  and  C9_12 
REMARK    5  A    between atoms: C12_16  and  O1_17 
REMARK    6  A    between atoms: C15_21  and  C16_22 
REMARK    7  A    between atoms: C16_22  and  C17_23 
REMARK    8  A    between atoms: C17_23  and  C18_24 
ROOT
HETATM    1  C3  UNL     1      25.468   1.014  53.155  1.00  0.00     0.108 A 
HETATM    2  N1  UNL     1      25.355  -0.047  54.135  1.00  0.00    -0.282 NA
HETATM    3  C4  UNL     1      24.297  -0.655  54.472  1.00  0.00     0.137 A 
HETATM    4  C5  UNL     1      23.000  -0.350  53.881  1.00  0.00     0.088 A 
HETATM    5  C6  UNL     1      21.785  -1.042  54.273  1.00  0.00     0.103 C 
HETATM    6  N2  UNL     1      20.813  -1.608  54.579  1.00  0.00    -0.191 NA
HETATM    7  C7  UNL     1      22.849   0.592  52.936  1.00  0.00     0.059 A 
HETATM    8  C10 UNL     1      24.138   1.212  52.536  1.00  0.00     0.005 A 
HETATM    9  C11 UNL     1      23.837   1.988  51.474  1.00  0.00     0.050 C 
HETATM   10  C12 UNL     1      24.811   2.804  50.716  1.00  0.00     0.090 C 
HETATM   11  C14 UNL     1      26.132   2.582  50.592  1.00  0.00     0.172 C 
HETATM   12  O2  UNL     1      26.809   1.524  51.172  1.00  0.00    -0.352 OA
HETATM   13  C15 UNL     1      26.609   0.731  52.300  1.00  0.00     0.162 C 
ENDROOT
BRANCH   7  14
HETATM   14  N3  UNL     1      21.625   0.958  52.311  1.00  0.00    -0.387 N 
HETATM   15  H7  UNL     1      21.032   1.769  52.649  1.00  0.00     0.159 HD
BRANCH  14  16
HETATM   16  C8  UNL     1      21.222   0.182  51.198  1.00  0.00     0.135 C 
BRANCH  16  17
HETATM   17  C9  UNL     1      20.592   0.959  50.075  1.00  0.00     0.134 C 
HETATM   18 CL1  UNL     1      21.547   1.070  48.616  1.00  0.00    -0.129 Cl
ENDBRANCH  16  17
ENDBRANCH  14  16
ENDBRANCH   7  14
BRANCH   1  19
HETATM   19  C2  UNL     1      25.814   2.248  54.030  1.00  0.00     0.036 C 
HETATM   20  C1  UNL     1      27.315   2.415  53.998  1.00  0.00     0.008 C 
ENDBRANCH   1  19
BRANCH  13  21
HETATM   21  C16 UNL     1      26.746  -0.706  51.869  1.00  0.00     0.037 C 
BRANCH  21  22
HETATM   22  C17 UNL     1      27.666  -1.537  52.689  1.00  0.00     0.040 C 
BRANCH  22  23
HETATM   23  C18 UNL     1      28.795  -0.629  53.198  1.00  0.00     0.248 A 
HETATM   24  C19 UNL     1      29.987  -1.178  53.769  1.00  0.00     0.305 A 
HETATM   25  N4  UNL     1      28.985  -0.621  54.665  1.00  0.00     0.091 N 
HETATM   26  H25 UNL     1      29.140   0.338  55.073  1.00  0.00     0.316 HD
ENDBRANCH  22  23
ENDBRANCH  21  22
ENDBRANCH  13  21
BRANCH  10  27
HETATM   27  O1  UNL     1      24.265   3.928  50.063  1.00  0.00    -0.354 OA
HETATM   28  C13 UNL     1      25.111   4.890  49.489  1.00  0.00     0.210 C 
ENDBRANCH  10  27
TORSDOF 8
ENDMDL
MODEL 4
REMARK VINA RESULT:      -6.3      2.859      4.993
REMARK  8 active torsions:
REMARK  status: ('A' for Active; 'I' for Inactive)
REMARK    1  A    between atoms: C2_2  and  C3_3 
REMARK    2  A    between atoms: C7_9  and  N3_10 
REMARK    3  A    between atoms: N3_10  and  C8_11 
REMARK    4  A    between atoms: C8_11  and  C9_12 
REMARK    5  A    between atoms: C12_16  and  O1_17 
REMARK    6  A    between atoms: C15_21  and  C16_22 
REMARK    7  A    between atoms: C16_22  and  C17_23 
REMARK    8  A    between atoms: C17_23  and  C18_24 
ROOT
HETATM    1  C3  UNL     1      23.926   3.388  50.149  1.00  0.00     0.108 A 
HETATM    2  N1  UNL     1      22.907   2.742  50.951  1.00  0.00    -0.282 NA
HETATM    3  C4  UNL     1      23.091   1.860  51.839  1.00  0.00     0.137 A 
HETATM    4  C5  UNL     1      24.418   1.367  52.186  1.00  0.00     0.088 A 
HETATM    5  C6  UNL     1      24.629   0.350  53.201  1.00  0.00     0.103 C 
HETATM    6  N2  UNL     1      24.798  -0.457  54.024  1.00  0.00    -0.191 NA
HETATM    7  C7  UNL     1      25.529   1.824  51.587  1.00  0.00     0.059 A 
HETATM    8  C10 UNL     1      25.247   2.907  50.610  1.00  0.00     0.005 A 
HETATM    9  C11 UNL     1      26.461   3.368  50.241  1.00  0.00     0.050 C 
HETATM   10  C12 UNL     1      26.695   4.471  49.282  1.00  0.00     0.090 C 
HETATM   11  C14 UNL     1      25.860   5.487  48.995  1.00  0.00     0.172 C 
HETATM   12  O2  UNL     1      24.613   5.665  49.569  1.00  0.00    -0.352 OA
HETATM   13  C15 UNL     1      23.662   4.818  50.133  1.00  0.00     0.162 C 
ENDROOT
BRANCH   7  14
HETATM   14  N3  UNL     1      26.859   1.397  51.857  1.00  0.00    -0.387 N 
HETATM   15  H7  UNL     1      27.381   0.724  51.226  1.00  0.00     0.159 HD
BRANCH  14  16
HETATM   16  C8  UNL     1      27.470   1.916  53.023  1.00  0.00     0.135 C 
BRANCH  16  17
HETATM   17  C9  UNL     1      28.686   1.167  53.493  1.00  0.00     0.134 C 
HETATM   18 CL1  UNL     1      28.478   0.257  54.971  1.00  0.00    -0.129 Cl
ENDBRANCH  16  17
ENDBRANCH  14  16
ENDBRANCH   7  14
BRANCH   1  19
HETATM   19  C2  UNL     1      23.645   2.830  48.729  1.00  0.00     0.036 C 
HETATM   20  C1  UNL     1      22.221   3.189  48.379  1.00  0.00     0.008 C 
ENDBRANCH   1  19
BRANCH  13  21
HETATM   21  C16 UNL     1      23.264   5.410  51.460  1.00  0.00     0.037 C 
BRANCH  21  22
HETATM   22  C17 UNL     1      21.884   5.958  51.530  1.00  0.00     0.040 C 
BRANCH  22  23
HETATM   23  C18 UNL     1      21.617   6.730  50.229  1.00  0.00     0.248 A 
HETATM   24  C19 UNL     1      22.112   8.060  50.043  1.00  0.00     0.305 A 
HETATM   25  N4  UNL     1      20.703   7.886  50.359  1.00  0.00     0.091 N 
HETATM   26  H25 UNL     1      19.992   7.959  49.585  1.00  0.00     0.316 HD
ENDBRANCH  22  23
ENDBRANCH  21  22
ENDBRANCH  13  21
BRANCH  10  27
HETATM   27  O1  UNL     1      27.935   4.425  48.614  1.00  0.00    -0.354 OA
HETATM   28  C13 UNL     1      28.583   5.615  48.249  1.00  0.00     0.210 C 
ENDBRANCH  10  27
TORSDOF 8
ENDMDL
MODEL 5
REMARK VINA RESULT:      -6.2      2.693      3.950
REMARK  8 active torsions:
REMARK  status: ('A' for Active; 'I' for Inactive)
REMARK    1  A    between atoms: C2_2  and  C3_3 
REMARK    2  A    between atoms: C7_9  and  N3_10 
REMARK    3  A    between atoms: N3_10  and  C8_11 
REMARK    4  A    between atoms: C8_11  and  C9_12 
REMARK    5  A    between atoms: C12_16  and  O1_17 
REMARK    6  A    between atoms: C15_21  and  C16_22 
REMARK    7  A    between atoms: C16_22  and  C17_23 
REMARK    8  A    between atoms: C17_23  and  C18_24 
ROOT
HETATM    1  C3  UNL     1      22.314   2.468  51.401  1.00  0.00     0.108 A 
HETATM    2  N1  UNL     1      23.291   3.312  50.744  1.00  0.00    -0.282 NA
HETATM    3  C4  UNL     1      24.542   3.307  50.931  1.00  0.00     0.137 A 
HETATM    4  C5  UNL     1      25.186   2.402  51.875  1.00  0.00     0.088 A 
HETATM    5  C6  UNL     1      26.621   2.402  52.096  1.00  0.00     0.103 C 
HETATM    6  N2  UNL     1      27.775   2.394  52.262  1.00  0.00    -0.191 NA
HETATM    7  C7  UNL     1      24.490   1.512  52.600  1.00  0.00     0.059 A 
HETATM    8  C10 UNL     1      23.040   1.521  52.276  1.00  0.00     0.005 A 
HETATM    9  C11 UNL     1      22.527   0.467  52.946  1.00  0.00     0.050 C 
HETATM   10  C12 UNL     1      21.105   0.057  52.923  1.00  0.00     0.090 C 
HETATM   11  C14 UNL     1      20.211   0.287  51.945  1.00  0.00     0.172 C 
HETATM   12  O2  UNL     1      20.488   0.965  50.770  1.00  0.00    -0.352 OA
HETATM   13  C15 UNL     1      21.406   1.943  50.395  1.00  0.00     0.162 C 
ENDROOT
BRANCH   7  14
HETATM   14  N3  UNL     1      25.033   0.599  53.545  1.00  0.00    -0.387 N 
HETATM   15  H7  UNL     1      25.166   0.847  54.567  1.00  0.00     0.159 HD
BRANCH  14  16
HETATM   16  C8  UNL     1      25.396  -0.680  53.059  1.00  0.00     0.135 C 
BRANCH  16  17
HETATM   17  C9  UNL     1      26.864  -0.994  53.124  1.00  0.00     0.134 C 
HETATM   18 CL1  UNL     1      27.318  -2.576  52.536  1.00  0.00    -0.129 Cl
ENDBRANCH  16  17
ENDBRANCH  14  16
ENDBRANCH   7  14
BRANCH   1  19
HETATM   19  C2  UNL     1      21.530   3.478  52.280  1.00  0.00     0.036 C 
HETATM   20  C1  UNL     1      20.875   4.470  51.348  1.00  0.00     0.008 C 
ENDBRANCH   1  19
BRANCH  13  21
HETATM   21  C16 UNL     1      22.061   1.479  49.120  1.00  0.00     0.037 C 
BRANCH  21  22
HETATM   22  C17 UNL     1      21.436   1.965  47.863  1.00  0.00     0.040 C 
BRANCH  22  23
HETATM   23  C18 UNL     1      22.217   3.202  47.395  1.00  0.00     0.248 A 
HETATM   24  C19 UNL     1      21.602   4.493  47.352  1.00  0.00     0.305 A 
HETATM   25  N4  UNL     1      21.780   3.771  46.102  1.00  0.00     0.091 N 
HETATM   26  H25 UNL     1      22.572   4.042  45.462  1.00  0.00     0.316 HD
ENDBRANCH  22  23
ENDBRANCH  21  22
ENDBRANCH  13  21
BRANCH  10  27
HETATM   27  O1  UNL     1      20.672  -0.650  54.062  1.00  0.00    -0.354 OA
HETATM   28  C13 UNL     1      21.544  -1.535  54.717  1.00  0.00     0.210 C 
ENDBRANCH  10  27
TORSDOF 8
ENDMDL
MODEL 6
REMARK VINA RESULT:      -6.2      2.754      5.548
REMARK  8 active torsions:
REMARK  status: ('A' for Active; 'I' for Inactive)
REMARK    1  A    between atoms: C2_2  and  C3_3 
REMARK    2  A    between atoms: C7_9  and  N3_10 
REMARK    3  A    between atoms: N3_10  and  C8_11 
REMARK    4  A    between atoms: C8_11  and  C9_12 
REMARK    5  A    between atoms: C12_16  and  O1_17 
REMARK    6  A    between atoms: C15_21  and  C16_22 
REMARK    7  A    between atoms: C16_22  and  C17_23 
REMARK    8  A    between atoms: C17_23  and  C18_24 
ROOT
HETATM    1  C3  UNL     1      22.486   2.282  51.075  1.00  0.00     0.108 A 
HETATM    2  N1  UNL     1      22.213   0.907  51.442  1.00  0.00    -0.282 NA
HETATM    3  C4  UNL     1      22.892   0.186  52.229  1.00  0.00     0.137 A 
HETATM    4  C5  UNL     1      24.090   0.676  52.899  1.00  0.00     0.088 A 
HETATM    5  C6  UNL     1      24.874  -0.154  53.796  1.00  0.00     0.103 C 
HETATM    6  N2  UNL     1      25.495  -0.818  54.526  1.00  0.00    -0.191 NA
HETATM    7  C7  UNL     1      24.542   1.929  52.728  1.00  0.00     0.059 A 
HETATM    8  C10 UNL     1      23.658   2.741  51.853  1.00  0.00     0.005 A 
HETATM    9  C11 UNL     1      24.149   3.996  51.931  1.00  0.00     0.050 C 
HETATM   10  C12 UNL     1      23.585   5.173  51.233  1.00  0.00     0.090 C 
HETATM   11  C14 UNL     1      22.312   5.345  50.833  1.00  0.00     0.172 C 
HETATM   12  O2  UNL     1      21.298   4.421  51.017  1.00  0.00    -0.352 OA
HETATM   13  C15 UNL     1      21.246   3.036  51.156  1.00  0.00     0.162 C 
ENDROOT
BRANCH   7  14
HETATM   14  N3  UNL     1      25.700   2.488  53.335  1.00  0.00    -0.387 N 
HETATM   15  H7  UNL     1      25.654   3.089  54.208  1.00  0.00     0.159 HD
BRANCH  14  16
HETATM   16  C8  UNL     1      26.943   2.204  52.719  1.00  0.00     0.135 C 
BRANCH  16  17
HETATM   17  C9  UNL     1      28.139   2.294  53.625  1.00  0.00     0.134 C 
HETATM   18 CL1  UNL     1      28.674   0.778  54.309  1.00  0.00    -0.129 Cl
ENDBRANCH  16  17
ENDBRANCH  14  16
ENDBRANCH   7  14
BRANCH   1  19
HETATM   19  C2  UNL     1      22.881   2.161  49.579  1.00  0.00     0.036 C 
HETATM   20  C1  UNL     1      21.761   1.432  48.877  1.00  0.00     0.008 C 
ENDBRANCH   1  19
BRANCH  13  21
HETATM   21  C16 UNL     1      20.393   2.737  52.361  1.00  0.00     0.037 C 
BRANCH  21  22
HETATM   22  C17 UNL     1      18.962   2.449  52.079  1.00  0.00     0.040 C 
BRANCH  22  23
HETATM   23  C18 UNL     1      18.905   1.390  50.967  1.00  0.00     0.248 A 
HETATM   24  C19 UNL     1      17.804   0.481  50.866  1.00  0.00     0.305 A 
HETATM   25  N4  UNL     1      19.056  -0.009  51.422  1.00  0.00     0.091 N 
HETATM   26  H25 UNL     1      19.692  -0.591  50.816  1.00  0.00     0.316 HD
ENDBRANCH  22  23
ENDBRANCH  21  22
ENDBRANCH  13  21
BRANCH  10  27
HETATM   27  O1  UNL     1      24.506   6.208  50.974  1.00  0.00    -0.354 OA
HETATM   28  C13 UNL     1      24.060   7.533  50.849  1.00  0.00     0.210 C 
ENDBRANCH  10  27
TORSDOF 8
ENDMDL
MODEL 7
REMARK VINA RESULT:      -6.1      3.253      6.790
REMARK  8 active torsions:
REMARK  status: ('A' for Active; 'I' for Inactive)
REMARK    1  A    between atoms: C2_2  and  C3_3 
REMARK    2  A    between atoms: C7_9  and  N3_10 
REMARK    3  A    between atoms: N3_10  and  C8_11 
REMARK    4  A    between atoms: C8_11  and  C9_12 
REMARK    5  A    between atoms: C12_16  and  O1_17 
REMARK    6  A    between atoms: C15_21  and  C16_22 
REMARK    7  A    between atoms: C16_22  and  C17_23 
REMARK    8  A    between atoms: C17_23  and  C18_24 
ROOT
HETATM    1  C3  UNL     1      24.184   3.600  50.363  1.00  0.00     0.108 A 
HETATM    2  N1  UNL     1      25.309   2.750  50.029  1.00  0.00    -0.282 NA
HETATM    3  C4  UNL     1      26.417   3.120  49.543  1.00  0.00     0.137 A 
HETATM    4  C5  UNL     1      26.713   4.517  49.251  1.00  0.00     0.088 A 
HETATM    5  C6  UNL     1      27.982   4.942  48.687  1.00  0.00     0.103 C 
HETATM    6  N2  UNL     1      29.006   5.282  48.246  1.00  0.00    -0.191 NA
HETATM    7  C7  UNL     1      25.828   5.500  49.487  1.00  0.00     0.059 A 
HETATM    8  C10 UNL     1      24.582   5.005  50.124  1.00  0.00     0.005 A 
HETATM    9  C11 UNL     1      23.892   6.118  50.451  1.00  0.00     0.050 C 
HETATM   10  C12 UNL     1      22.576   6.133  51.128  1.00  0.00     0.090 C 
HETATM   11  C14 UNL     1      22.072   5.187  51.942  1.00  0.00     0.172 C 
HETATM   12  O2  UNL     1      22.724   4.015  52.283  1.00  0.00    -0.352 OA
HETATM   13  C15 UNL     1      23.693   3.219  51.677  1.00  0.00     0.162 C 
ENDROOT
BRANCH   7  14
HETATM   14  N3  UNL     1      26.030   6.883  49.228  1.00  0.00    -0.387 N 
HETATM   15  H7  UNL     1      26.330   7.567  49.981  1.00  0.00     0.159 HD
BRANCH  14  16
HETATM   16  C8  UNL     1      25.812   7.322  47.900  1.00  0.00     0.135 C 
BRANCH  16  17
HETATM   17  C9  UNL     1      26.732   8.414  47.430  1.00  0.00     0.134 C 
HETATM   18 CL1  UNL     1      28.131   8.697  48.438  1.00  0.00    -0.129 Cl
ENDBRANCH  16  17
ENDBRANCH  14  16
ENDBRANCH   7  14
BRANCH   1  19
HETATM   19  C2  UNL     1      23.121   3.183  49.311  1.00  0.00     0.036 C 
HETATM   20  C1  UNL     1      22.553   1.854  49.749  1.00  0.00     0.008 C 
ENDBRANCH   1  19
BRANCH  13  21
HETATM   21  C16 UNL     1      24.760   2.949  52.706  1.00  0.00     0.037 C 
BRANCH  21  22
HETATM   22  C17 UNL     1      24.813   1.558  53.226  1.00  0.00     0.040 C 
BRANCH  22  23
HETATM   23  C18 UNL     1      26.147   1.382  53.967  1.00  0.00     0.248 A 
HETATM   24  C19 UNL     1      27.060   0.339  53.611  1.00  0.00     0.305 A 
HETATM   25  N4  UNL     1      26.247   0.168  54.806  1.00  0.00     0.091 N 
HETATM   26  H25 UNL     1      26.683   0.333  55.750  1.00  0.00     0.316 HD
ENDBRANCH  22  23
ENDBRANCH  21  22
ENDBRANCH  13  21
BRANCH  10  27
HETATM   27  O1  UNL     1      21.790   7.275  50.875  1.00  0.00    -0.354 OA
HETATM   28  C13 UNL     1      22.065   8.088  49.765  1.00  0.00     0.210 C 
ENDBRANCH  10  27
TORSDOF 8
ENDMDL
MODEL 8
REMARK VINA RESULT:      -6.1      2.785      5.356
REMARK  8 active torsions:
REMARK  status: ('A' for Active; 'I' for Inactive)
REMARK    1  A    between atoms: C2_2  and  C3_3 
REMARK    2  A    between atoms: C7_9  and  N3_10 
REMARK    3  A    between atoms: N3_10  and  C8_11 
REMARK    4  A    between atoms: C8_11  and  C9_12 
REMARK    5  A    between atoms: C12_16  and  O1_17 
REMARK    6  A    between atoms: C15_21  and  C16_22 
REMARK    7  A    between atoms: C16_22  and  C17_23 
REMARK    8  A    between atoms: C17_23  and  C18_24 
ROOT
HETATM    1  C3  UNL     1      21.740   1.721  50.970  1.00  0.00     0.108 A 
HETATM    2  N1  UNL     1      20.653   0.883  51.432  1.00  0.00    -0.282 NA
HETATM    3  C4  UNL     1      20.692   0.051  52.384  1.00  0.00     0.137 A 
HETATM    4  C5  UNL     1      21.895  -0.174  53.174  1.00  0.00     0.088 A 
HETATM    5  C6  UNL     1      21.943  -1.135  54.262  1.00  0.00     0.103 C 
HETATM    6  N2  UNL     1      21.976  -1.898  55.142  1.00  0.00    -0.191 NA
HETATM    7  C7  UNL     1      23.037   0.495  52.944  1.00  0.00     0.059 A 
HETATM    8  C10 UNL     1      22.898   1.506  51.865  1.00  0.00     0.005 A 
HETATM    9  C11 UNL     1      24.057   2.198  51.886  1.00  0.00     0.050 C 
HETATM   10  C12 UNL     1      24.386   3.330  50.991  1.00  0.00     0.090 C 
HETATM   11  C14 UNL     1      23.520   4.164  50.386  1.00  0.00     0.172 C 
HETATM   12  O2  UNL     1      22.144   4.091  50.509  1.00  0.00    -0.352 OA
HETATM   13  C15 UNL     1      21.235   3.071  50.782  1.00  0.00     0.162 C 
ENDROOT
BRANCH   7  14
HETATM   14  N3  UNL     1      24.256   0.335  53.659  1.00  0.00    -0.387 N 
HETATM   15  H7  UNL     1      24.527   0.961  54.472  1.00  0.00     0.159 HD
BRANCH  14  16
HETATM   16  C8  UNL     1      25.109  -0.712  53.238  1.00  0.00     0.135 C 
BRANCH  16  17
HETATM   17  C9  UNL     1      26.578  -0.447  53.415  1.00  0.00     0.134 C 
HETATM   18 CL1  UNL     1      27.023   0.323  54.919  1.00  0.00    -0.129 Cl
ENDBRANCH  16  17
ENDBRANCH  14  16
ENDBRANCH   7  14
BRANCH   1  19
HETATM   19  C2  UNL     1      22.057   1.125  49.572  1.00  0.00     0.036 C 
HETATM   20  C1  UNL     1      20.914   1.497  48.657  1.00  0.00     0.008 C 
ENDBRANCH   1  19
BRANCH  13  21
HETATM   21  C16 UNL     1      20.316   3.567  51.867  1.00  0.00     0.037 C 
BRANCH  21  22
HETATM   22  C17 UNL     1      19.015   4.119  51.404  1.00  0.00     0.040 C 
BRANCH  22  23
HETATM   23  C18 UNL     1      17.957   3.016  51.548  1.00  0.00     0.248 A 
HETATM   24  C19 UNL     1      17.463   2.310  50.406  1.00  0.00     0.305 A 
HETATM   25  N4  UNL     1      16.625   3.344  50.994  1.00  0.00     0.091 N 
HETATM   26  H25 UNL     1      15.821   3.061  51.612  1.00  0.00     0.316 HD
ENDBRANCH  22  23
ENDBRANCH  21  22
ENDBRANCH  13  21
BRANCH  10  27
HETATM   27  O1  UNL     1      25.763   3.532  50.769  1.00  0.00    -0.354 OA
HETATM   28  C13 UNL     1      26.198   4.259  49.650  1.00  0.00     0.210 C 
ENDBRANCH  10  27
TORSDOF 8
ENDMDL
MODEL 9
REMARK VINA RESULT:      -6.1      2.498      5.181
REMARK  8 active torsions:
REMARK  status: ('A' for Active; 'I' for Inactive)
REMARK    1  A    between atoms: C2_2  and  C3_3 
REMARK    2  A    between atoms: C7_9  and  N3_10 
REMARK    3  A    between atoms: N3_10  and  C8_11 
REMARK    4  A    between atoms: C8_11  and  C9_12 
REMARK    5  A    between atoms: C12_16  and  O1_17 
REMARK    6  A    between atoms: C15_21  and  C16_22 
REMARK    7  A    between atoms: C16_22  and  C17_23 
REMARK    8  A    between atoms: C17_23  and  C18_24 
ROOT
HETATM    1  C3  UNL     1      24.774   2.037  52.380  1.00  0.00     0.108 A 
HETATM    2  N1  UNL     1      24.099   1.066  53.217  1.00  0.00    -0.282 NA
HETATM    3  C4  UNL     1      22.941   0.590  53.039  1.00  0.00     0.137 A 
HETATM    4  C5  UNL     1      22.103   0.977  51.911  1.00  0.00     0.088 A 
HETATM    5  C6  UNL     1      20.770   0.436  51.710  1.00  0.00     0.103 C 
HETATM    6  N2  UNL     1      19.706  -0.008  51.544  1.00  0.00    -0.191 NA
HETATM    7  C7  UNL     1      22.514   1.859  50.985  1.00  0.00     0.059 A 
HETATM    8  C10 UNL     1      23.907   2.319  51.214  1.00  0.00     0.005 A 
HETATM    9  C11 UNL     1      24.220   3.044  50.119  1.00  0.00     0.050 C 
HETATM   10  C12 UNL     1      25.522   3.704  49.880  1.00  0.00     0.090 C 
HETATM   11  C14 UNL     1      26.717   3.346  50.384  1.00  0.00     0.172 C 
HETATM   12  O2  UNL     1      26.922   2.271  51.231  1.00  0.00    -0.352 OA
HETATM   13  C15 UNL     1      26.136   1.584  52.154  1.00  0.00     0.162 C 
ENDROOT
BRANCH   7  14
HETATM   14  N3  UNL     1      21.764   2.297  49.859  1.00  0.00    -0.387 N 
HETATM   15  H7  UNL     1      21.610   1.689  49.004  1.00  0.00     0.159 HD
BRANCH  14  16
HETATM   16  C8  UNL     1      21.219   3.602  49.925  1.00  0.00     0.135 C 
BRANCH  16  17
HETATM   17  C9  UNL     1      20.478   3.920  51.193  1.00  0.00     0.134 C 
HETATM   18 CL1  UNL     1      18.792   3.461  51.210  1.00  0.00    -0.129 Cl
ENDBRANCH  16  17
ENDBRANCH  14  16
ENDBRANCH   7  14
BRANCH   1  19
HETATM   19  C2  UNL     1      24.827   3.291  53.293  1.00  0.00     0.036 C 
HETATM   20  C1  UNL     1      23.629   4.145  52.954  1.00  0.00     0.008 C 
ENDBRANCH   1  19
BRANCH  13  21
HETATM   21  C16 UNL     1      26.281   0.113  51.861  1.00  0.00     0.037 C 
BRANCH  21  22
HETATM   22  C17 UNL     1      27.107  -0.655  52.829  1.00  0.00     0.040 C 
BRANCH  22  23
HETATM   23  C18 UNL     1      27.807   0.351  53.755  1.00  0.00     0.248 A 
HETATM   24  C19 UNL     1      29.230   0.352  53.908  1.00  0.00     0.305 A 
HETATM   25  N4  UNL     1      28.422  -0.230  54.968  1.00  0.00     0.091 N 
HETATM   26  H25 UNL     1      28.250   0.327  55.845  1.00  0.00     0.316 HD
ENDBRANCH  22  23
ENDBRANCH  21  22
ENDBRANCH  13  21
BRANCH  10  27
HETATM   27  O1  UNL     1      25.473   4.826  49.028  1.00  0.00    -0.354 OA
HETATM   28  C13 UNL     1      26.620   5.611  48.830  1.00  0.00     0.210 C 
ENDBRANCH  10  27
TORSDOF 8
ENDMDL
