MODEL 1
REMARK VINA RESULT:      -8.6      0.000      0.000
REMARK  3 active torsions:
REMARK  status: ('A' for Active; 'I' for Inactive)
REMARK    1  A    between atoms: O1_2  and  C2_3 
REMARK    2  A    between atoms: C10_12  and  O3_13 
REMARK    3  A    between atoms: C13_16  and  O4_17 
ROOT
HETATM    1  C2  UNL     1      26.819   0.659  53.421  1.00  0.00     0.083 A 
HETATM    2  C3  UNL     1      27.471   1.491  52.534  1.00  0.00     0.038 A 
HETATM    3  C4  UNL     1      26.765   2.126  51.532  1.00  0.00     0.004 A 
HETATM    4  C5  UNL     1      25.414   1.976  51.362  1.00  0.00     0.017 A 
HETATM    5  C6  UNL     1      24.756   1.146  52.247  1.00  0.00     0.032 A 
HETATM    6  C7  UNL     1      25.443   0.513  53.240  1.00  0.00     0.062 A 
HETATM    7  C8  UNL     1      24.634  -0.334  54.106  1.00  0.00     0.200 A 
HETATM    8  O2  UNL     1      25.205  -0.957  55.055  1.00  0.00    -0.286 OA
HETATM    9  C9  UNL     1      23.202  -0.521  53.959  1.00  0.00     0.065 A 
HETATM   10  C10 UNL     1      22.514  -1.356  54.842  1.00  0.00     0.081 A 
HETATM   11  C11 UNL     1      21.162  -1.490  54.651  1.00  0.00     0.040 A 
HETATM   12  C12 UNL     1      20.452  -0.845  53.637  1.00  0.00     0.040 A 
HETATM   13  C13 UNL     1      21.185  -0.039  52.802  1.00  0.00     0.081 A 
HETATM   14  C14 UNL     1      22.552   0.140  52.941  1.00  0.00     0.065 A 
HETATM   15  C15 UNL     1      23.315   1.005  52.040  1.00  0.00     0.197 A 
HETATM   16  O5  UNL     1      22.701   1.590  51.128  1.00  0.00    -0.286 OA
ENDROOT
BRANCH   1  17
HETATM   17  O1  UNL     1      27.337  -0.062  54.483  1.00  0.00    -0.355 OA
HETATM   18  C1  UNL     1      28.698  -0.072  54.865  1.00  0.00     0.210 C 
ENDBRANCH   1  17
BRANCH  10  19
HETATM   19  O3  UNL     1      23.173  -2.026  55.875  1.00  0.00    -0.360 OA
HETATM   20  H7  UNL     1      23.815  -2.776  55.769  1.00  0.00     0.217 HD
ENDBRANCH  10  19
BRANCH  13  21
HETATM   21  O4  UNL     1      20.561   0.642  51.765  1.00  0.00    -0.360 OA
HETATM   22  H10 UNL     1      21.049   0.766  50.883  1.00  0.00     0.217 HD
ENDBRANCH  13  21
TORSDOF 3
ENDMDL
MODEL 2
REMARK VINA RESULT:      -8.3      1.030      3.525
REMARK  3 active torsions:
REMARK  status: ('A' for Active; 'I' for Inactive)
REMARK    1  A    between atoms: O1_2  and  C2_3 
REMARK    2  A    between atoms: C10_12  and  O3_13 
REMARK    3  A    between atoms: C13_16  and  O4_17 
ROOT
HETATM    1  C2  UNL     1      26.289   1.843  51.953  1.00  0.00     0.083 A 
HETATM    2  C3  UNL     1      27.595   1.850  52.399  1.00  0.00     0.038 A 
HETATM    3  C4  UNL     1      27.954   1.104  53.503  1.00  0.00     0.004 A 
HETATM    4  C5  UNL     1      27.064   0.333  54.204  1.00  0.00     0.017 A 
HETATM    5  C6  UNL     1      25.757   0.321  53.761  1.00  0.00     0.032 A 
HETATM    6  C7  UNL     1      25.391   1.054  52.673  1.00  0.00     0.062 A 
HETATM    7  C8  UNL     1      23.983   0.957  52.309  1.00  0.00     0.200 A 
HETATM    8  O2  UNL     1      23.567   1.613  51.304  1.00  0.00    -0.286 OA
HETATM    9  C9  UNL     1      23.009   0.153  53.025  1.00  0.00     0.065 A 
HETATM   10  C10 UNL     1      21.681   0.125  52.597  1.00  0.00     0.081 A 
HETATM   11  C11 UNL     1      20.809  -0.654  53.315  1.00  0.00     0.040 A 
HETATM   12  C12 UNL     1      21.176  -1.408  54.431  1.00  0.00     0.040 A 
HETATM   13  C13 UNL     1      22.496  -1.338  54.801  1.00  0.00     0.081 A 
HETATM   14  C14 UNL     1      23.427  -0.571  54.119  1.00  0.00     0.065 A 
HETATM   15  C15 UNL     1      24.831  -0.510  54.530  1.00  0.00     0.197 A 
HETATM   16  O5  UNL     1      25.181  -1.175  55.523  1.00  0.00    -0.286 OA
ENDROOT
BRANCH   1  17
HETATM   17  O1  UNL     1      25.730   2.513  50.878  1.00  0.00    -0.355 OA
HETATM   18  C1  UNL     1      26.462   3.236  49.909  1.00  0.00     0.210 C 
ENDBRANCH   1  17
BRANCH  10  19
HETATM   19  O3  UNL     1      21.255   0.858  51.487  1.00  0.00    -0.360 OA
HETATM   20  H7  UNL     1      21.525   1.788  51.262  1.00  0.00     0.217 HD
ENDBRANCH  10  19
BRANCH  13  21
HETATM   21  O4  UNL     1      22.952  -2.055  55.899  1.00  0.00    -0.360 OA
HETATM   22  H10 UNL     1      22.890  -1.644  56.826  1.00  0.00     0.217 HD
ENDBRANCH  13  21
TORSDOF 3
ENDMDL
MODEL 3
REMARK VINA RESULT:      -8.3      1.596      5.932
REMARK  3 active torsions:
REMARK  status: ('A' for Active; 'I' for Inactive)
REMARK    1  A    between atoms: O1_2  and  C2_3 
REMARK    2  A    between atoms: C10_12  and  O3_13 
REMARK    3  A    between atoms: C13_16  and  O4_17 
ROOT
HETATM    1  C2  UNL     1      22.553   0.979  51.614  1.00  0.00     0.083 A 
HETATM    2  C3  UNL     1      21.507   0.178  52.023  1.00  0.00     0.038 A 
HETATM    3  C4  UNL     1      21.675  -0.702  53.071  1.00  0.00     0.004 A 
HETATM    4  C5  UNL     1      22.857  -0.832  53.753  1.00  0.00     0.017 A 
HETATM    5  C6  UNL     1      23.907  -0.033  53.349  1.00  0.00     0.032 A 
HETATM    6  C7  UNL     1      23.753   0.840  52.315  1.00  0.00     0.062 A 
HETATM    7  C8  UNL     1      24.936   1.624  51.987  1.00  0.00     0.200 A 
HETATM    8  O2  UNL     1      24.868   2.460  51.034  1.00  0.00    -0.286 OA
HETATM    9  C9  UNL     1      26.205   1.516  52.683  1.00  0.00     0.065 A 
HETATM   10  C10 UNL     1      27.283   2.313  52.294  1.00  0.00     0.081 A 
HETATM   11  C11 UNL     1      28.455   2.165  52.991  1.00  0.00     0.040 A 
HETATM   12  C12 UNL     1      28.621   1.273  54.052  1.00  0.00     0.040 A 
HETATM   13  C13 UNL     1      27.525   0.518  54.386  1.00  0.00     0.081 A 
HETATM   14  C14 UNL     1      26.313   0.620  53.723  1.00  0.00     0.065 A 
HETATM   15  C15 UNL     1      25.156  -0.195  54.096  1.00  0.00     0.197 A 
HETATM   16  O5  UNL     1      25.282  -0.997  55.039  1.00  0.00    -0.286 OA
ENDROOT
BRANCH   1  17
HETATM   17  O1  UNL     1      22.590   1.917  50.596  1.00  0.00    -0.355 OA
HETATM   18  C1  UNL     1      21.873   1.819  49.383  1.00  0.00     0.210 C 
ENDBRANCH   1  17
BRANCH  10  19
HETATM   19  O3  UNL     1      27.174   3.223  51.240  1.00  0.00    -0.360 OA
HETATM   20  H7  UNL     1      27.546   4.144  51.223  1.00  0.00     0.217 HD
ENDBRANCH  10  19
BRANCH  13  21
HETATM   21  O4  UNL     1      27.599  -0.395  55.430  1.00  0.00    -0.360 OA
HETATM   22  H10 UNL     1      28.325  -1.106  55.423  1.00  0.00     0.217 HD
ENDBRANCH  13  21
TORSDOF 3
ENDMDL
MODEL 4
REMARK VINA RESULT:      -8.2      1.711      4.972
REMARK  3 active torsions:
REMARK  status: ('A' for Active; 'I' for Inactive)
REMARK    1  A    between atoms: O1_2  and  C2_3 
REMARK    2  A    between atoms: C10_12  and  O3_13 
REMARK    3  A    between atoms: C13_16  and  O4_17 
ROOT
HETATM    1  C2  UNL     1      21.965  -0.162  52.571  1.00  0.00     0.083 A 
HETATM    2  C3  UNL     1      21.040   0.214  51.619  1.00  0.00     0.038 A 
HETATM    3  C4  UNL     1      21.375   1.140  50.653  1.00  0.00     0.004 A 
HETATM    4  C5  UNL     1      22.612   1.726  50.579  1.00  0.00     0.017 A 
HETATM    5  C6  UNL     1      23.542   1.353  51.528  1.00  0.00     0.032 A 
HETATM    6  C7  UNL     1      23.222   0.440  52.487  1.00  0.00     0.062 A 
HETATM    7  C8  UNL     1      24.291   0.133  53.429  1.00  0.00     0.200 A 
HETATM    8  O2  UNL     1      24.067  -0.710  54.351  1.00  0.00    -0.286 OA
HETATM    9  C9  UNL     1      25.613   0.732  53.386  1.00  0.00     0.065 A 
HETATM   10  C10 UNL     1      26.571   0.372  54.334  1.00  0.00     0.081 A 
HETATM   11  C11 UNL     1      27.801   0.972  54.240  1.00  0.00     0.040 A 
HETATM   12  C12 UNL     1      28.137   1.908  53.261  1.00  0.00     0.040 A 
HETATM   13  C13 UNL     1      27.152   2.220  52.358  1.00  0.00     0.081 A 
HETATM   14  C14 UNL     1      25.890   1.649  52.397  1.00  0.00     0.065 A 
HETATM   15  C15 UNL     1      24.853   1.996  51.424  1.00  0.00     0.197 A 
HETATM   16  O5  UNL     1      25.130   2.829  50.542  1.00  0.00    -0.286 OA
ENDROOT
BRANCH   1  17
HETATM   17  O1  UNL     1      21.830  -1.064  53.612  1.00  0.00    -0.355 OA
HETATM   18  C1  UNL     1      20.597  -1.499  54.148  1.00  0.00     0.210 C 
ENDBRANCH   1  17
BRANCH  10  19
HETATM   19  O3  UNL     1      26.292  -0.560  55.337  1.00  0.00    -0.360 OA
HETATM   20  H7  UNL     1      26.761  -1.424  55.479  1.00  0.00     0.217 HD
ENDBRANCH  10  19
BRANCH  13  21
HETATM   21  O4  UNL     1      27.397   3.141  51.348  1.00  0.00    -0.360 OA
HETATM   22  H10 UNL     1      27.019   4.081  51.425  1.00  0.00     0.217 HD
ENDBRANCH  13  21
TORSDOF 3
ENDMDL
MODEL 5
REMARK VINA RESULT:      -7.7      2.066      4.539
REMARK  3 active torsions:
REMARK  status: ('A' for Active; 'I' for Inactive)
REMARK    1  A    between atoms: O1_2  and  C2_3 
REMARK    2  A    between atoms: C10_12  and  O3_13 
REMARK    3  A    between atoms: C13_16  and  O4_17 
ROOT
HETATM    1  C2  UNL     1      26.577   0.518  54.217  1.00  0.00     0.083 A 
HETATM    2  C3  UNL     1      26.019  -0.415  55.065  1.00  0.00     0.038 A 
HETATM    3  C4  UNL     1      24.710  -0.816  54.892  1.00  0.00     0.004 A 
HETATM    4  C5  UNL     1      23.907  -0.328  53.894  1.00  0.00     0.017 A 
HETATM    5  C6  UNL     1      24.460   0.606  53.041  1.00  0.00     0.032 A 
HETATM    6  C7  UNL     1      25.751   1.009  53.204  1.00  0.00     0.062 A 
HETATM    7  C8  UNL     1      26.215   1.998  52.239  1.00  0.00     0.200 A 
HETATM    8  O2  UNL     1      27.408   2.422  52.327  1.00  0.00    -0.286 OA
HETATM    9  C9  UNL     1      25.396   2.541  51.169  1.00  0.00     0.065 A 
HETATM   10  C10 UNL     1      25.933   3.486  50.294  1.00  0.00     0.081 A 
HETATM   11  C11 UNL     1      25.110   3.960  49.304  1.00  0.00     0.040 A 
HETATM   12  C12 UNL     1      23.786   3.552  49.131  1.00  0.00     0.040 A 
HETATM   13  C13 UNL     1      23.318   2.621  50.024  1.00  0.00     0.081 A 
HETATM   14  C14 UNL     1      24.097   2.102  51.045  1.00  0.00     0.065 A 
HETATM   15  C15 UNL     1      23.579   1.109  51.987  1.00  0.00     0.197 A 
HETATM   16  O5  UNL     1      22.400   0.730  51.852  1.00  0.00    -0.286 OA
ENDROOT
BRANCH   1  17
HETATM   17  O1  UNL     1      27.856   1.047  54.220  1.00  0.00    -0.355 OA
HETATM   18  C1  UNL     1      29.024   0.333  54.571  1.00  0.00     0.210 C 
ENDBRANCH   1  17
BRANCH  10  19
HETATM   19  O3  UNL     1      27.251   3.932  50.419  1.00  0.00    -0.360 OA
HETATM   20  H7  UNL     1      27.630   4.424  51.194  1.00  0.00     0.217 HD
ENDBRANCH  10  19
BRANCH  13  21
HETATM   21  O4  UNL     1      22.013   2.156  49.928  1.00  0.00    -0.360 OA
HETATM   22  H10 UNL     1      21.764   1.514  49.181  1.00  0.00     0.217 HD
ENDBRANCH  13  21
TORSDOF 3
ENDMDL
MODEL 6
REMARK VINA RESULT:      -7.6      1.997      5.128
REMARK  3 active torsions:
REMARK  status: ('A' for Active; 'I' for Inactive)
REMARK    1  A    between atoms: O1_2  and  C2_3 
REMARK    2  A    between atoms: C10_12  and  O3_13 
REMARK    3  A    between atoms: C13_16  and  O4_17 
ROOT
HETATM    1  C2  UNL     1      22.789   1.635  50.668  1.00  0.00     0.083 A 
HETATM    2  C3  UNL     1      22.638   2.453  49.567  1.00  0.00     0.038 A 
HETATM    3  C4  UNL     1      23.691   3.231  49.132  1.00  0.00     0.004 A 
HETATM    4  C5  UNL     1      24.916   3.240  49.747  1.00  0.00     0.017 A 
HETATM    5  C6  UNL     1      25.073   2.423  50.848  1.00  0.00     0.032 A 
HETATM    6  C7  UNL     1      24.040   1.650  51.287  1.00  0.00     0.062 A 
HETATM    7  C8  UNL     1      24.333   0.834  52.458  1.00  0.00     0.200 A 
HETATM    8  O2  UNL     1      23.419   0.087  52.925  1.00  0.00    -0.286 OA
HETATM    9  C9  UNL     1      25.616   0.815  53.138  1.00  0.00     0.065 A 
HETATM   10  C10 UNL     1      25.799  -0.003  54.254  1.00  0.00     0.081 A 
HETATM   11  C11 UNL     1      27.034   0.023  54.853  1.00  0.00     0.040 A 
HETATM   12  C12 UNL     1      28.097   0.811  54.409  1.00  0.00     0.040 A 
HETATM   13  C13 UNL     1      27.853   1.593  53.308  1.00  0.00     0.081 A 
HETATM   14  C14 UNL     1      26.630   1.613  52.658  1.00  0.00     0.065 A 
HETATM   15  C15 UNL     1      26.390   2.454  51.484  1.00  0.00     0.197 A 
HETATM   16  O5  UNL     1      27.325   3.166  51.071  1.00  0.00    -0.286 OA
ENDROOT
BRANCH   1  17
HETATM   17  O1  UNL     1      21.868   0.786  51.258  1.00  0.00    -0.355 OA
HETATM   18  C1  UNL     1      20.466   0.953  51.203  1.00  0.00     0.210 C 
ENDBRANCH   1  17
BRANCH  10  19
HETATM   19  O3  UNL     1      24.772  -0.814  54.742  1.00  0.00    -0.360 OA
HETATM   20  H7  UNL     1      24.407  -0.801  55.666  1.00  0.00     0.217 HD
ENDBRANCH  10  19
BRANCH  13  21
HETATM   21  O4  UNL     1      28.853   2.410  52.797  1.00  0.00    -0.360 OA
HETATM   22  H10 UNL     1      29.772   2.019  52.611  1.00  0.00     0.217 HD
ENDBRANCH  13  21
TORSDOF 3
ENDMDL
MODEL 7
REMARK VINA RESULT:      -7.6      1.501      4.206
REMARK  3 active torsions:
REMARK  status: ('A' for Active; 'I' for Inactive)
REMARK    1  A    between atoms: O1_2  and  C2_3 
REMARK    2  A    between atoms: C10_12  and  O3_13 
REMARK    3  A    between atoms: C13_16  and  O4_17 
ROOT
HETATM    1  C2  UNL     1      24.045   2.852  50.287  1.00  0.00     0.083 A 
HETATM    2  C3  UNL     1      25.253   3.295  49.788  1.00  0.00     0.038 A 
HETATM    3  C4  UNL     1      26.437   2.851  50.339  1.00  0.00     0.004 A 
HETATM    4  C5  UNL     1      26.486   1.967  51.386  1.00  0.00     0.017 A 
HETATM    5  C6  UNL     1      25.281   1.520  51.889  1.00  0.00     0.032 A 
HETATM    6  C7  UNL     1      24.106   1.952  51.353  1.00  0.00     0.062 A 
HETATM    7  C8  UNL     1      22.906   1.407  51.973  1.00  0.00     0.200 A 
HETATM    8  O2  UNL     1      21.773   1.764  51.527  1.00  0.00    -0.286 OA
HETATM    9  C9  UNL     1      22.916   0.470  53.083  1.00  0.00     0.065 A 
HETATM   10  C10 UNL     1      21.710   0.003  53.610  1.00  0.00     0.081 A 
HETATM   11  C11 UNL     1      21.786  -0.880  54.657  1.00  0.00     0.040 A 
HETATM   12  C12 UNL     1      22.986  -1.328  55.212  1.00  0.00     0.040 A 
HETATM   13  C13 UNL     1      24.135  -0.832  54.650  1.00  0.00     0.081 A 
HETATM   14  C14 UNL     1      24.128   0.061  53.591  1.00  0.00     0.065 A 
HETATM   15  C15 UNL     1      25.366   0.578  53.006  1.00  0.00     0.197 A 
HETATM   16  O5  UNL     1      26.448   0.192  53.486  1.00  0.00    -0.286 OA
ENDROOT
BRANCH   1  17
HETATM   17  O1  UNL     1      22.762   3.173  49.880  1.00  0.00    -0.355 OA
HETATM   18  C1  UNL     1      22.447   4.066  48.832  1.00  0.00     0.210 C 
ENDBRANCH   1  17
BRANCH  10  19
HETATM   19  O3  UNL     1      20.480   0.416  53.094  1.00  0.00    -0.360 OA
HETATM   20  H7  UNL     1      20.226   0.438  52.134  1.00  0.00     0.217 HD
ENDBRANCH  10  19
BRANCH  13  21
HETATM   21  O4  UNL     1      25.375  -1.223  55.138  1.00  0.00    -0.360 OA
HETATM   22  H10 UNL     1      26.111  -0.531  55.248  1.00  0.00     0.217 HD
ENDBRANCH  13  21
TORSDOF 3
ENDMDL
MODEL 8
REMARK VINA RESULT:      -7.3      1.689      4.850
REMARK  3 active torsions:
REMARK  status: ('A' for Active; 'I' for Inactive)
REMARK    1  A    between atoms: O1_2  and  C2_3 
REMARK    2  A    between atoms: C10_12  and  O3_13 
REMARK    3  A    between atoms: C13_16  and  O4_17 
ROOT
HETATM    1  C2  UNL     1      23.689  -0.512  53.888  1.00  0.00     0.083 A 
HETATM    2  C3  UNL     1      22.439  -1.052  54.113  1.00  0.00     0.038 A 
HETATM    3  C4  UNL     1      21.364  -0.655  53.345  1.00  0.00     0.004 A 
HETATM    4  C5  UNL     1      21.467   0.271  52.340  1.00  0.00     0.017 A 
HETATM    5  C6  UNL     1      22.715   0.814  52.109  1.00  0.00     0.032 A 
HETATM    6  C7  UNL     1      23.784   0.430  52.861  1.00  0.00     0.062 A 
HETATM    7  C8  UNL     1      25.044   1.076  52.519  1.00  0.00     0.200 A 
HETATM    8  O2  UNL     1      26.085   0.769  53.177  1.00  0.00    -0.286 OA
HETATM    9  C9  UNL     1      25.195   2.062  51.464  1.00  0.00     0.065 A 
HETATM   10  C10 UNL     1      26.446   2.625  51.212  1.00  0.00     0.081 A 
HETATM   11  C11 UNL     1      26.524   3.550  50.201  1.00  0.00     0.040 A 
HETATM   12  C12 UNL     1      25.434   3.948  49.425  1.00  0.00     0.040 A 
HETATM   13  C13 UNL     1      24.231   3.358  49.723  1.00  0.00     0.081 A 
HETATM   14  C14 UNL     1      24.085   2.418  50.730  1.00  0.00     0.065 A 
HETATM   15  C15 UNL     1      22.793   1.800  51.031  1.00  0.00     0.197 A 
HETATM   16  O5  UNL     1      21.807   2.141  50.352  1.00  0.00    -0.286 OA
ENDROOT
BRANCH   1  17
HETATM   17  O1  UNL     1      24.883  -0.773  54.538  1.00  0.00    -0.355 OA
HETATM   18  C1  UNL     1      25.000  -1.103  55.907  1.00  0.00     0.210 C 
ENDBRANCH   1  17
BRANCH  10  19
HETATM   19  O3  UNL     1      27.572   2.265  51.955  1.00  0.00    -0.360 OA
HETATM   20  H7  UNL     1      28.222   1.549  51.722  1.00  0.00     0.217 HD
ENDBRANCH  10  19
BRANCH  13  21
HETATM   21  O4  UNL     1      23.092   3.693  49.003  1.00  0.00    -0.360 OA
HETATM   22  H10 UNL     1      23.185   4.044  48.054  1.00  0.00     0.217 HD
ENDBRANCH  13  21
TORSDOF 3
ENDMDL
MODEL 9
REMARK VINA RESULT:      -7.0      2.286      4.755
REMARK  3 active torsions:
REMARK  status: ('A' for Active; 'I' for Inactive)
REMARK    1  A    between atoms: O1_2  and  C2_3 
REMARK    2  A    between atoms: C10_12  and  O3_13 
REMARK    3  A    between atoms: C13_16  and  O4_17 
ROOT
HETATM    1  C2  UNL     1      23.743  -0.059  53.719  1.00  0.00     0.083 A 
HETATM    2  C3  UNL     1      23.177  -0.897  54.657  1.00  0.00     0.038 A 
HETATM    3  C4  UNL     1      21.863  -1.298  54.527  1.00  0.00     0.004 A 
HETATM    4  C5  UNL     1      21.062  -0.900  53.488  1.00  0.00     0.017 A 
HETATM    5  C6  UNL     1      21.623  -0.061  52.546  1.00  0.00     0.032 A 
HETATM    6  C7  UNL     1      22.919   0.341  52.665  1.00  0.00     0.062 A 
HETATM    7  C8  UNL     1      23.391   1.224  51.607  1.00  0.00     0.200 A 
HETATM    8  O2  UNL     1      24.590   1.641  51.650  1.00  0.00    -0.286 OA
HETATM    9  C9  UNL     1      22.576   1.670  50.492  1.00  0.00     0.065 A 
HETATM   10  C10 UNL     1      23.120   2.518  49.527  1.00  0.00     0.081 A 
HETATM   11  C11 UNL     1      22.299   2.903  48.497  1.00  0.00     0.040 A 
HETATM   12  C12 UNL     1      20.970   2.495  48.368  1.00  0.00     0.040 A 
HETATM   13  C13 UNL     1      20.494   1.662  49.349  1.00  0.00     0.081 A 
HETATM   14  C14 UNL     1      21.271   1.236  50.414  1.00  0.00     0.065 A 
HETATM   15  C15 UNL     1      20.744   0.347  51.450  1.00  0.00     0.197 A 
HETATM   16  O5  UNL     1      19.561  -0.029  51.355  1.00  0.00    -0.286 OA
ENDROOT
BRANCH   1  17
HETATM   17  O1  UNL     1      25.028   0.452  53.668  1.00  0.00    -0.355 OA
HETATM   18  C1  UNL     1      26.115  -0.017  54.439  1.00  0.00     0.210 C 
ENDBRANCH   1  17
BRANCH  10  19
HETATM   19  O3  UNL     1      24.443   2.957  49.604  1.00  0.00    -0.360 OA
HETATM   20  H7  UNL     1      24.861   3.420  50.377  1.00  0.00     0.217 HD
ENDBRANCH  10  19
BRANCH  13  21
HETATM   21  O4  UNL     1      19.183   1.206  49.302  1.00  0.00    -0.360 OA
HETATM   22  H10 UNL     1      18.706   1.146  48.407  1.00  0.00     0.217 HD
ENDBRANCH  13  21
TORSDOF 3
ENDMDL
