MODEL 1
REMARK VINA RESULT:      -7.7      0.000      0.000
REMARK  4 active torsions:
REMARK  status: ('A' for Active; 'I' for Inactive)
REMARK    1  A    between atoms: C2_2  and  S1_3 
REMARK    2  A    between atoms: S1_3  and  C3_5 
REMARK    3  A    between atoms: C6_8  and  N1_9 
REMARK    4  A    between atoms: N1_9  and  C7_10 
ROOT
HETATM    1  C3  UNL     1      27.394   1.331  53.677  1.00  0.00     0.128 C 
HETATM    2  C4  UNL     1      27.589   1.871  52.486  1.00  0.00     0.045 C 
HETATM    3  C5  UNL     1      26.631   2.512  51.604  1.00  0.00     0.053 C 
HETATM    4  C6  UNL     1      25.345   2.806  51.574  1.00  0.00     0.129 C 
HETATM    5  N2  UNL     1      24.471   2.451  52.665  1.00  0.00    -0.225 NA
HETATM    6  C13 UNL     1      24.594   1.242  53.077  1.00  0.00     0.236 C 
HETATM    7  N3  UNL     1      25.478   0.191  52.605  1.00  0.00    -0.237 NA
HETATM    8  C14 UNL     1      25.714  -0.646  53.541  1.00  0.00     0.120 C 
HETATM    9  C15 UNL     1      25.978  -0.106  54.678  1.00  0.00     0.120 C 
HETATM   10  N4  UNL     1      26.352   1.113  54.628  1.00  0.00    -0.234 NA
ENDROOT
BRANCH   4  11
HETATM   11  N1  UNL     1      24.465   3.435  50.681  1.00  0.00    -0.341 N 
HETATM   12  H6  UNL     1      23.643   2.935  50.249  1.00  0.00     0.167 HD
BRANCH  11  13
HETATM   13  C7  UNL     1      24.771   4.779  50.413  1.00  0.00     0.034 A 
HETATM   14  C8  UNL     1      24.016   5.688  51.120  1.00  0.00     0.029 A 
HETATM   15  C9  UNL     1      24.255   7.050  50.914  1.00  0.00     0.004 A 
HETATM   16  C10 UNL     1      25.211   7.506  50.036  1.00  0.00     0.019 A 
HETATM   17  C11 UNL     1      25.976   6.588  49.321  1.00  0.00     0.013 A 
HETATM   18 BR1  UNL     1      27.318   7.155  48.089  1.00  0.00    -0.051 Br
HETATM   19  C12 UNL     1      25.715   5.275  49.547  1.00  0.00     0.048 A 
ENDBRANCH  11  13
ENDBRANCH   4  11
BRANCH   1  20
HETATM   20  S1  UNL     1      28.772   0.592  54.573  1.00  0.00     0.092 S 
HETATM   21  O1  UNL     1      29.402   1.705  55.385  1.00  0.00    -0.247 OA
BRANCH  20  22
HETATM   22  C2  UNL     1      29.905  -0.197  53.494  1.00  0.00     0.075 C 
HETATM   23  C1  UNL     1      29.365  -1.413  53.447  1.00  0.00     0.021 C 
ENDBRANCH  20  22
ENDBRANCH   1  20
TORSDOF 4
ENDMDL
MODEL 2
REMARK VINA RESULT:      -7.2      1.969      2.722
REMARK  4 active torsions:
REMARK  status: ('A' for Active; 'I' for Inactive)
REMARK    1  A    between atoms: C2_2  and  S1_3 
REMARK    2  A    between atoms: S1_3  and  C3_5 
REMARK    3  A    between atoms: C6_8  and  N1_9 
REMARK    4  A    between atoms: N1_9  and  C7_10 
ROOT
HETATM    1  C3  UNL     1      26.109   1.690  52.552  1.00  0.00     0.128 C 
HETATM    2  C4  UNL     1      26.781   1.854  51.426  1.00  0.00     0.045 C 
HETATM    3  C5  UNL     1      26.579   2.832  50.372  1.00  0.00     0.053 C 
HETATM    4  C6  UNL     1      25.774   3.837  50.088  1.00  0.00     0.129 C 
HETATM    5  N2  UNL     1      24.708   4.219  50.982  1.00  0.00    -0.225 NA
HETATM    6  C13 UNL     1      23.991   3.242  51.406  1.00  0.00     0.236 C 
HETATM    7  N3  UNL     1      24.099   1.824  51.116  1.00  0.00    -0.237 NA
HETATM    8  C14 UNL     1      23.615   1.135  52.077  1.00  0.00     0.120 C 
HETATM    9  C15 UNL     1      23.972   1.536  53.246  1.00  0.00     0.120 C 
HETATM   10  N4  UNL     1      25.020   2.263  53.276  1.00  0.00    -0.234 NA
ENDROOT
BRANCH   4  11
HETATM   11  N1  UNL     1      25.625   4.758  49.040  1.00  0.00    -0.341 N 
HETATM   12  H6  UNL     1      24.738   4.836  48.475  1.00  0.00     0.167 HD
BRANCH  11  13
HETATM   13  C7  UNL     1      26.754   5.562  48.808  1.00  0.00     0.034 A 
HETATM   14  C8  UNL     1      26.536   6.911  48.969  1.00  0.00     0.029 A 
HETATM   15  C9  UNL     1      27.606   7.785  48.758  1.00  0.00     0.004 A 
HETATM   16  C10 UNL     1      28.858   7.343  48.397  1.00  0.00     0.019 A 
HETATM   17  C11 UNL     1      29.080   5.978  48.235  1.00  0.00     0.013 A 
HETATM   18 BR1  UNL     1      30.792   5.300  47.736  1.00  0.00    -0.051 Br
HETATM   19  C12 UNL     1      28.017   5.161  48.448  1.00  0.00     0.048 A 
ENDBRANCH  11  13
ENDBRANCH   4  11
BRANCH   1  20
HETATM   20  S1  UNL     1      26.572   0.382  53.702  1.00  0.00     0.092 S 
HETATM   21  O1  UNL     1      27.391   1.041  54.793  1.00  0.00    -0.247 OA
BRANCH  20  22
HETATM   22  C2  UNL     1      27.422  -0.923  52.899  1.00  0.00     0.075 C 
HETATM   23  C1  UNL     1      28.645  -0.731  53.388  1.00  0.00     0.021 C 
ENDBRANCH  20  22
ENDBRANCH   1  20
TORSDOF 4
ENDMDL
MODEL 3
REMARK VINA RESULT:      -7.0      3.041      3.707
REMARK  4 active torsions:
REMARK  status: ('A' for Active; 'I' for Inactive)
REMARK    1  A    between atoms: C2_2  and  S1_3 
REMARK    2  A    between atoms: S1_3  and  C3_5 
REMARK    3  A    between atoms: C6_8  and  N1_9 
REMARK    4  A    between atoms: N1_9  and  C7_10 
ROOT
HETATM    1  C3  UNL     1      27.235   1.426  53.553  1.00  0.00     0.128 C 
HETATM    2  C4  UNL     1      27.305   1.949  52.341  1.00  0.00     0.045 C 
HETATM    3  C5  UNL     1      26.278   2.635  51.579  1.00  0.00     0.053 C 
HETATM    4  C6  UNL     1      25.015   2.996  51.708  1.00  0.00     0.129 C 
HETATM    5  N2  UNL     1      24.269   2.695  52.906  1.00  0.00    -0.225 NA
HETATM    6  C13 UNL     1      24.381   1.482  53.314  1.00  0.00     0.236 C 
HETATM    7  N3  UNL     1      25.142   0.384  52.746  1.00  0.00    -0.237 NA
HETATM    8  C14 UNL     1      25.451  -0.460  53.654  1.00  0.00     0.120 C 
HETATM    9  C15 UNL     1      25.886   0.071  54.742  1.00  0.00     0.120 C 
HETATM   10  N4  UNL     1      26.313   1.269  54.631  1.00  0.00    -0.234 NA
ENDROOT
BRANCH   4  11
HETATM   11  N1  UNL     1      24.062   3.667  50.927  1.00  0.00    -0.341 N 
HETATM   12  H6  UNL     1      24.046   4.716  50.830  1.00  0.00     0.167 HD
BRANCH  11  13
HETATM   13  C7  UNL     1      23.137   2.824  50.291  1.00  0.00     0.034 A 
HETATM   14  C8  UNL     1      23.329   2.685  48.935  1.00  0.00     0.029 A 
HETATM   15  C9  UNL     1      22.452   1.863  48.222  1.00  0.00     0.004 A 
HETATM   16  C10 UNL     1      21.411   1.196  48.826  1.00  0.00     0.019 A 
HETATM   17  C11 UNL     1      21.215   1.335  50.197  1.00  0.00     0.013 A 
HETATM   18 BR1  UNL     1      19.792   0.437  51.096  1.00  0.00    -0.051 Br
HETATM   19  C12 UNL     1      22.087   2.142  50.856  1.00  0.00     0.048 A 
ENDBRANCH  11  13
ENDBRANCH   4  11
BRANCH   1  20
HETATM   20  S1  UNL     1      28.676   0.620  54.276  1.00  0.00     0.092 S 
HETATM   21  O1  UNL     1      29.450   1.698  55.005  1.00  0.00    -0.247 OA
BRANCH  20  22
HETATM   22  C2  UNL     1      29.632  -0.215  53.068  1.00  0.00     0.075 C 
HETATM   23  C1  UNL     1      29.356  -1.476  53.393  1.00  0.00     0.021 C 
ENDBRANCH  20  22
ENDBRANCH   1  20
TORSDOF 4
ENDMDL
MODEL 4
REMARK VINA RESULT:      -6.7      4.444      7.223
REMARK  4 active torsions:
REMARK  status: ('A' for Active; 'I' for Inactive)
REMARK    1  A    between atoms: C2_2  and  S1_3 
REMARK    2  A    between atoms: S1_3  and  C3_5 
REMARK    3  A    between atoms: C6_8  and  N1_9 
REMARK    4  A    between atoms: N1_9  and  C7_10 
ROOT
HETATM    1  C3  UNL     1      22.040   1.366  50.544  1.00  0.00     0.128 C 
HETATM    2  C4  UNL     1      23.222   1.723  51.017  1.00  0.00     0.045 C 
HETATM    3  C5  UNL     1      23.974   1.159  52.123  1.00  0.00     0.053 C 
HETATM    4  C6  UNL     1      23.857   0.199  53.020  1.00  0.00     0.129 C 
HETATM    5  N2  UNL     1      22.687  -0.645  53.066  1.00  0.00    -0.225 NA
HETATM    6  C13 UNL     1      21.570  -0.013  53.011  1.00  0.00     0.236 C 
HETATM    7  N3  UNL     1      21.321   1.413  52.910  1.00  0.00    -0.237 NA
HETATM    8  C14 UNL     1      20.193   1.630  52.352  1.00  0.00     0.120 C 
HETATM    9  C15 UNL     1      19.973   0.909  51.310  1.00  0.00     0.120 C 
HETATM   10  N4  UNL     1      21.011   0.403  50.769  1.00  0.00    -0.234 NA
ENDROOT
BRANCH   4  11
HETATM   11  N1  UNL     1      24.627  -0.306  54.079  1.00  0.00    -0.341 N 
HETATM   12  H6  UNL     1      24.198  -0.644  54.981  1.00  0.00     0.167 HD
BRANCH  11  13
HETATM   13  C7  UNL     1      26.010  -0.322  53.834  1.00  0.00     0.034 A 
HETATM   14  C8  UNL     1      26.456  -1.429  53.149  1.00  0.00     0.029 A 
HETATM   15  C9  UNL     1      27.821  -1.526  52.863  1.00  0.00     0.004 A 
HETATM   16  C10 UNL     1      28.724  -0.560  53.243  1.00  0.00     0.019 A 
HETATM   17  C11 UNL     1      28.274   0.561  53.936  1.00  0.00     0.013 A 
HETATM   18 BR1  UNL     1      29.474   1.936  54.490  1.00  0.00    -0.051 Br
HETATM   19  C12 UNL     1      26.943   0.619  54.195  1.00  0.00     0.048 A 
ENDBRANCH  11  13
ENDBRANCH   4  11
BRANCH   1  20
HETATM   20  S1  UNL     1      21.322   2.244  49.143  1.00  0.00     0.092 S 
HETATM   21  O1  UNL     1      21.923   1.626  47.897  1.00  0.00    -0.247 OA
BRANCH  20  22
HETATM   22  C2  UNL     1      21.589   3.973  49.249  1.00  0.00     0.075 C 
HETATM   23  C1  UNL     1      22.360   4.149  48.178  1.00  0.00     0.021 C 
ENDBRANCH  20  22
ENDBRANCH   1  20
TORSDOF 4
ENDMDL
MODEL 5
REMARK VINA RESULT:      -6.7      4.400      6.995
REMARK  4 active torsions:
REMARK  status: ('A' for Active; 'I' for Inactive)
REMARK    1  A    between atoms: C2_2  and  S1_3 
REMARK    2  A    between atoms: S1_3  and  C3_5 
REMARK    3  A    between atoms: C6_8  and  N1_9 
REMARK    4  A    between atoms: N1_9  and  C7_10 
ROOT
HETATM    1  C3  UNL     1      21.969   2.858  51.168  1.00  0.00     0.128 C 
HETATM    2  C4  UNL     1      22.829   2.053  51.768  1.00  0.00     0.045 C 
HETATM    3  C5  UNL     1      24.273   2.165  51.868  1.00  0.00     0.053 C 
HETATM    4  C6  UNL     1      25.239   2.974  51.476  1.00  0.00     0.129 C 
HETATM    5  N2  UNL     1      24.956   4.156  50.698  1.00  0.00    -0.225 NA
HETATM    6  C13 UNL     1      24.169   3.964  49.702  1.00  0.00     0.236 C 
HETATM    7  N3  UNL     1      23.531   2.740  49.253  1.00  0.00    -0.237 NA
HETATM    8  C14 UNL     1      22.454   3.006  48.619  1.00  0.00     0.120 C 
HETATM    9  C15 UNL     1      21.715   3.894  49.185  1.00  0.00     0.120 C 
HETATM   10  N4  UNL     1      21.939   4.078  50.427  1.00  0.00    -0.234 NA
ENDROOT
BRANCH   4  11
HETATM   11  N1  UNL     1      26.635   3.031  51.605  1.00  0.00    -0.341 N 
HETATM   12  H6  UNL     1      27.208   3.823  51.210  1.00  0.00     0.167 HD
BRANCH  11  13
HETATM   13  C7  UNL     1      27.198   1.948  52.299  1.00  0.00     0.034 A 
HETATM   14  C8  UNL     1      28.106   2.303  53.270  1.00  0.00     0.029 A 
HETATM   15  C9  UNL     1      28.717   1.286  54.010  1.00  0.00     0.004 A 
HETATM   16  C10 UNL     1      28.442  -0.045  53.799  1.00  0.00     0.019 A 
HETATM   17  C11 UNL     1      27.524  -0.406  52.817  1.00  0.00     0.013 A 
HETATM   18 BR1  UNL     1      27.099  -2.234  52.475  1.00  0.00    -0.051 Br
HETATM   19  C12 UNL     1      26.952   0.609  52.119  1.00  0.00     0.048 A 
ENDBRANCH  11  13
ENDBRANCH   4  11
BRANCH   1  20
HETATM   20  S1  UNL     1      20.207   2.484  51.194  1.00  0.00     0.092 S 
HETATM   21  O1  UNL     1      19.689   2.954  52.537  1.00  0.00    -0.247 OA
BRANCH  20  22
HETATM   22  C2  UNL     1      19.895   0.785  50.894  1.00  0.00     0.075 C 
HETATM   23  C1  UNL     1      19.523   0.405  52.114  1.00  0.00     0.021 C 
ENDBRANCH  20  22
ENDBRANCH   1  20
TORSDOF 4
ENDMDL
MODEL 6
REMARK VINA RESULT:      -6.6      4.880      7.421
REMARK  4 active torsions:
REMARK  status: ('A' for Active; 'I' for Inactive)
REMARK    1  A    between atoms: C2_2  and  S1_3 
REMARK    2  A    between atoms: S1_3  and  C3_5 
REMARK    3  A    between atoms: C6_8  and  N1_9 
REMARK    4  A    between atoms: N1_9  and  C7_10 
ROOT
HETATM    1  C3  UNL     1      22.796   4.319  49.735  1.00  0.00     0.128 C 
HETATM    2  C4  UNL     1      23.117   3.063  49.477  1.00  0.00     0.045 C 
HETATM    3  C5  UNL     1      22.553   1.843  50.024  1.00  0.00     0.053 C 
HETATM    4  C6  UNL     1      21.622   1.473  50.883  1.00  0.00     0.129 C 
HETATM    5  N2  UNL     1      20.828   2.448  51.591  1.00  0.00    -0.225 NA
HETATM    6  C13 UNL     1      21.502   3.403  52.121  1.00  0.00     0.236 C 
HETATM    7  N3  UNL     1      22.934   3.639  52.109  1.00  0.00    -0.237 NA
HETATM    8  C14 UNL     1      23.181   4.885  52.241  1.00  0.00     0.120 C 
HETATM    9  C15 UNL     1      22.442   5.649  51.517  1.00  0.00     0.120 C 
HETATM   10  N4  UNL     1      21.881   5.080  50.522  1.00  0.00    -0.234 NA
ENDROOT
BRANCH   4  11
HETATM   11  N1  UNL     1      21.115   0.262  51.377  1.00  0.00    -0.341 N 
HETATM   12  H6  UNL     1      20.336  -0.263  50.899  1.00  0.00     0.167 HD
BRANCH  11  13
HETATM   13  C7  UNL     1      21.731  -0.187  52.557  1.00  0.00     0.034 A 
HETATM   14  C8  UNL     1      20.862  -0.693  53.497  1.00  0.00     0.029 A 
HETATM   15  C9  UNL     1      21.390  -1.161  54.703  1.00  0.00     0.004 A 
HETATM   16  C10 UNL     1      22.738  -1.132  54.978  1.00  0.00     0.019 A 
HETATM   17  C11 UNL     1      23.618  -0.622  54.028  1.00  0.00     0.013 A 
HETATM   18 BR1  UNL     1      25.498  -0.554  54.347  1.00  0.00    -0.051 Br
HETATM   19  C12 UNL     1      23.068  -0.175  52.870  1.00  0.00     0.048 A 
ENDBRANCH  11  13
ENDBRANCH   4  11
BRANCH   1  20
HETATM   20  S1  UNL     1      23.665   5.665  48.908  1.00  0.00     0.092 S 
HETATM   21  O1  UNL     1      23.157   5.689  47.481  1.00  0.00    -0.247 OA
BRANCH  20  22
HETATM   22  C2  UNL     1      25.404   5.482  49.015  1.00  0.00     0.075 C 
HETATM   23  C1  UNL     1      25.693   6.517  49.800  1.00  0.00     0.021 C 
ENDBRANCH  20  22
ENDBRANCH   1  20
TORSDOF 4
ENDMDL
MODEL 7
REMARK VINA RESULT:      -6.5      3.007      3.735
REMARK  4 active torsions:
REMARK  status: ('A' for Active; 'I' for Inactive)
REMARK    1  A    between atoms: C2_2  and  S1_3 
REMARK    2  A    between atoms: S1_3  and  C3_5 
REMARK    3  A    between atoms: C6_8  and  N1_9 
REMARK    4  A    between atoms: N1_9  and  C7_10 
ROOT
HETATM    1  C3  UNL     1      23.302   1.244  53.083  1.00  0.00     0.128 C 
HETATM    2  C4  UNL     1      24.188   2.212  52.930  1.00  0.00     0.045 C 
HETATM    3  C5  UNL     1      23.972   3.604  52.578  1.00  0.00     0.053 C 
HETATM    4  C6  UNL     1      22.972   4.416  52.293  1.00  0.00     0.129 C 
HETATM    5  N2  UNL     1      21.608   3.946  52.274  1.00  0.00    -0.225 NA
HETATM    6  C13 UNL     1      21.429   2.851  51.627  1.00  0.00     0.236 C 
HETATM    7  N3  UNL     1      22.394   2.029  50.920  1.00  0.00    -0.237 NA
HETATM    8  C14 UNL     1      21.998   0.816  50.876  1.00  0.00     0.120 C 
HETATM    9  C15 UNL     1      21.536   0.371  51.991  1.00  0.00     0.120 C 
HETATM   10  N4  UNL     1      21.892   1.024  53.028  1.00  0.00    -0.234 NA
ENDROOT
BRANCH   4  11
HETATM   11  N1  UNL     1      22.824   5.770  51.956  1.00  0.00    -0.341 N 
HETATM   12  H6  UNL     1      22.146   6.406  52.453  1.00  0.00     0.167 HD
BRANCH  11  13
HETATM   13  C7  UNL     1      23.650   6.201  50.905  1.00  0.00     0.034 A 
HETATM   14  C8  UNL     1      23.405   5.586  49.698  1.00  0.00     0.029 A 
HETATM   15  C9  UNL     1      24.182   5.955  48.597  1.00  0.00     0.004 A 
HETATM   16  C10 UNL     1      25.176   6.903  48.680  1.00  0.00     0.019 A 
HETATM   17  C11 UNL     1      25.425   7.525  49.900  1.00  0.00     0.013 A 
HETATM   18 BR1  UNL     1      26.788   8.848  50.083  1.00  0.00    -0.051 Br
HETATM   19  C12 UNL     1      24.650   7.141  50.947  1.00  0.00     0.048 A 
ENDBRANCH  11  13
ENDBRANCH   4  11
BRANCH   1  20
HETATM   20  S1  UNL     1      23.842  -0.417  53.528  1.00  0.00     0.092 S 
HETATM   21  O1  UNL     1      22.920  -0.885  54.635  1.00  0.00    -0.247 OA
BRANCH  20  22
HETATM   22  C2  UNL     1      25.534  -0.453  53.982  1.00  0.00     0.075 C 
HETATM   23  C1  UNL     1      26.065  -0.889  52.841  1.00  0.00     0.021 C 
ENDBRANCH  20  22
ENDBRANCH   1  20
TORSDOF 4
ENDMDL
MODEL 8
REMARK VINA RESULT:      -6.5      7.537     10.038
REMARK  4 active torsions:
REMARK  status: ('A' for Active; 'I' for Inactive)
REMARK    1  A    between atoms: C2_2  and  S1_3 
REMARK    2  A    between atoms: S1_3  and  C3_5 
REMARK    3  A    between atoms: C6_8  and  N1_9 
REMARK    4  A    between atoms: N1_9  and  C7_10 
ROOT
HETATM    1  C3  UNL     1      29.491   7.850  48.578  1.00  0.00     0.128 C 
HETATM    2  C4  UNL     1      29.415   6.612  48.120  1.00  0.00     0.045 C 
HETATM    3  C5  UNL     1      30.420   5.565  48.141  1.00  0.00     0.053 C 
HETATM    4  C6  UNL     1      31.661   5.383  48.551  1.00  0.00     0.129 C 
HETATM    5  N2  UNL     1      32.401   6.443  49.192  1.00  0.00    -0.225 NA
HETATM    6  C13 UNL     1      32.342   7.575  48.589  1.00  0.00     0.236 C 
HETATM    7  N3  UNL     1      31.646   7.936  47.367  1.00  0.00    -0.237 NA
HETATM    8  C14 UNL     1      31.363   9.181  47.366  1.00  0.00     0.120 C 
HETATM    9  C15 UNL     1      30.885   9.615  48.479  1.00  0.00     0.120 C 
HETATM   10  N4  UNL     1      30.402   8.720  49.249  1.00  0.00    -0.234 NA
ENDROOT
BRANCH   4  11
HETATM   11  N1  UNL     1      32.593   4.334  48.543  1.00  0.00    -0.341 N 
HETATM   12  H6  UNL     1      32.719   3.683  49.363  1.00  0.00     0.167 HD
BRANCH  11  13
HETATM   13  C7  UNL     1      33.339   4.229  47.358  1.00  0.00     0.034 A 
HETATM   14  C8  UNL     1      34.560   3.609  47.505  1.00  0.00     0.029 A 
HETATM   15  C9  UNL     1      35.369   3.463  46.375  1.00  0.00     0.004 A 
HETATM   16  C10 UNL     1      34.988   3.915  45.132  1.00  0.00     0.019 A 
HETATM   17  C11 UNL     1      33.755   4.541  44.982  1.00  0.00     0.013 A 
HETATM   18 BR1  UNL     1      33.168   5.191  43.287  1.00  0.00    -0.051 Br
HETATM   19  C12 UNL     1      32.997   4.666  46.102  1.00  0.00     0.048 A 
ENDBRANCH  11  13
ENDBRANCH   4  11
BRANCH   1  20
HETATM   20  S1  UNL     1      28.080   8.961  48.424  1.00  0.00     0.092 S 
HETATM   21  O1  UNL     1      27.249   8.775  49.677  1.00  0.00    -0.247 OA
BRANCH  20  22
HETATM   22  C2  UNL     1      27.176   8.667  46.951  1.00  0.00     0.075 C 
HETATM   23  C1  UNL     1      26.082   8.108  47.465  1.00  0.00     0.021 C 
ENDBRANCH  20  22
ENDBRANCH   1  20
TORSDOF 4
ENDMDL
MODEL 9
REMARK VINA RESULT:      -6.5      4.103      4.889
REMARK  4 active torsions:
REMARK  status: ('A' for Active; 'I' for Inactive)
REMARK    1  A    between atoms: C2_2  and  S1_3 
REMARK    2  A    between atoms: S1_3  and  C3_5 
REMARK    3  A    between atoms: C6_8  and  N1_9 
REMARK    4  A    between atoms: N1_9  and  C7_10 
ROOT
HETATM    1  C3  UNL     1      21.991   1.723  52.362  1.00  0.00     0.128 C 
HETATM    2  C4  UNL     1      23.170   2.200  52.722  1.00  0.00     0.045 C 
HETATM    3  C5  UNL     1      23.822   3.433  52.319  1.00  0.00     0.053 C 
HETATM    4  C6  UNL     1      23.591   4.474  51.542  1.00  0.00     0.129 C 
HETATM    5  N2  UNL     1      22.370   4.584  50.781  1.00  0.00    -0.225 NA
HETATM    6  C13 UNL     1      22.047   3.523  50.133  1.00  0.00     0.236 C 
HETATM    7  N3  UNL     1      22.729   2.244  50.059  1.00  0.00    -0.237 NA
HETATM    8  C14 UNL     1      21.897   1.311  49.798  1.00  0.00     0.120 C 
HETATM    9  C15 UNL     1      20.807   1.370  50.479  1.00  0.00     0.120 C 
HETATM   10  N4  UNL     1      20.870   2.065  51.548  1.00  0.00    -0.234 NA
ENDROOT
BRANCH   4  11
HETATM   11  N1  UNL     1      24.268   5.651  51.188  1.00  0.00    -0.341 N 
HETATM   12  H6  UNL     1      23.987   6.598  51.556  1.00  0.00     0.167 HD
BRANCH  11  13
HETATM   13  C7  UNL     1      25.343   5.459  50.306  1.00  0.00     0.034 A 
HETATM   14  C8  UNL     1      25.786   4.159  50.220  1.00  0.00     0.029 A 
HETATM   15  C9  UNL     1      26.855   3.878  49.364  1.00  0.00     0.004 A 
HETATM   16  C10 UNL     1      27.473   4.851  48.613  1.00  0.00     0.019 A 
HETATM   17  C11 UNL     1      27.026   6.166  48.698  1.00  0.00     0.013 A 
HETATM   18 BR1  UNL     1      27.839   7.562  47.682  1.00  0.00    -0.051 Br
HETATM   19  C12 UNL     1      25.986   6.400  49.539  1.00  0.00     0.048 A 
ENDBRANCH  11  13
ENDBRANCH   4  11
BRANCH   1  20
HETATM   20  S1  UNL     1      21.412   0.148  53.018  1.00  0.00     0.092 S 
HETATM   21  O1  UNL     1      20.493   0.478  54.176  1.00  0.00    -0.247 OA
BRANCH  20  22
HETATM   22  C2  UNL     1      22.742  -0.899  53.473  1.00  0.00     0.075 C 
HETATM   23  C1  UNL     1      22.483  -1.042  54.771  1.00  0.00     0.021 C 
ENDBRANCH  20  22
ENDBRANCH   1  20
TORSDOF 4
ENDMDL
