MODEL 1
REMARK VINA RESULT:      -8.0      0.000      0.000
REMARK  5 active torsions:
REMARK  status: ('A' for Active; 'I' for Inactive)
REMARK    1  A    between atoms: C6_6  and  N1_7 
REMARK    2  A    between atoms: N1_7  and  C7_8 
REMARK    3  A    between atoms: C8_9  and  C9_10 
REMARK    4  A    between atoms: C10_11  and  C11_13 
REMARK    5  A    between atoms: C16_21  and  O1_22 
ROOT
HETATM    1  C1  UNL     1      19.086   1.722  50.053  1.00  0.00     0.018 C 
HETATM    2  C2  UNL     1      19.615   1.106  50.968  1.00  0.00    -0.075 C 
HETATM    3  C3  UNL     1      20.214   0.387  52.045  1.00  0.00     0.051 A 
HETATM    4  C4  UNL     1      21.564   0.502  52.282  1.00  0.00     0.041 A 
HETATM    5  C5  UNL     1      22.108  -0.201  53.325  1.00  0.00     0.040 A 
HETATM    6  C6  UNL     1      23.451  -0.070  53.541  1.00  0.00     0.141 A 
HETATM    7  N2  UNL     1      23.981  -0.762  54.564  1.00  0.00    -0.224 NA
HETATM    8  C13 UNL     1      23.252  -1.557  55.362  1.00  0.00     0.236 A 
HETATM    9  N3  UNL     1      21.916  -1.669  55.125  1.00  0.00    -0.241 NA
HETATM   10  C14 UNL     1      21.321  -1.015  54.130  1.00  0.00     0.075 A 
HETATM   11  C15 UNL     1      19.972  -1.106  53.862  1.00  0.00     0.071 A 
HETATM   12  C16 UNL     1      19.391  -0.412  52.821  1.00  0.00     0.089 A 
ENDROOT
BRANCH  12  13
HETATM   13  O1  UNL     1      18.036  -0.486  52.531  1.00  0.00    -0.354 OA
HETATM   14  C17 UNL     1      17.303  -1.549  53.098  1.00  0.00     0.210 C 
ENDBRANCH  12  13
BRANCH   6  15
HETATM   15  N1  UNL     1      24.351   0.722  52.795  1.00  0.00    -0.350 N 
HETATM   16  H3  UNL     1      24.339   0.954  51.778  1.00  0.00     0.166 HD
BRANCH  15  17
HETATM   17  C7  UNL     1      25.489   1.372  53.344  1.00  0.00     0.090 C 
HETATM   18  C8  UNL     1      26.651   1.545  52.736  1.00  0.00     0.020 C 
BRANCH  18  19
HETATM   19  C9  UNL     1      27.720   2.238  53.447  1.00  0.00     0.045 C 
HETATM   20  C10 UNL     1      28.788   1.564  53.841  1.00  0.00     0.134 C 
HETATM   21  F1  UNL     1      29.824   2.127  54.506  1.00  0.00    -0.205 F 
BRANCH  20  22
HETATM   22  C11 UNL     1      28.987   0.137  53.616  1.00  0.00     0.047 A 
HETATM   23  C12 UNL     1      30.090  -0.590  53.771  1.00  0.00     0.156 A 
HETATM   24 CL1  UNL     1      28.734  -1.540  53.218  1.00  0.00    -0.178 Cl
ENDBRANCH  20  22
ENDBRANCH  18  19
ENDBRANCH  15  17
ENDBRANCH   6  15
TORSDOF 5
ENDMDL
MODEL 2
REMARK VINA RESULT:      -7.9      2.501      4.112
REMARK  5 active torsions:
REMARK  status: ('A' for Active; 'I' for Inactive)
REMARK    1  A    between atoms: C6_6  and  N1_7 
REMARK    2  A    between atoms: N1_7  and  C7_8 
REMARK    3  A    between atoms: C8_9  and  C9_10 
REMARK    4  A    between atoms: C10_11  and  C11_13 
REMARK    5  A    between atoms: C16_21  and  O1_22 
ROOT
HETATM    1  C1  UNL     1      21.896  -0.659  54.844  1.00  0.00     0.018 C 
HETATM    2  C2  UNL     1      22.205  -0.007  53.857  1.00  0.00    -0.075 C 
HETATM    3  C3  UNL     1      22.554   0.742  52.693  1.00  0.00     0.051 A 
HETATM    4  C4  UNL     1      23.741   1.437  52.652  1.00  0.00     0.041 A 
HETATM    5  C5  UNL     1      24.046   2.146  51.520  1.00  0.00     0.040 A 
HETATM    6  C6  UNL     1      25.230   2.828  51.503  1.00  0.00     0.141 A 
HETATM    7  N2  UNL     1      25.526   3.521  50.391  1.00  0.00    -0.224 NA
HETATM    8  C13 UNL     1      24.716   3.565  49.322  1.00  0.00     0.236 A 
HETATM    9  N3  UNL     1      23.544   2.877  49.365  1.00  0.00    -0.241 NA
HETATM   10  C14 UNL     1      23.183   2.168  50.432  1.00  0.00     0.075 A 
HETATM   11  C15 UNL     1      22.002   1.459  50.509  1.00  0.00     0.071 A 
HETATM   12  C16 UNL     1      21.663   0.735  51.633  1.00  0.00     0.089 A 
ENDROOT
BRANCH  12  13
HETATM   13  O1  UNL     1      20.481   0.014  51.735  1.00  0.00    -0.354 OA
HETATM   14  C17 UNL     1      19.333   0.549  51.114  1.00  0.00     0.210 C 
ENDBRANCH  12  13
BRANCH   6  15
HETATM   15  N1  UNL     1      26.185   2.881  52.542  1.00  0.00    -0.350 N 
HETATM   16  H3  UNL     1      26.212   3.498  53.383  1.00  0.00     0.166 HD
BRANCH  15  17
HETATM   17  C7  UNL     1      27.337   2.052  52.613  1.00  0.00     0.090 C 
HETATM   18  C8  UNL     1      27.941   1.657  53.722  1.00  0.00     0.020 C 
BRANCH  18  19
HETATM   19  C9  UNL     1      29.118   0.803  53.615  1.00  0.00     0.045 C 
HETATM   20  C10 UNL     1      28.975  -0.474  53.300  1.00  0.00     0.134 C 
HETATM   21  F1  UNL     1      30.012  -1.336  53.180  1.00  0.00    -0.205 F 
BRANCH  20  22
HETATM   22  C11 UNL     1      27.691  -1.116  53.044  1.00  0.00     0.047 A 
HETATM   23  C12 UNL     1      27.439  -2.368  52.673  1.00  0.00     0.156 A 
HETATM   24 CL1  UNL     1      25.986  -1.421  52.858  1.00  0.00    -0.178 Cl
ENDBRANCH  20  22
ENDBRANCH  18  19
ENDBRANCH  15  17
ENDBRANCH   6  15
TORSDOF 5
ENDMDL
MODEL 3
REMARK VINA RESULT:      -7.7      4.003      6.811
REMARK  5 active torsions:
REMARK  status: ('A' for Active; 'I' for Inactive)
REMARK    1  A    between atoms: C6_6  and  N1_7 
REMARK    2  A    between atoms: N1_7  and  C7_8 
REMARK    3  A    between atoms: C8_9  and  C9_10 
REMARK    4  A    between atoms: C10_11  and  C11_13 
REMARK    5  A    between atoms: C16_21  and  O1_22 
ROOT
HETATM    1  C1  UNL     1      26.514   2.842  49.824  1.00  0.00     0.018 C 
HETATM    2  C2  UNL     1      26.333   2.229  50.866  1.00  0.00    -0.075 C 
HETATM    3  C3  UNL     1      26.142   1.512  52.086  1.00  0.00     0.051 A 
HETATM    4  C4  UNL     1      24.999   0.771  52.276  1.00  0.00     0.041 A 
HETATM    5  C5  UNL     1      24.847   0.094  53.457  1.00  0.00     0.040 A 
HETATM    6  C6  UNL     1      23.703  -0.636  53.623  1.00  0.00     0.141 A 
HETATM    7  N2  UNL     1      23.558  -1.298  54.783  1.00  0.00    -0.224 NA
HETATM    8  C13 UNL     1      24.476  -1.268  55.761  1.00  0.00     0.236 A 
HETATM    9  N3  UNL     1      25.606  -0.534  55.569  1.00  0.00    -0.241 NA
HETATM   10  C14 UNL     1      25.820   0.149  54.447  1.00  0.00     0.075 A 
HETATM   11  C15 UNL     1      26.953   0.902  54.220  1.00  0.00     0.071 A 
HETATM   12  C16 UNL     1      27.139   1.596  53.043  1.00  0.00     0.089 A 
ENDROOT
BRANCH  12  13
HETATM   13  O1  UNL     1      28.270   2.360  52.791  1.00  0.00    -0.354 OA
HETATM   14  C17 UNL     1      29.220   2.482  53.826  1.00  0.00     0.210 C 
ENDBRANCH  12  13
BRANCH   6  15
HETATM   15  N1  UNL     1      22.647  -0.768  52.695  1.00  0.00    -0.350 N 
HETATM   16  H3  UNL     1      22.371  -1.594  52.122  1.00  0.00     0.166 HD
BRANCH  15  17
HETATM   17  C7  UNL     1      21.732   0.270  52.373  1.00  0.00     0.090 C 
HETATM   18  C8  UNL     1      21.288   1.198  53.204  1.00  0.00     0.020 C 
BRANCH  18  19
HETATM   19  C9  UNL     1      20.346   2.195  52.707  1.00  0.00     0.045 C 
HETATM   20  C10 UNL     1      20.792   3.375  52.309  1.00  0.00     0.134 C 
HETATM   21  F1  UNL     1      19.988   4.357  51.835  1.00  0.00    -0.205 F 
BRANCH  20  22
HETATM   22  C11 UNL     1      22.194   3.773  52.330  1.00  0.00     0.047 A 
HETATM   23  C12 UNL     1      23.010   4.025  51.310  1.00  0.00     0.156 A 
HETATM   24 CL1  UNL     1      23.795   4.215  52.857  1.00  0.00    -0.178 Cl
ENDBRANCH  20  22
ENDBRANCH  18  19
ENDBRANCH  15  17
ENDBRANCH   6  15
TORSDOF 5
ENDMDL
MODEL 4
REMARK VINA RESULT:      -7.5      4.176      7.431
REMARK  5 active torsions:
REMARK  status: ('A' for Active; 'I' for Inactive)
REMARK    1  A    between atoms: C6_6  and  N1_7 
REMARK    2  A    between atoms: N1_7  and  C7_8 
REMARK    3  A    between atoms: C8_9  and  C9_10 
REMARK    4  A    between atoms: C10_11  and  C11_13 
REMARK    5  A    between atoms: C16_21  and  O1_22 
ROOT
HETATM    1  C1  UNL     1      24.580  -1.271  55.600  1.00  0.00     0.018 C 
HETATM    2  C2  UNL     1      24.976  -0.539  54.704  1.00  0.00    -0.075 C 
HETATM    3  C3  UNL     1      25.458   0.311  53.663  1.00  0.00     0.051 A 
HETATM    4  C4  UNL     1      24.667   1.331  53.187  1.00  0.00     0.041 A 
HETATM    5  C5  UNL     1      25.159   2.129  52.188  1.00  0.00     0.040 A 
HETATM    6  C6  UNL     1      24.355   3.136  51.732  1.00  0.00     0.141 A 
HETATM    7  N2  UNL     1      24.841   3.916  50.752  1.00  0.00    -0.224 NA
HETATM    8  C13 UNL     1      26.061   3.744  50.220  1.00  0.00     0.236 A 
HETATM    9  N3  UNL     1      26.841   2.734  50.693  1.00  0.00    -0.241 NA
HETATM   10  C14 UNL     1      26.427   1.920  51.661  1.00  0.00     0.075 A 
HETATM   11  C15 UNL     1      27.191   0.888  52.164  1.00  0.00     0.071 A 
HETATM   12  C16 UNL     1      26.728   0.065  53.170  1.00  0.00     0.089 A 
ENDROOT
BRANCH  12  13
HETATM   13  O1  UNL     1      27.477  -0.980  53.692  1.00  0.00    -0.354 OA
HETATM   14  C17 UNL     1      28.880  -0.836  53.703  1.00  0.00     0.210 C 
ENDBRANCH  12  13
BRANCH   6  15
HETATM   15  N1  UNL     1      23.054   3.445  52.185  1.00  0.00    -0.350 N 
HETATM   16  H3  UNL     1      22.737   4.228  52.796  1.00  0.00     0.166 HD
BRANCH  15  17
HETATM   17  C7  UNL     1      21.894   2.691  51.861  1.00  0.00     0.090 C 
HETATM   18  C8  UNL     1      21.879   1.509  51.267  1.00  0.00     0.020 C 
BRANCH  18  19
HETATM   19  C9  UNL     1      20.595   0.870  51.006  1.00  0.00     0.045 C 
HETATM   20  C10 UNL     1      20.032   0.123  51.943  1.00  0.00     0.134 C 
HETATM   21  F1  UNL     1      18.843  -0.506  51.784  1.00  0.00    -0.205 F 
BRANCH  20  22
HETATM   22  C11 UNL     1      20.614  -0.121  53.257  1.00  0.00     0.047 A 
HETATM   23  C12 UNL     1      21.127  -1.244  53.752  1.00  0.00     0.156 A 
HETATM   24 CL1  UNL     1      21.191   0.078  54.889  1.00  0.00    -0.178 Cl
ENDBRANCH  20  22
ENDBRANCH  18  19
ENDBRANCH  15  17
ENDBRANCH   6  15
TORSDOF 5
ENDMDL
MODEL 5
REMARK VINA RESULT:      -7.5      4.458      6.426
REMARK  5 active torsions:
REMARK  status: ('A' for Active; 'I' for Inactive)
REMARK    1  A    between atoms: C6_6  and  N1_7 
REMARK    2  A    between atoms: N1_7  and  C7_8 
REMARK    3  A    between atoms: C8_9  and  C9_10 
REMARK    4  A    between atoms: C10_11  and  C11_13 
REMARK    5  A    between atoms: C16_21  and  O1_22 
ROOT
HETATM    1  C1  UNL     1      28.388   2.471  53.681  1.00  0.00     0.018 C 
HETATM    2  C2  UNL     1      27.226   2.165  53.458  1.00  0.00    -0.075 C 
HETATM    3  C3  UNL     1      25.875   1.790  53.190  1.00  0.00     0.051 A 
HETATM    4  C4  UNL     1      24.932   2.756  52.923  1.00  0.00     0.041 A 
HETATM    5  C5  UNL     1      23.645   2.362  52.670  1.00  0.00     0.040 A 
HETATM    6  C6  UNL     1      22.727   3.339  52.406  1.00  0.00     0.141 A 
HETATM    7  N2  UNL     1      21.465   2.949  52.159  1.00  0.00    -0.224 NA
HETATM    8  C13 UNL     1      21.086   1.662  52.162  1.00  0.00     0.236 A 
HETATM    9  N3  UNL     1      22.020   0.709  52.427  1.00  0.00    -0.241 NA
HETATM   10  C14 UNL     1      23.289   1.019  52.682  1.00  0.00     0.075 A 
HETATM   11  C15 UNL     1      24.261   0.079  52.954  1.00  0.00     0.071 A 
HETATM   12  C16 UNL     1      25.567   0.440  53.213  1.00  0.00     0.089 A 
ENDROOT
BRANCH  12  13
HETATM   13  O1  UNL     1      26.562  -0.487  53.489  1.00  0.00    -0.354 OA
HETATM   14  C17 UNL     1      26.666  -1.608  52.640  1.00  0.00     0.210 C 
ENDBRANCH  12  13
BRANCH   6  15
HETATM   15  N1  UNL     1      22.966   4.730  52.366  1.00  0.00    -0.350 N 
HETATM   16  H3  UNL     1      22.909   5.433  53.135  1.00  0.00     0.166 HD
BRANCH  15  17
HETATM   17  C7  UNL     1      23.347   5.443  51.197  1.00  0.00     0.090 C 
HETATM   18  C8  UNL     1      24.440   6.175  51.057  1.00  0.00     0.020 C 
BRANCH  18  19
HETATM   19  C9  UNL     1      24.681   6.843  49.784  1.00  0.00     0.045 C 
HETATM   20  C10 UNL     1      25.508   6.301  48.905  1.00  0.00     0.134 C 
HETATM   21  F1  UNL     1      25.788   6.854  47.701  1.00  0.00    -0.205 F 
BRANCH  20  22
HETATM   22  C11 UNL     1      26.225   5.049  49.117  1.00  0.00     0.047 A 
HETATM   23  C12 UNL     1      27.459   4.716  48.750  1.00  0.00     0.156 A 
HETATM   24 CL1  UNL     1      26.642   3.426  49.595  1.00  0.00    -0.178 Cl
ENDBRANCH  20  22
ENDBRANCH  18  19
ENDBRANCH  15  17
ENDBRANCH   6  15
TORSDOF 5
ENDMDL
MODEL 6
REMARK VINA RESULT:      -7.5      3.775      5.119
REMARK  5 active torsions:
REMARK  status: ('A' for Active; 'I' for Inactive)
REMARK    1  A    between atoms: C6_6  and  N1_7 
REMARK    2  A    between atoms: N1_7  and  C7_8 
REMARK    3  A    between atoms: C8_9  and  C9_10 
REMARK    4  A    between atoms: C10_11  and  C11_13 
REMARK    5  A    between atoms: C16_21  and  O1_22 
ROOT
HETATM    1  C1  UNL     1      20.936   0.794  50.978  1.00  0.00     0.018 C 
HETATM    2  C2  UNL     1      21.924   0.597  51.671  1.00  0.00    -0.075 C 
HETATM    3  C3  UNL     1      23.066   0.368  52.496  1.00  0.00     0.051 A 
HETATM    4  C4  UNL     1      24.316   0.746  52.063  1.00  0.00     0.041 A 
HETATM    5  C5  UNL     1      25.391   0.513  52.879  1.00  0.00     0.040 A 
HETATM    6  C6  UNL     1      26.621   0.898  52.427  1.00  0.00     0.141 A 
HETATM    7  N2  UNL     1      27.673   0.667  53.230  1.00  0.00    -0.224 NA
HETATM    8  C13 UNL     1      27.557   0.085  54.434  1.00  0.00     0.236 A 
HETATM    9  N3  UNL     1      26.320  -0.288  54.861  1.00  0.00    -0.241 NA
HETATM   10  C14 UNL     1      25.232  -0.092  54.120  1.00  0.00     0.075 A 
HETATM   11  C15 UNL     1      23.964  -0.458  54.521  1.00  0.00     0.071 A 
HETATM   12  C16 UNL     1      22.859  -0.238  53.724  1.00  0.00     0.089 A 
ENDROOT
BRANCH  12  13
HETATM   13  O1  UNL     1      21.574  -0.596  54.106  1.00  0.00    -0.354 OA
HETATM   14  C17 UNL     1      21.332  -1.956  54.392  1.00  0.00     0.210 C 
ENDBRANCH  12  13
BRANCH   6  15
HETATM   15  N1  UNL     1      26.908   1.519  51.191  1.00  0.00    -0.350 N 
HETATM   16  H3  UNL     1      27.400   1.132  50.357  1.00  0.00     0.166 HD
BRANCH  15  17
HETATM   17  C7  UNL     1      26.549   2.854  50.865  1.00  0.00     0.090 C 
HETATM   18  C8  UNL     1      26.504   3.370  49.648  1.00  0.00     0.020 C 
BRANCH  18  19
HETATM   19  C9  UNL     1      26.113   4.766  49.489  1.00  0.00     0.045 C 
HETATM   20  C10 UNL     1      24.858   5.066  49.201  1.00  0.00     0.134 C 
HETATM   21  F1  UNL     1      24.410   6.333  49.036  1.00  0.00    -0.205 F 
BRANCH  20  22
HETATM   22  C11 UNL     1      23.799   4.080  49.020  1.00  0.00     0.047 A 
HETATM   23  C12 UNL     1      22.814   3.745  49.849  1.00  0.00     0.156 A 
HETATM   24 CL1  UNL     1      22.772   2.837  48.359  1.00  0.00    -0.178 Cl
ENDBRANCH  20  22
ENDBRANCH  18  19
ENDBRANCH  15  17
ENDBRANCH   6  15
TORSDOF 5
ENDMDL
MODEL 7
REMARK VINA RESULT:      -7.5      6.064      8.976
REMARK  5 active torsions:
REMARK  status: ('A' for Active; 'I' for Inactive)
REMARK    1  A    between atoms: C6_6  and  N1_7 
REMARK    2  A    between atoms: N1_7  and  C7_8 
REMARK    3  A    between atoms: C8_9  and  C9_10 
REMARK    4  A    between atoms: C10_11  and  C11_13 
REMARK    5  A    between atoms: C16_21  and  O1_22 
ROOT
HETATM    1  C1  UNL     1      31.380   5.348  47.772  1.00  0.00     0.018 C 
HETATM    2  C2  UNL     1      30.185   5.550  47.939  1.00  0.00    -0.075 C 
HETATM    3  C3  UNL     1      28.795   5.807  48.133  1.00  0.00     0.051 A 
HETATM    4  C4  UNL     1      28.002   4.867  48.750  1.00  0.00     0.041 A 
HETATM    5  C5  UNL     1      26.671   5.144  48.922  1.00  0.00     0.040 A 
HETATM    6  C6  UNL     1      25.904   4.196  49.538  1.00  0.00     0.141 A 
HETATM    7  N2  UNL     1      24.600   4.472  49.704  1.00  0.00    -0.224 NA
HETATM    8  C13 UNL     1      24.039   5.620  49.295  1.00  0.00     0.236 A 
HETATM    9  N3  UNL     1      24.825   6.547  48.685  1.00  0.00    -0.241 NA
HETATM   10  C14 UNL     1      26.125   6.345  48.485  1.00  0.00     0.075 A 
HETATM   11  C15 UNL     1      26.951   7.262  47.870  1.00  0.00     0.071 A 
HETATM   12  C16 UNL     1      28.296   7.017  47.681  1.00  0.00     0.089 A 
ENDROOT
BRANCH  12  13
HETATM   13  O1  UNL     1      29.147   7.924  47.066  1.00  0.00    -0.354 OA
HETATM   14  C17 UNL     1      28.681   9.244  46.893  1.00  0.00     0.210 C 
ENDBRANCH  12  13
BRANCH   6  15
HETATM   15  N1  UNL     1      26.341   2.944  50.023  1.00  0.00    -0.350 N 
HETATM   16  H3  UNL     1      26.941   2.229  49.558  1.00  0.00     0.166 HD
BRANCH  15  17
HETATM   17  C7  UNL     1      26.015   2.425  51.305  1.00  0.00     0.090 C 
HETATM   18  C8  UNL     1      26.795   1.664  52.055  1.00  0.00     0.020 C 
BRANCH  18  19
HETATM   19  C9  UNL     1      26.302   1.215  53.352  1.00  0.00     0.045 C 
HETATM   20  C10 UNL     1      27.067   0.450  54.114  1.00  0.00     0.134 C 
HETATM   21  F1  UNL     1      26.688  -0.012  55.329  1.00  0.00    -0.205 F 
BRANCH  20  22
HETATM   22  C11 UNL     1      28.406   0.003  53.747  1.00  0.00     0.047 A 
HETATM   23  C12 UNL     1      28.804  -1.192  53.322  1.00  0.00     0.156 A 
HETATM   24 CL1  UNL     1      30.119  -0.050  53.435  1.00  0.00    -0.178 Cl
ENDBRANCH  20  22
ENDBRANCH  18  19
ENDBRANCH  15  17
ENDBRANCH   6  15
TORSDOF 5
ENDMDL
MODEL 8
REMARK VINA RESULT:      -7.5      4.660      8.179
REMARK  5 active torsions:
REMARK  status: ('A' for Active; 'I' for Inactive)
REMARK    1  A    between atoms: C6_6  and  N1_7 
REMARK    2  A    between atoms: N1_7  and  C7_8 
REMARK    3  A    between atoms: C8_9  and  C9_10 
REMARK    4  A    between atoms: C10_11  and  C11_13 
REMARK    5  A    between atoms: C16_21  and  O1_22 
ROOT
HETATM    1  C1  UNL     1      26.444   3.177  50.076  1.00  0.00     0.018 C 
HETATM    2  C2  UNL     1      26.239   2.445  51.034  1.00  0.00    -0.075 C 
HETATM    3  C3  UNL     1      26.020   1.586  52.152  1.00  0.00     0.051 A 
HETATM    4  C4  UNL     1      24.773   1.049  52.374  1.00  0.00     0.041 A 
HETATM    5  C5  UNL     1      24.596   0.228  53.456  1.00  0.00     0.040 A 
HETATM    6  C6  UNL     1      23.349  -0.294  53.655  1.00  0.00     0.141 A 
HETATM    7  N2  UNL     1      23.180  -1.098  54.717  1.00  0.00    -0.224 NA
HETATM    8  C13 UNL     1      24.172  -1.399  55.569  1.00  0.00     0.236 A 
HETATM    9  N3  UNL     1      25.404  -0.867  55.348  1.00  0.00    -0.241 NA
HETATM   10  C14 UNL     1      25.648  -0.061  54.317  1.00  0.00     0.075 A 
HETATM   11  C15 UNL     1      26.883   0.496  54.064  1.00  0.00     0.071 A 
HETATM   12  C16 UNL     1      27.097   1.326  52.983  1.00  0.00     0.089 A 
ENDROOT
BRANCH  12  13
HETATM   13  O1  UNL     1      28.331   1.898  52.707  1.00  0.00    -0.354 OA
HETATM   14  C17 UNL     1      29.067   2.421  53.791  1.00  0.00     0.210 C 
ENDBRANCH  12  13
BRANCH   6  15
HETATM   15  N1  UNL     1      22.208  -0.074  52.853  1.00  0.00    -0.350 N 
HETATM   16  H3  UNL     1      22.100   0.526  52.007  1.00  0.00     0.166 HD
BRANCH  15  17
HETATM   17  C7  UNL     1      20.940  -0.673  53.086  1.00  0.00     0.090 C 
HETATM   18  C8  UNL     1      19.764  -0.114  52.853  1.00  0.00     0.020 C 
BRANCH  18  19
HETATM   19  C9  UNL     1      18.554  -0.872  53.150  1.00  0.00     0.045 C 
HETATM   20  C10 UNL     1      17.540  -0.847  52.301  1.00  0.00     0.134 C 
HETATM   21  F1  UNL     1      16.382  -1.520  52.498  1.00  0.00    -0.205 F 
BRANCH  20  22
HETATM   22  C11 UNL     1      17.535  -0.096  51.051  1.00  0.00     0.047 A 
HETATM   23  C12 UNL     1      16.880  -0.350  49.922  1.00  0.00     0.156 A 
HETATM   24 CL1  UNL     1      17.849   1.097  49.821  1.00  0.00    -0.178 Cl
ENDBRANCH  20  22
ENDBRANCH  18  19
ENDBRANCH  15  17
ENDBRANCH   6  15
TORSDOF 5
ENDMDL
MODEL 9
REMARK VINA RESULT:      -7.2      3.542      4.395
REMARK  5 active torsions:
REMARK  status: ('A' for Active; 'I' for Inactive)
REMARK    1  A    between atoms: C6_6  and  N1_7 
REMARK    2  A    between atoms: N1_7  and  C7_8 
REMARK    3  A    between atoms: C8_9  and  C9_10 
REMARK    4  A    between atoms: C10_11  and  C11_13 
REMARK    5  A    between atoms: C16_21  and  O1_22 
ROOT
HETATM    1  C1  UNL     1      18.828   0.745  50.459  1.00  0.00     0.018 C 
HETATM    2  C2  UNL     1      19.556   0.334  51.351  1.00  0.00    -0.075 C 
HETATM    3  C3  UNL     1      20.390  -0.146  52.406  1.00  0.00     0.051 A 
HETATM    4  C4  UNL     1      21.744   0.095  52.375  1.00  0.00     0.041 A 
HETATM    5  C5  UNL     1      22.517  -0.379  53.403  1.00  0.00     0.040 A 
HETATM    6  C6  UNL     1      23.859  -0.127  53.350  1.00  0.00     0.141 A 
HETATM    7  N2  UNL     1      24.613  -0.594  54.360  1.00  0.00    -0.224 NA
HETATM    8  C13 UNL     1      24.104  -1.281  55.393  1.00  0.00     0.236 A 
HETATM    9  N3  UNL     1      22.764  -1.517  55.421  1.00  0.00    -0.241 NA
HETATM   10  C14 UNL     1      21.954  -1.087  54.457  1.00  0.00     0.075 A 
HETATM   11  C15 UNL     1      20.593  -1.309  54.453  1.00  0.00     0.071 A 
HETATM   12  C16 UNL     1      19.785  -0.846  53.435  1.00  0.00     0.089 A 
ENDROOT
BRANCH  12  13
HETATM   13  O1  UNL     1      18.413  -1.056  53.409  1.00  0.00    -0.354 OA
HETATM   14  C17 UNL     1      17.948  -2.368  53.638  1.00  0.00     0.210 C 
ENDBRANCH  12  13
BRANCH   6  15
HETATM   15  N1  UNL     1      24.544   0.578  52.337  1.00  0.00    -0.350 N 
HETATM   16  H3  UNL     1      25.091   0.208  51.529  1.00  0.00     0.166 HD
BRANCH  15  17
HETATM   17  C7  UNL     1      24.603   1.995  52.248  1.00  0.00     0.090 C 
HETATM   18  C8  UNL     1      24.201   2.724  51.220  1.00  0.00     0.020 C 
BRANCH  18  19
HETATM   19  C9  UNL     1      24.333   4.174  51.293  1.00  0.00     0.045 C 
HETATM   20  C10 UNL     1      23.248   4.932  51.310  1.00  0.00     0.134 C 
HETATM   21  F1  UNL     1      23.280   6.284  51.376  1.00  0.00    -0.205 F 
BRANCH  20  22
HETATM   22  C11 UNL     1      21.886   4.415  51.257  1.00  0.00     0.047 A 
HETATM   23  C12 UNL     1      21.145   3.903  52.235  1.00  0.00     0.156 A 
HETATM   24 CL1  UNL     1      20.308   3.926  50.704  1.00  0.00    -0.178 Cl
ENDBRANCH  20  22
ENDBRANCH  18  19
ENDBRANCH  15  17
ENDBRANCH   6  15
TORSDOF 5
ENDMDL
