MODEL 1
REMARK VINA RESULT:      -8.6      0.000      0.000
REMARK  6 active torsions:
REMARK  status: ('A' for Active; 'I' for Inactive)
REMARK    1  A    between atoms: N1_1  and  C1_2 
REMARK    2  A    between atoms: N4_10  and  C7_11 
REMARK    3  A    between atoms: C7_11  and  C8_12 
REMARK    4  A    between atoms: C8_12  and  C9_13 
REMARK    5  A    between atoms: C12_16  and  C13_17 
REMARK    6  A    between atoms: C17_21  and  O1_22 
ROOT
HETATM    1  C7  UNL     1      23.902   2.428  51.042  1.00  0.00     0.130 C 
ENDROOT
BRANCH   1   2
HETATM    2  N4  UNL     1      24.820   3.381  50.512  1.00  0.00    -0.341 N 
HETATM    3  C3  UNL     1      24.803   4.725  50.542  1.00  0.00     0.145 A 
HETATM    4  N3  UNL     1      23.867   5.469  51.107  1.00  0.00    -0.223 NA
HETATM    5  C4  UNL     1      25.922   5.237  49.887  1.00  0.00     0.057 A 
HETATM    6  C2  UNL     1      24.003   6.818  51.046  1.00  0.00     0.237 A 
HETATM    7  N2  UNL     1      25.067   7.357  50.424  1.00  0.00    -0.224 NA
HETATM    8  C1  UNL     1      26.026   6.613  49.845  1.00  0.00     0.136 A 
HETATM    9  C5  UNL     1      26.602   4.121  49.467  1.00  0.00     0.036 A 
HETATM   10  C6  UNL     1      25.940   2.973  49.843  1.00  0.00     0.093 A 
BRANCH   8  11
HETATM   11  N1  UNL     1      27.169   7.133  49.175  1.00  0.00    -0.383 N 
HETATM   12  H1  UNL     1      27.488   6.918  48.204  1.00  0.00     0.157 HD
HETATM   13  H2  UNL     1      27.782   7.799  49.661  1.00  0.00     0.157 HD
ENDBRANCH   8  11
ENDBRANCH   1   2
BRANCH   1  14
HETATM   14  C8  UNL     1      24.109   2.007  52.451  1.00  0.00     0.025 C 
BRANCH  14  15
HETATM   15  C9  UNL     1      24.714   0.597  52.434  1.00  0.00    -0.008 A 
HETATM   16  C10 UNL     1      23.982  -0.381  53.314  1.00  0.00     0.005 A 
HETATM   17  C11 UNL     1      25.231  -0.611  54.145  1.00  0.00     0.006 A 
HETATM   18  C12 UNL     1      25.915   0.436  53.313  1.00  0.00     0.001 A 
BRANCH  18  19
HETATM   19  C13 UNL     1      27.165  -0.007  52.617  1.00  0.00     0.038 C 
HETATM   20  C14 UNL     1      28.345   0.660  53.265  1.00  0.00    -0.006 C 
HETATM   21  C15 UNL     1      29.539   0.112  53.371  1.00  0.00    -0.027 C 
HETATM   22  C16 UNL     1      29.542  -1.139  53.787  1.00  0.00     0.048 C 
HETATM   23  C17 UNL     1      28.467  -1.996  53.263  1.00  0.00     0.063 C 
HETATM   24  C18 UNL     1      27.355  -1.479  52.716  1.00  0.00     0.018 C 
BRANCH  23  25
HETATM   25  O1  UNL     1      28.596  -3.392  53.332  1.00  0.00    -0.361 OA
HETATM   26  H19 UNL     1      28.086  -4.016  52.715  1.00  0.00     0.217 HD
ENDBRANCH  23  25
ENDBRANCH  18  19
ENDBRANCH  14  15
ENDBRANCH   1  14
TORSDOF 6
ENDMDL
MODEL 2
REMARK VINA RESULT:      -8.6      2.138      3.306
REMARK  6 active torsions:
REMARK  status: ('A' for Active; 'I' for Inactive)
REMARK    1  A    between atoms: N1_1  and  C1_2 
REMARK    2  A    between atoms: N4_10  and  C7_11 
REMARK    3  A    between atoms: C7_11  and  C8_12 
REMARK    4  A    between atoms: C8_12  and  C9_13 
REMARK    5  A    between atoms: C12_16  and  C13_17 
REMARK    6  A    between atoms: C17_21  and  O1_22 
ROOT
HETATM    1  C7  UNL     1      23.600   2.968  52.693  1.00  0.00     0.130 C 
ENDROOT
BRANCH   1   2
HETATM    2  N4  UNL     1      23.481   3.095  51.277  1.00  0.00    -0.341 N 
HETATM    3  C3  UNL     1      22.769   2.379  50.391  1.00  0.00     0.145 A 
HETATM    4  N3  UNL     1      21.991   1.349  50.682  1.00  0.00    -0.223 NA
HETATM    5  C4  UNL     1      22.965   2.873  49.102  1.00  0.00     0.057 A 
HETATM    6  C2  UNL     1      21.341   0.734  49.661  1.00  0.00     0.237 A 
HETATM    7  N2  UNL     1      21.499   1.178  48.401  1.00  0.00    -0.224 NA
HETATM    8  C1  UNL     1      22.287   2.223  48.091  1.00  0.00     0.136 A 
HETATM    9  C5  UNL     1      23.832   3.923  49.276  1.00  0.00     0.036 A 
HETATM   10  C6  UNL     1      24.159   4.074  50.606  1.00  0.00     0.093 A 
BRANCH   8  11
HETATM   11  N1  UNL     1      22.489   2.730  46.777  1.00  0.00    -0.383 N 
HETATM   12  H1  UNL     1      22.107   2.346  45.882  1.00  0.00     0.157 HD
HETATM   13  H2  UNL     1      23.069   3.567  46.638  1.00  0.00     0.157 HD
ENDBRANCH   8  11
ENDBRANCH   1   2
BRANCH   1  14
HETATM   14  C8  UNL     1      24.930   2.576  53.222  1.00  0.00     0.025 C 
BRANCH  14  15
HETATM   15  C9  UNL     1      25.208   1.137  52.768  1.00  0.00    -0.008 A 
HETATM   16  C10 UNL     1      24.201   0.140  53.281  1.00  0.00     0.005 A 
HETATM   17  C11 UNL     1      25.289  -0.622  54.015  1.00  0.00     0.006 A 
HETATM   18  C12 UNL     1      26.259   0.434  53.570  1.00  0.00     0.001 A 
BRANCH  18  19
HETATM   19  C13 UNL     1      27.437  -0.060  52.789  1.00  0.00     0.038 C 
HETATM   20  C14 UNL     1      28.689   0.541  53.364  1.00  0.00    -0.006 C 
HETATM   21  C15 UNL     1      29.859  -0.065  53.387  1.00  0.00    -0.027 C 
HETATM   22  C16 UNL     1      29.828  -1.320  53.790  1.00  0.00     0.048 C 
HETATM   23  C17 UNL     1      28.680  -2.118  53.330  1.00  0.00     0.063 C 
HETATM   24  C18 UNL     1      27.562  -1.541  52.862  1.00  0.00     0.018 C 
BRANCH  23  25
HETATM   25  O1  UNL     1      28.745  -3.519  53.376  1.00  0.00    -0.361 OA
HETATM   26  H19 UNL     1      29.515  -4.013  53.816  1.00  0.00     0.217 HD
ENDBRANCH  23  25
ENDBRANCH  18  19
ENDBRANCH  14  15
ENDBRANCH   1  14
TORSDOF 6
ENDMDL
MODEL 3
REMARK VINA RESULT:      -8.5      3.679      6.613
REMARK  6 active torsions:
REMARK  status: ('A' for Active; 'I' for Inactive)
REMARK    1  A    between atoms: N1_1  and  C1_2 
REMARK    2  A    between atoms: N4_10  and  C7_11 
REMARK    3  A    between atoms: C7_11  and  C8_12 
REMARK    4  A    between atoms: C8_12  and  C9_13 
REMARK    5  A    between atoms: C12_16  and  C13_17 
REMARK    6  A    between atoms: C17_21  and  O1_22 
ROOT
HETATM    1  C7  UNL     1      25.671   2.209  52.867  1.00  0.00     0.130 C 
ENDROOT
BRANCH   1   2
HETATM    2  N4  UNL     1      26.896   1.541  53.165  1.00  0.00    -0.341 N 
HETATM    3  C3  UNL     1      27.227   0.242  53.084  1.00  0.00     0.145 A 
HETATM    4  N3  UNL     1      26.425  -0.733  52.687  1.00  0.00    -0.223 NA
HETATM    5  C4  UNL     1      28.550   0.054  53.483  1.00  0.00     0.057 A 
HETATM    6  C2  UNL     1      26.920  -1.996  52.666  1.00  0.00     0.237 A 
HETATM    7  N2  UNL     1      28.192  -2.224  53.041  1.00  0.00    -0.224 NA
HETATM    8  C1  UNL     1      29.018  -1.244  53.447  1.00  0.00     0.136 A 
HETATM    9  C5  UNL     1      28.983   1.316  53.803  1.00  0.00     0.036 A 
HETATM   10  C6  UNL     1      27.981   2.242  53.613  1.00  0.00     0.093 A 
BRANCH   8  11
HETATM   11  N1  UNL     1      30.368  -1.432  53.854  1.00  0.00    -0.383 N 
HETATM   12  H1  UNL     1      31.055  -2.124  53.478  1.00  0.00     0.157 HD
HETATM   13  H2  UNL     1      30.760  -0.845  54.601  1.00  0.00     0.157 HD
ENDBRANCH   8  11
ENDBRANCH   1   2
BRANCH   1  14
HETATM   14  C8  UNL     1      25.357   2.426  51.433  1.00  0.00     0.025 C 
BRANCH  14  15
HETATM   15  C9  UNL     1      23.973   1.821  51.161  1.00  0.00    -0.008 A 
HETATM   16  C10 UNL     1      22.943   2.839  50.746  1.00  0.00     0.005 A 
HETATM   17  C11 UNL     1      22.084   2.501  51.951  1.00  0.00     0.006 A 
HETATM   18  C12 UNL     1      23.166   1.559  52.395  1.00  0.00     0.001 A 
BRANCH  18  19
HETATM   19  C13 UNL     1      22.742   0.137  52.594  1.00  0.00     0.038 C 
HETATM   20  C14 UNL     1      23.300  -0.358  53.899  1.00  0.00    -0.006 C 
HETATM   21  C15 UNL     1      22.699  -1.238  54.675  1.00  0.00    -0.027 C 
HETATM   22  C16 UNL     1      21.416  -1.016  54.878  1.00  0.00     0.048 C 
HETATM   23  C17 UNL     1      20.653  -0.530  53.717  1.00  0.00     0.063 C 
HETATM   24  C18 UNL     1      21.261   0.009  52.648  1.00  0.00     0.018 C 
BRANCH  23  25
HETATM   25  O1  UNL     1      19.253  -0.628  53.715  1.00  0.00    -0.361 OA
HETATM   26  H19 UNL     1      18.652   0.177  53.569  1.00  0.00     0.217 HD
ENDBRANCH  23  25
ENDBRANCH  18  19
ENDBRANCH  14  15
ENDBRANCH   1  14
TORSDOF 6
ENDMDL
MODEL 4
REMARK VINA RESULT:      -8.5      0.824      1.817
REMARK  6 active torsions:
REMARK  status: ('A' for Active; 'I' for Inactive)
REMARK    1  A    between atoms: N1_1  and  C1_2 
REMARK    2  A    between atoms: N4_10  and  C7_11 
REMARK    3  A    between atoms: C7_11  and  C8_12 
REMARK    4  A    between atoms: C8_12  and  C9_13 
REMARK    5  A    between atoms: C12_16  and  C13_17 
REMARK    6  A    between atoms: C17_21  and  O1_22 
ROOT
HETATM    1  C7  UNL     1      23.507   2.957  51.954  1.00  0.00     0.130 C 
ENDROOT
BRANCH   1   2
HETATM    2  N4  UNL     1      23.985   4.161  51.359  1.00  0.00    -0.341 N 
HETATM    3  C3  UNL     1      25.017   4.376  50.525  1.00  0.00     0.145 A 
HETATM    4  N3  UNL     1      25.842   3.449  50.067  1.00  0.00    -0.223 NA
HETATM    5  C4  UNL     1      25.104   5.730  50.203  1.00  0.00     0.057 A 
HETATM    6  C2  UNL     1      26.837   3.839  49.230  1.00  0.00     0.237 A 
HETATM    7  N2  UNL     1      26.958   5.136  48.891  1.00  0.00    -0.224 NA
HETATM    8  C1  UNL     1      26.127   6.089  49.349  1.00  0.00     0.136 A 
HETATM    9  C5  UNL     1      24.065   6.304  50.892  1.00  0.00     0.036 A 
HETATM   10  C6  UNL     1      23.367   5.354  51.607  1.00  0.00     0.093 A 
BRANCH   8  11
HETATM   11  N1  UNL     1      26.213   7.471  49.022  1.00  0.00    -0.383 N 
HETATM   12  H1  UNL     1      25.453   8.084  48.651  1.00  0.00     0.157 HD
HETATM   13  H2  UNL     1      27.103   7.968  49.148  1.00  0.00     0.157 HD
ENDBRANCH   8  11
ENDBRANCH   1   2
BRANCH   1  14
HETATM   14  C8  UNL     1      24.298   2.405  53.083  1.00  0.00     0.025 C 
BRANCH  14  15
HETATM   15  C9  UNL     1      24.711   0.975  52.709  1.00  0.00    -0.008 A 
HETATM   16  C10 UNL     1      23.828  -0.083  53.317  1.00  0.00     0.005 A 
HETATM   17  C11 UNL     1      25.009  -0.681  54.059  1.00  0.00     0.006 A 
HETATM   18  C12 UNL     1      25.851   0.437  53.516  1.00  0.00     0.001 A 
BRANCH  18  19
HETATM   19  C13 UNL     1      27.052   0.016  52.727  1.00  0.00     0.038 C 
HETATM   20  C14 UNL     1      28.269   0.692  53.294  1.00  0.00    -0.006 C 
HETATM   21  C15 UNL     1      29.473   0.158  53.308  1.00  0.00    -0.027 C 
HETATM   22  C16 UNL     1      29.521  -1.096  53.711  1.00  0.00     0.048 C 
HETATM   23  C17 UNL     1      28.422  -1.962  53.258  1.00  0.00     0.063 C 
HETATM   24  C18 UNL     1      27.267  -1.455  52.798  1.00  0.00     0.018 C 
BRANCH  23  25
HETATM   25  O1  UNL     1      28.572  -3.357  53.304  1.00  0.00    -0.361 OA
HETATM   26  H19 UNL     1      29.463  -3.802  53.499  1.00  0.00     0.217 HD
ENDBRANCH  23  25
ENDBRANCH  18  19
ENDBRANCH  14  15
ENDBRANCH   1  14
TORSDOF 6
ENDMDL
MODEL 5
REMARK VINA RESULT:      -8.4      4.643      7.447
REMARK  6 active torsions:
REMARK  status: ('A' for Active; 'I' for Inactive)
REMARK    1  A    between atoms: N1_1  and  C1_2 
REMARK    2  A    between atoms: N4_10  and  C7_11 
REMARK    3  A    between atoms: C7_11  and  C8_12 
REMARK    4  A    between atoms: C8_12  and  C9_13 
REMARK    5  A    between atoms: C12_16  and  C13_17 
REMARK    6  A    between atoms: C17_21  and  O1_22 
ROOT
HETATM    1  C7  UNL     1      24.476   1.023  53.089  1.00  0.00     0.130 C 
ENDROOT
BRANCH   1   2
HETATM    2  N4  UNL     1      25.734   0.354  53.144  1.00  0.00    -0.341 N 
HETATM    3  C3  UNL     1      26.962   0.819  53.431  1.00  0.00     0.145 A 
HETATM    4  N3  UNL     1      27.257   2.072  53.738  1.00  0.00    -0.223 NA
HETATM    5  C4  UNL     1      27.898  -0.212  53.360  1.00  0.00     0.057 A 
HETATM    6  C2  UNL     1      28.554   2.374  54.000  1.00  0.00     0.237 A 
HETATM    7  N2  UNL     1      29.492   1.410  53.945  1.00  0.00    -0.224 NA
HETATM    8  C1  UNL     1      29.206   0.133  53.634  1.00  0.00     0.136 A 
HETATM    9  C5  UNL     1      27.155  -1.313  53.016  1.00  0.00     0.036 A 
HETATM   10  C6  UNL     1      25.824  -0.984  52.879  1.00  0.00     0.093 A 
BRANCH   8  11
HETATM   11  N1  UNL     1      30.159  -0.921  53.561  1.00  0.00    -0.383 N 
HETATM   12  H1  UNL     1      30.102  -1.789  52.982  1.00  0.00     0.157 HD
HETATM   13  H2  UNL     1      31.017  -0.869  54.123  1.00  0.00     0.157 HD
ENDBRANCH   8  11
ENDBRANCH   1   2
BRANCH   1  14
HETATM   14  C8  UNL     1      23.333   0.259  52.528  1.00  0.00     0.025 C 
BRANCH  14  15
HETATM   15  C9  UNL     1      22.281   0.112  53.635  1.00  0.00    -0.008 A 
HETATM   16  C10 UNL     1      22.675  -0.866  54.712  1.00  0.00     0.005 A 
HETATM   17  C11 UNL     1      21.463  -1.729  54.409  1.00  0.00     0.006 A 
HETATM   18  C12 UNL     1      21.141  -0.791  53.281  1.00  0.00     0.001 A 
BRANCH  18  19
HETATM   19  C13 UNL     1      19.784  -0.162  53.332  1.00  0.00     0.038 C 
HETATM   20  C14 UNL     1      19.469   0.428  51.986  1.00  0.00    -0.006 C 
HETATM   21  C15 UNL     1      18.258   0.495  51.472  1.00  0.00    -0.027 C 
HETATM   22  C16 UNL     1      17.550  -0.613  51.569  1.00  0.00     0.048 C 
HETATM   23  C17 UNL     1      17.691  -1.361  52.828  1.00  0.00     0.063 C 
HETATM   24  C18 UNL     1      18.728  -1.159  53.657  1.00  0.00     0.018 C 
BRANCH  23  25
HETATM   25  O1  UNL     1      16.724  -2.314  53.183  1.00  0.00    -0.361 OA
HETATM   26  H19 UNL     1      16.149  -2.222  54.015  1.00  0.00     0.217 HD
ENDBRANCH  23  25
ENDBRANCH  18  19
ENDBRANCH  14  15
ENDBRANCH   1  14
TORSDOF 6
ENDMDL
MODEL 6
REMARK VINA RESULT:      -8.3      1.715      2.213
REMARK  6 active torsions:
REMARK  status: ('A' for Active; 'I' for Inactive)
REMARK    1  A    between atoms: N1_1  and  C1_2 
REMARK    2  A    between atoms: N4_10  and  C7_11 
REMARK    3  A    between atoms: C7_11  and  C8_12 
REMARK    4  A    between atoms: C8_12  and  C9_13 
REMARK    5  A    between atoms: C12_16  and  C13_17 
REMARK    6  A    between atoms: C17_21  and  O1_22 
ROOT
HETATM    1  C7  UNL     1      23.435   1.887  50.998  1.00  0.00     0.130 C 
ENDROOT
BRANCH   1   2
HETATM    2  N4  UNL     1      24.565   2.678  50.637  1.00  0.00    -0.341 N 
HETATM    3  C3  UNL     1      24.646   3.816  49.926  1.00  0.00     0.145 A 
HETATM    4  N3  UNL     1      23.624   4.462  49.390  1.00  0.00    -0.223 NA
HETATM    5  C4  UNL     1      25.974   4.230  49.828  1.00  0.00     0.057 A 
HETATM    6  C2  UNL     1      23.883   5.602  48.699  1.00  0.00     0.237 A 
HETATM    7  N2  UNL     1      25.149   6.040  48.579  1.00  0.00    -0.224 NA
HETATM    8  C1  UNL     1      26.198   5.393  49.119  1.00  0.00     0.136 A 
HETATM    9  C5  UNL     1      26.673   3.274  50.520  1.00  0.00     0.036 A 
HETATM   10  C6  UNL     1      25.824   2.313  51.025  1.00  0.00     0.093 A 
BRANCH   8  11
HETATM   11  N1  UNL     1      27.553   5.813  49.020  1.00  0.00    -0.383 N 
HETATM   12  H1  UNL     1      28.145   6.233  49.772  1.00  0.00     0.157 HD
HETATM   13  H2  UNL     1      28.052   5.714  48.126  1.00  0.00     0.157 HD
ENDBRANCH   8  11
ENDBRANCH   1   2
BRANCH   1  14
HETATM   14  C8  UNL     1      23.199   1.676  52.449  1.00  0.00     0.025 C 
BRANCH  14  15
HETATM   15  C9  UNL     1      23.441   0.191  52.751  1.00  0.00    -0.008 A 
HETATM   16  C10 UNL     1      22.188  -0.557  53.125  1.00  0.00     0.005 A 
HETATM   17  C11 UNL     1      22.768  -0.904  54.484  1.00  0.00     0.006 A 
HETATM   18  C12 UNL     1      23.969  -0.076  54.127  1.00  0.00     0.001 A 
BRANCH  18  19
HETATM   19  C13 UNL     1      25.284  -0.788  54.182  1.00  0.00     0.038 C 
HETATM   20  C14 UNL     1      25.807  -0.955  52.782  1.00  0.00    -0.006 C 
HETATM   21  C15 UNL     1      27.085  -0.949  52.464  1.00  0.00    -0.027 C 
HETATM   22  C16 UNL     1      27.791   0.019  53.013  1.00  0.00     0.048 C 
HETATM   23  C17 UNL     1      27.457   0.351  54.407  1.00  0.00     0.063 C 
HETATM   24  C18 UNL     1      26.292  -0.020  54.961  1.00  0.00     0.018 C 
BRANCH  23  25
HETATM   25  O1  UNL     1      28.373   1.073  55.188  1.00  0.00    -0.361 OA
HETATM   26  H19 UNL     1      28.168   2.000  55.548  1.00  0.00     0.217 HD
ENDBRANCH  23  25
ENDBRANCH  18  19
ENDBRANCH  14  15
ENDBRANCH   1  14
TORSDOF 6
ENDMDL
MODEL 7
REMARK VINA RESULT:      -8.2      2.753      3.943
REMARK  6 active torsions:
REMARK  status: ('A' for Active; 'I' for Inactive)
REMARK    1  A    between atoms: N1_1  and  C1_2 
REMARK    2  A    between atoms: N4_10  and  C7_11 
REMARK    3  A    between atoms: C7_11  and  C8_12 
REMARK    4  A    between atoms: C8_12  and  C9_13 
REMARK    5  A    between atoms: C12_16  and  C13_17 
REMARK    6  A    between atoms: C17_21  and  O1_22 
ROOT
HETATM    1  C7  UNL     1      19.890   0.786  51.944  1.00  0.00     0.130 C 
ENDROOT
BRANCH   1   2
HETATM    2  N4  UNL     1      20.859   1.420  51.111  1.00  0.00    -0.341 N 
HETATM    3  C3  UNL     1      21.456   2.619  51.218  1.00  0.00     0.145 A 
HETATM    4  N3  UNL     1      21.243   3.501  52.180  1.00  0.00    -0.223 NA
HETATM    5  C4  UNL     1      22.343   2.813  50.160  1.00  0.00     0.057 A 
HETATM    6  C2  UNL     1      21.931   4.670  52.136  1.00  0.00     0.237 A 
HETATM    7  N2  UNL     1      22.799   4.900  51.134  1.00  0.00    -0.224 NA
HETATM    8  C1  UNL     1      23.025   4.012  50.149  1.00  0.00     0.136 A 
HETATM    9  C5  UNL     1      22.239   1.660  49.422  1.00  0.00     0.036 A 
HETATM   10  C6  UNL     1      21.332   0.793  49.992  1.00  0.00     0.093 A 
BRANCH   8  11
HETATM   11  N1  UNL     1      23.930   4.207  49.068  1.00  0.00    -0.383 N 
HETATM   12  H1  UNL     1      24.131   3.550  48.281  1.00  0.00     0.157 HD
HETATM   13  H2  UNL     1      24.472   5.079  49.010  1.00  0.00     0.157 HD
ENDBRANCH   8  11
ENDBRANCH   1   2
BRANCH   1  14
HETATM   14  C8  UNL     1      20.292   0.502  53.345  1.00  0.00     0.025 C 
BRANCH  14  15
HETATM   15  C9  UNL     1      21.443  -0.512  53.305  1.00  0.00    -0.008 A 
HETATM   16  C10 UNL     1      21.256  -1.669  54.251  1.00  0.00     0.005 A 
HETATM   17  C11 UNL     1      22.530  -1.305  54.992  1.00  0.00     0.006 A 
HETATM   18  C12 UNL     1      22.646  -0.104  54.096  1.00  0.00     0.001 A 
BRANCH  18  19
HETATM   19  C13 UNL     1      23.921  -0.000  53.318  1.00  0.00     0.038 C 
HETATM   20  C14 UNL     1      24.183   1.446  53.004  1.00  0.00    -0.006 C 
HETATM   21  C15 UNL     1      25.385   1.977  52.912  1.00  0.00    -0.027 C 
HETATM   22  C16 UNL     1      26.215   1.649  53.882  1.00  0.00     0.048 C 
HETATM   23  C17 UNL     1      26.144   0.256  54.349  1.00  0.00     0.063 C 
HETATM   24  C18 UNL     1      25.080  -0.521  54.092  1.00  0.00     0.018 C 
BRANCH  23  25
HETATM   25  O1  UNL     1      27.211  -0.287  55.083  1.00  0.00    -0.361 OA
HETATM   26  H19 UNL     1      28.095   0.199  55.196  1.00  0.00     0.217 HD
ENDBRANCH  23  25
ENDBRANCH  18  19
ENDBRANCH  14  15
ENDBRANCH   1  14
TORSDOF 6
ENDMDL
MODEL 8
REMARK VINA RESULT:      -8.1      1.805      2.854
REMARK  6 active torsions:
REMARK  status: ('A' for Active; 'I' for Inactive)
REMARK    1  A    between atoms: N1_1  and  C1_2 
REMARK    2  A    between atoms: N4_10  and  C7_11 
REMARK    3  A    between atoms: C7_11  and  C8_12 
REMARK    4  A    between atoms: C8_12  and  C9_13 
REMARK    5  A    between atoms: C12_16  and  C13_17 
REMARK    6  A    between atoms: C17_21  and  O1_22 
ROOT
HETATM    1  C7  UNL     1      22.296   1.695  50.909  1.00  0.00     0.130 C 
ENDROOT
BRANCH   1   2
HETATM    2  N4  UNL     1      22.646   3.033  51.255  1.00  0.00    -0.341 N 
HETATM    3  C3  UNL     1      23.600   3.844  50.766  1.00  0.00     0.145 A 
HETATM    4  N3  UNL     1      24.455   3.532  49.806  1.00  0.00    -0.223 NA
HETATM    5  C4  UNL     1      23.568   5.076  51.418  1.00  0.00     0.057 A 
HETATM    6  C2  UNL     1      25.360   4.472  49.431  1.00  0.00     0.237 A 
HETATM    7  N2  UNL     1      25.365   5.676  50.031  1.00  0.00    -0.224 NA
HETATM    8  C1  UNL     1      24.502   6.005  51.008  1.00  0.00     0.136 A 
HETATM    9  C5  UNL     1      22.540   4.949  52.319  1.00  0.00     0.036 A 
HETATM   10  C6  UNL     1      21.962   3.701  52.232  1.00  0.00     0.093 A 
BRANCH   8  11
HETATM   11  N1  UNL     1      24.467   7.262  51.675  1.00  0.00    -0.383 N 
HETATM   12  H1  UNL     1      24.531   7.438  52.703  1.00  0.00     0.157 HD
HETATM   13  H2  UNL     1      24.368   8.125  51.126  1.00  0.00     0.157 HD
ENDBRANCH   8  11
ENDBRANCH   1   2
BRANCH   1  14
HETATM   14  C8  UNL     1      21.663   0.871  51.970  1.00  0.00     0.025 C 
BRANCH  14  15
HETATM   15  C9  UNL     1      22.648  -0.243  52.347  1.00  0.00    -0.008 A 
HETATM   16  C10 UNL     1      22.137  -1.154  53.433  1.00  0.00     0.005 A 
HETATM   17  C11 UNL     1      23.300  -0.777  54.334  1.00  0.00     0.006 A 
HETATM   18  C12 UNL     1      23.739   0.193  53.275  1.00  0.00     0.001 A 
BRANCH  18  19
HETATM   19  C13 UNL     1      25.132   0.001  52.762  1.00  0.00     0.038 C 
HETATM   20  C14 UNL     1      25.647   1.316  52.246  1.00  0.00    -0.006 C 
HETATM   21  C15 UNL     1      26.909   1.690  52.300  1.00  0.00    -0.027 C 
HETATM   22  C16 UNL     1      27.501   1.487  53.460  1.00  0.00     0.048 C 
HETATM   23  C17 UNL     1      27.154   0.235  54.151  1.00  0.00     0.063 C 
HETATM   24  C18 UNL     1      26.053  -0.464  53.835  1.00  0.00     0.018 C 
BRANCH  23  25
HETATM   25  O1  UNL     1      27.988  -0.250  55.171  1.00  0.00    -0.361 OA
HETATM   26  H19 UNL     1      28.917  -0.615  54.985  1.00  0.00     0.217 HD
ENDBRANCH  23  25
ENDBRANCH  18  19
ENDBRANCH  14  15
ENDBRANCH   1  14
TORSDOF 6
ENDMDL
MODEL 9
REMARK VINA RESULT:      -8.1      3.986      7.088
REMARK  6 active torsions:
REMARK  status: ('A' for Active; 'I' for Inactive)
REMARK    1  A    between atoms: N1_1  and  C1_2 
REMARK    2  A    between atoms: N4_10  and  C7_11 
REMARK    3  A    between atoms: C7_11  and  C8_12 
REMARK    4  A    between atoms: C8_12  and  C9_13 
REMARK    5  A    between atoms: C12_16  and  C13_17 
REMARK    6  A    between atoms: C17_21  and  O1_22 
ROOT
HETATM    1  C7  UNL     1      24.715   2.068  53.295  1.00  0.00     0.130 C 
ENDROOT
BRANCH   1   2
HETATM    2  N4  UNL     1      25.626   0.971  53.280  1.00  0.00    -0.341 N 
HETATM    3  C3  UNL     1      26.945   0.925  53.532  1.00  0.00     0.145 A 
HETATM    4  N3  UNL     1      27.701   1.958  53.864  1.00  0.00    -0.223 NA
HETATM    5  C4  UNL     1      27.418  -0.379  53.393  1.00  0.00     0.057 A 
HETATM    6  C2  UNL     1      29.022   1.736  54.085  1.00  0.00     0.237 A 
HETATM    7  N2  UNL     1      29.522   0.493  53.964  1.00  0.00    -0.224 NA
HETATM    8  C1  UNL     1      28.765  -0.567  53.626  1.00  0.00     0.136 A 
HETATM    9  C5  UNL     1      26.304  -1.102  53.045  1.00  0.00     0.036 A 
HETATM   10  C6  UNL     1      25.194  -0.289  52.972  1.00  0.00     0.093 A 
BRANCH   8  11
HETATM   11  N1  UNL     1      29.245  -1.898  53.484  1.00  0.00    -0.383 N 
HETATM   12  H1  UNL     1      30.124  -2.303  53.878  1.00  0.00     0.157 HD
HETATM   13  H2  UNL     1      28.700  -2.579  52.939  1.00  0.00     0.157 HD
ENDBRANCH   8  11
ENDBRANCH   1   2
BRANCH   1  14
HETATM   14  C8  UNL     1      24.864   3.080  52.219  1.00  0.00     0.025 C 
BRANCH  14  15
HETATM   15  C9  UNL     1      24.459   2.418  50.895  1.00  0.00    -0.008 A 
HETATM   16  C10 UNL     1      24.769   3.258  49.684  1.00  0.00     0.005 A 
HETATM   17  C11 UNL     1      23.300   3.303  49.305  1.00  0.00     0.006 A 
HETATM   18  C12 UNL     1      23.004   2.545  50.567  1.00  0.00     0.001 A 
BRANCH  18  19
HETATM   19  C13 UNL     1      22.272   1.251  50.386  1.00  0.00     0.038 C 
HETATM   20  C14 UNL     1      21.829   0.750  51.732  1.00  0.00    -0.006 C 
HETATM   21  C15 UNL     1      20.724   0.063  51.939  1.00  0.00    -0.027 C 
HETATM   22  C16 UNL     1      19.649   0.546  51.349  1.00  0.00     0.048 C 
HETATM   23  C17 UNL     1      19.845   1.088  49.995  1.00  0.00     0.063 C 
HETATM   24  C18 UNL     1      21.062   1.420  49.536  1.00  0.00     0.018 C 
BRANCH  23  25
HETATM   25  O1  UNL     1      18.737   1.266  49.152  1.00  0.00    -0.361 OA
HETATM   26  H19 UNL     1      18.169   2.108  49.171  1.00  0.00     0.217 HD
ENDBRANCH  23  25
ENDBRANCH  18  19
ENDBRANCH  14  15
ENDBRANCH   1  14
TORSDOF 6
ENDMDL
