MODEL 1
REMARK VINA RESULT:      -7.7      0.000      0.000
REMARK  1 active torsions:
REMARK  status: ('A' for Active; 'I' for Inactive)
REMARK    1  A    between atoms: C1_2  and  C2_3 
ROOT
HETATM    1  C2  UNL     1      21.915   2.537  51.505  1.00  0.00    -0.015 C 
HETATM    2  C3  UNL     1      22.594   3.673  51.519  1.00  0.00     0.012 C 
HETATM    3  C4  UNL     1      23.983   4.048  51.365  1.00  0.00     0.018 C 
HETATM    4  C5  UNL     1      25.166   3.527  51.161  1.00  0.00     0.106 C 
HETATM    5  N1  UNL     1      25.835   2.298  50.967  1.00  0.00    -0.198 N 
HETATM    6  C6  UNL     1      26.139   1.294  51.905  1.00  0.00     0.726 A 
HETATM    7  N2  UNL     1      27.148   0.645  52.491  1.00  0.00    -0.075 NA
HETATM    8  C7  UNL     1      26.859  -0.340  53.401  1.00  0.00     0.139 A 
HETATM    9  C8  UNL     1      25.570  -0.708  53.754  1.00  0.00     0.053 A 
HETATM   10  C9  UNL     1      24.618   0.025  53.092  1.00  0.00     0.089 A 
HETATM   11  N3  UNL     1      24.886   0.980  52.211  1.00  0.00    -0.062 NA
HETATM   12  C10 UNL     1      23.191  -0.189  53.285  1.00  0.00     0.018 A 
HETATM   13  C11 UNL     1      22.826  -0.939  54.380  1.00  0.00     0.017 A 
HETATM   14  C12 UNL     1      21.485  -1.220  54.672  1.00  0.00     0.020 A 
HETATM   15  C13 UNL     1      20.506  -0.723  53.825  1.00  0.00     0.117 A 
HETATM   16  N4  UNL     1      20.901   0.005  52.767  1.00  0.00    -0.264 NA
HETATM   17  C14 UNL     1      22.178   0.287  52.468  1.00  0.00     0.051 A 
HETATM   18  C15 UNL     1      22.279   1.109  51.258  1.00  0.00     0.101 C 
HETATM   19  H5  UNL     1      26.261   1.801  50.167  1.00  0.00     0.183 HD
ENDROOT
BRANCH   1  20
HETATM   20  C1  UNL     1      20.451   2.645  51.723  1.00  0.00     0.266 C 
HETATM   21  O1  UNL     1      19.817   3.263  52.615  1.00  0.00    -0.302 OA
ENDBRANCH   1  20
TORSDOF 1
ENDMDL
MODEL 2
REMARK VINA RESULT:      -7.7      1.469      4.242
REMARK  1 active torsions:
REMARK  status: ('A' for Active; 'I' for Inactive)
REMARK    1  A    between atoms: C1_2  and  C2_3 
ROOT
HETATM    1  C2  UNL     1      22.184   2.248  52.002  1.00  0.00    -0.015 C 
HETATM    2  C3  UNL     1      21.544   1.090  52.022  1.00  0.00     0.012 C 
HETATM    3  C4  UNL     1      21.755  -0.196  52.649  1.00  0.00     0.018 C 
HETATM    4  C5  UNL     1      22.594  -0.827  53.433  1.00  0.00     0.106 C 
HETATM    5  N1  UNL     1      23.801  -0.667  54.148  1.00  0.00    -0.198 N 
HETATM    6  C6  UNL     1      25.120  -0.609  53.663  1.00  0.00     0.726 A 
HETATM    7  N2  UNL     1      26.305  -1.225  53.702  1.00  0.00    -0.075 NA
HETATM    8  C7  UNL     1      27.351  -0.692  52.994  1.00  0.00     0.139 A 
HETATM    9  C8  UNL     1      27.254   0.461  52.229  1.00  0.00     0.053 A 
HETATM   10  C9  UNL     1      25.995   1.005  52.263  1.00  0.00     0.089 A 
HETATM   11  N3  UNL     1      24.977   0.497  52.943  1.00  0.00    -0.062 NA
HETATM   12  C10 UNL     1      25.651   2.227  51.550  1.00  0.00     0.018 A 
HETATM   13  C11 UNL     1      26.546   2.652  50.594  1.00  0.00     0.017 A 
HETATM   14  C12 UNL     1      26.333   3.816  49.844  1.00  0.00     0.020 A 
HETATM   15  C13 UNL     1      25.182   4.552  50.081  1.00  0.00     0.117 A 
HETATM   16  N4  UNL     1      24.332   4.106  51.020  1.00  0.00    -0.264 NA
HETATM   17  C14 UNL     1      24.516   2.995  51.750  1.00  0.00     0.051 A 
HETATM   18  C15 UNL     1      23.405   2.775  52.683  1.00  0.00     0.101 C 
HETATM   19  H5  UNL     1      24.067  -0.550  55.139  1.00  0.00     0.183 HD
ENDROOT
BRANCH   1  20
HETATM   20  C1  UNL     1      21.572   3.323  51.182  1.00  0.00     0.266 C 
HETATM   21  O1  UNL     1      20.892   4.317  51.541  1.00  0.00    -0.302 OA
ENDBRANCH   1  20
TORSDOF 1
ENDMDL
MODEL 3
REMARK VINA RESULT:      -7.6      1.914      4.492
REMARK  1 active torsions:
REMARK  status: ('A' for Active; 'I' for Inactive)
REMARK    1  A    between atoms: C1_2  and  C2_3 
ROOT
HETATM    1  C2  UNL     1      22.209   1.994  50.536  1.00  0.00    -0.015 C 
HETATM    2  C3  UNL     1      21.144   1.270  50.229  1.00  0.00     0.012 C 
HETATM    3  C4  UNL     1      20.183   0.483  50.969  1.00  0.00     0.018 C 
HETATM    4  C5  UNL     1      19.891   0.106  52.189  1.00  0.00     0.106 C 
HETATM    5  N1  UNL     1      20.315   0.218  53.531  1.00  0.00    -0.198 N 
HETATM    6  C6  UNL     1      21.410  -0.392  54.171  1.00  0.00     0.726 A 
HETATM    7  N2  UNL     1      21.745  -1.238  55.148  1.00  0.00    -0.075 NA
HETATM    8  C7  UNL     1      23.074  -1.490  55.376  1.00  0.00     0.139 A 
HETATM    9  C8  UNL     1      24.103  -0.915  54.647  1.00  0.00     0.053 A 
HETATM   10  C9  UNL     1      23.640  -0.067  53.672  1.00  0.00     0.089 A 
HETATM   11  N3  UNL     1      22.359   0.184  53.443  1.00  0.00    -0.062 NA
HETATM   12  C10 UNL     1      24.533   0.667  52.787  1.00  0.00     0.018 A 
HETATM   13  C11 UNL     1      25.844   0.251  52.754  1.00  0.00     0.017 A 
HETATM   14  C12 UNL     1      26.802   0.879  51.946  1.00  0.00     0.020 A 
HETATM   15  C13 UNL     1      26.404   1.951  51.162  1.00  0.00     0.117 A 
HETATM   16  N4  UNL     1      25.116   2.328  51.220  1.00  0.00    -0.264 NA
HETATM   17  C14 UNL     1      24.182   1.742  51.986  1.00  0.00     0.051 A 
HETATM   18  C15 UNL     1      22.872   2.380  51.818  1.00  0.00     0.101 C 
HETATM   19  H5  UNL     1      19.995   0.727  54.371  1.00  0.00     0.183 HD
ENDROOT
BRANCH   1  20
HETATM   20  C1  UNL     1      22.914   2.639  49.400  1.00  0.00     0.266 C 
HETATM   21  O1  UNL     1      22.925   2.328  48.183  1.00  0.00    -0.302 OA
ENDBRANCH   1  20
TORSDOF 1
ENDMDL
MODEL 4
REMARK VINA RESULT:      -7.6      2.664      4.618
REMARK  1 active torsions:
REMARK  status: ('A' for Active; 'I' for Inactive)
REMARK    1  A    between atoms: C1_2  and  C2_3 
ROOT
HETATM    1  C2  UNL     1      26.240   1.559  51.862  1.00  0.00    -0.015 C 
HETATM    2  C3  UNL     1      26.634   2.089  50.714  1.00  0.00     0.012 C 
HETATM    3  C4  UNL     1      26.394   3.332  50.015  1.00  0.00     0.018 C 
HETATM    4  C5  UNL     1      25.734   4.458  50.127  1.00  0.00     0.106 C 
HETATM    5  N1  UNL     1      24.854   5.165  50.974  1.00  0.00    -0.198 N 
HETATM    6  C6  UNL     1      23.483   4.953  51.209  1.00  0.00     0.726 A 
HETATM    7  N2  UNL     1      22.276   5.512  51.092  1.00  0.00    -0.075 NA
HETATM    8  C7  UNL     1      21.179   4.814  51.528  1.00  0.00     0.139 A 
HETATM    9  C8  UNL     1      21.246   3.548  52.089  1.00  0.00     0.053 A 
HETATM   10  C9  UNL     1      22.533   3.075  52.157  1.00  0.00     0.089 A 
HETATM   11  N3  UNL     1      23.600   3.741  51.738  1.00  0.00    -0.062 NA
HETATM   12  C10 UNL     1      22.858   1.773  52.722  1.00  0.00     0.018 A 
HETATM   13  C11 UNL     1      21.807   0.903  52.906  1.00  0.00     0.017 A 
HETATM   14  C12 UNL     1      21.990  -0.377  53.446  1.00  0.00     0.020 A 
HETATM   15  C13 UNL     1      23.272  -0.766  53.803  1.00  0.00     0.117 A 
HETATM   16  N4  UNL     1      24.272   0.109  53.609  1.00  0.00    -0.264 NA
HETATM   17  C14 UNL     1      24.121   1.339  53.093  1.00  0.00     0.051 A 
HETATM   18  C15 UNL     1      25.403   2.044  53.000  1.00  0.00     0.101 C 
HETATM   19  H5  UNL     1      24.930   5.968  51.621  1.00  0.00     0.183 HD
ENDROOT
BRANCH   1  20
HETATM   20  C1  UNL     1      26.758   0.203  52.170  1.00  0.00     0.266 C 
HETATM   21  O1  UNL     1      27.669  -0.146  52.962  1.00  0.00    -0.302 OA
ENDBRANCH   1  20
TORSDOF 1
ENDMDL
MODEL 5
REMARK VINA RESULT:      -7.6      2.203      4.471
REMARK  1 active torsions:
REMARK  status: ('A' for Active; 'I' for Inactive)
REMARK    1  A    between atoms: C1_2  and  C2_3 
ROOT
HETATM    1  C2  UNL     1      22.041  -0.179  53.793  1.00  0.00    -0.015 C 
HETATM    2  C3  UNL     1      20.930   0.530  53.674  1.00  0.00     0.012 C 
HETATM    3  C4  UNL     1      20.317   1.323  52.632  1.00  0.00     0.018 C 
HETATM    4  C5  UNL     1      20.513   1.720  51.399  1.00  0.00     0.106 C 
HETATM    5  N1  UNL     1      21.424   1.636  50.323  1.00  0.00    -0.198 N 
HETATM    6  C6  UNL     1      22.672   2.265  50.164  1.00  0.00     0.726 A 
HETATM    7  N2  UNL     1      23.347   3.132  49.404  1.00  0.00    -0.075 NA
HETATM    8  C7  UNL     1      24.656   3.399  49.710  1.00  0.00     0.139 A 
HETATM    9  C8  UNL     1      25.332   2.819  50.772  1.00  0.00     0.053 A 
HETATM   10  C9  UNL     1      24.542   1.950  51.481  1.00  0.00     0.089 A 
HETATM   11  N3  UNL     1      23.275   1.685  51.194  1.00  0.00    -0.062 NA
HETATM   12  C10 UNL     1      25.034   1.207  52.633  1.00  0.00     0.018 A 
HETATM   13  C11 UNL     1      26.225   1.633  53.175  1.00  0.00     0.017 A 
HETATM   14  C12 UNL     1      26.805   0.999  54.281  1.00  0.00     0.020 A 
HETATM   15  C13 UNL     1      26.151  -0.091  54.836  1.00  0.00     0.117 A 
HETATM   16  N4  UNL     1      24.991  -0.477  54.280  1.00  0.00    -0.264 NA
HETATM   17  C14 UNL     1      24.417   0.115  53.221  1.00  0.00     0.051 A 
HETATM   18  C15 UNL     1      23.153  -0.536  52.861  1.00  0.00     0.101 C 
HETATM   19  H5  UNL     1      21.461   1.139  49.418  1.00  0.00     0.183 HD
ENDROOT
BRANCH   1  20
HETATM   20  C1  UNL     1      22.262  -0.839  55.104  1.00  0.00     0.266 C 
HETATM   21  O1  UNL     1      22.211  -2.058  55.406  1.00  0.00    -0.302 OA
ENDBRANCH   1  20
TORSDOF 1
ENDMDL
MODEL 6
REMARK VINA RESULT:      -7.1      2.711      4.777
REMARK  1 active torsions:
REMARK  status: ('A' for Active; 'I' for Inactive)
REMARK    1  A    between atoms: C1_2  and  C2_3 
ROOT
HETATM    1  C2  UNL     1      25.220   2.945  51.222  1.00  0.00    -0.015 C 
HETATM    2  C3  UNL     1      25.074   3.463  50.012  1.00  0.00     0.012 C 
HETATM    3  C4  UNL     1      24.089   4.295  49.357  1.00  0.00     0.018 C 
HETATM    4  C5  UNL     1      22.951   4.904  49.581  1.00  0.00     0.106 C 
HETATM    5  N1  UNL     1      21.976   5.131  50.577  1.00  0.00    -0.198 N 
HETATM    6  C6  UNL     1      20.999   4.253  51.080  1.00  0.00     0.726 A 
HETATM    7  N2  UNL     1      19.681   4.068  51.197  1.00  0.00    -0.075 NA
HETATM    8  C7  UNL     1      19.226   2.952  51.851  1.00  0.00     0.139 A 
HETATM    9  C8  UNL     1      20.058   1.992  52.405  1.00  0.00     0.053 A 
HETATM   10  C9  UNL     1      21.386   2.285  52.224  1.00  0.00     0.089 A 
HETATM   11  N3  UNL     1      21.837   3.360  51.593  1.00  0.00    -0.062 NA
HETATM   12  C10 UNL     1      22.452   1.432  52.731  1.00  0.00     0.018 A 
HETATM   13  C11 UNL     1      22.088   0.167  53.130  1.00  0.00     0.017 A 
HETATM   14  C12 UNL     1      23.020  -0.747  53.641  1.00  0.00     0.020 A 
HETATM   15  C13 UNL     1      24.345  -0.351  53.743  1.00  0.00     0.117 A 
HETATM   16  N4  UNL     1      24.662   0.891  53.343  1.00  0.00    -0.264 NA
HETATM   17  C14 UNL     1      23.788   1.782  52.851  1.00  0.00     0.051 A 
HETATM   18  C15 UNL     1      24.447   3.044  52.496  1.00  0.00     0.101 C 
HETATM   19  H5  UNL     1      21.704   5.922  51.184  1.00  0.00     0.183 HD
ENDROOT
BRANCH   1  20
HETATM   20  C1  UNL     1      26.432   2.118  51.440  1.00  0.00     0.266 C 
HETATM   21  O1  UNL     1      27.548   2.443  51.920  1.00  0.00    -0.302 OA
ENDBRANCH   1  20
TORSDOF 1
ENDMDL
MODEL 7
REMARK VINA RESULT:      -6.9      2.375      4.866
REMARK  1 active torsions:
REMARK  status: ('A' for Active; 'I' for Inactive)
REMARK    1  A    between atoms: C1_2  and  C2_3 
ROOT
HETATM    1  C2  UNL     1      19.534   1.997  50.920  1.00  0.00    -0.015 C 
HETATM    2  C3  UNL     1      18.757   0.962  50.641  1.00  0.00     0.012 C 
HETATM    3  C4  UNL     1      18.346  -0.238  51.336  1.00  0.00     0.018 C 
HETATM    4  C5  UNL     1      18.508  -0.869  52.472  1.00  0.00     0.106 C 
HETATM    5  N1  UNL     1      19.171  -0.790  53.716  1.00  0.00    -0.198 N 
HETATM    6  C6  UNL     1      20.530  -1.001  54.013  1.00  0.00     0.726 A 
HETATM    7  N2  UNL     1      21.369  -1.775  54.708  1.00  0.00    -0.075 NA
HETATM    8  C7  UNL     1      22.713  -1.510  54.651  1.00  0.00     0.139 A 
HETATM    9  C8  UNL     1      23.263  -0.477  53.907  1.00  0.00     0.053 A 
HETATM   10  C9  UNL     1      22.310   0.248  53.237  1.00  0.00     0.089 A 
HETATM   11  N3  UNL     1      21.009   0.000  53.285  1.00  0.00    -0.062 NA
HETATM   12  C10 UNL     1      22.643   1.393  52.402  1.00  0.00     0.018 A 
HETATM   13  C11 UNL     1      23.968   1.539  52.060  1.00  0.00     0.017 A 
HETATM   14  C12 UNL     1      24.417   2.602  51.265  1.00  0.00     0.020 A 
HETATM   15  C13 UNL     1      23.487   3.529  50.817  1.00  0.00     0.117 A 
HETATM   16  N4  UNL     1      22.204   3.353  51.170  1.00  0.00    -0.264 NA
HETATM   17  C14 UNL     1      21.752   2.343  51.930  1.00  0.00     0.051 A 
HETATM   18  C15 UNL     1      20.301   2.427  52.128  1.00  0.00     0.101 C 
HETATM   19  H5  UNL     1      18.901  -0.574  54.690  1.00  0.00     0.183 HD
ENDROOT
BRANCH   1  20
HETATM   20  C1  UNL     1      19.669   3.023  49.857  1.00  0.00     0.266 C 
HETATM   21  O1  UNL     1      19.891   2.879  48.628  1.00  0.00    -0.302 OA
ENDBRANCH   1  20
TORSDOF 1
ENDMDL
MODEL 8
REMARK VINA RESULT:      -6.8      2.028      3.378
REMARK  1 active torsions:
REMARK  status: ('A' for Active; 'I' for Inactive)
REMARK    1  A    between atoms: C1_2  and  C2_3 
ROOT
HETATM    1  C2  UNL     1      22.439   2.793  50.589  1.00  0.00    -0.015 C 
HETATM    2  C3  UNL     1      23.222   3.478  51.408  1.00  0.00     0.012 C 
HETATM    3  C4  UNL     1      24.140   3.148  52.475  1.00  0.00     0.018 C 
HETATM    4  C5  UNL     1      24.625   2.120  53.126  1.00  0.00     0.106 C 
HETATM    5  N1  UNL     1      24.565   0.712  53.209  1.00  0.00    -0.198 N 
HETATM    6  C6  UNL     1      23.548  -0.104  53.738  1.00  0.00     0.726 A 
HETATM    7  N2  UNL     1      23.281  -1.002  54.690  1.00  0.00    -0.075 NA
HETATM    8  C7  UNL     1      22.022  -1.542  54.754  1.00  0.00     0.139 A 
HETATM    9  C8  UNL     1      20.997  -1.209  53.882  1.00  0.00     0.053 A 
HETATM   10  C9  UNL     1      21.385  -0.280  52.951  1.00  0.00     0.089 A 
HETATM   11  N3  UNL     1      22.599   0.249  52.880  1.00  0.00    -0.062 NA
HETATM   12  C10 UNL     1      20.486   0.216  51.918  1.00  0.00     0.018 A 
HETATM   13  C11 UNL     1      19.146  -0.047  52.093  1.00  0.00     0.017 A 
HETATM   14  C12 UNL     1      18.181   0.372  51.167  1.00  0.00     0.020 A 
HETATM   15  C13 UNL     1      18.602   1.071  50.046  1.00  0.00     0.117 A 
HETATM   16  N4  UNL     1      19.917   1.308  49.909  1.00  0.00    -0.264 NA
HETATM   17  C14 UNL     1      20.858   0.917  50.782  1.00  0.00     0.051 A 
HETATM   18  C15 UNL     1      22.196   1.338  50.355  1.00  0.00     0.101 C 
HETATM   19  H5  UNL     1      25.175  -0.075  52.934  1.00  0.00     0.183 HD
ENDROOT
BRANCH   1  20
HETATM   20  C1  UNL     1      21.640   3.590  49.625  1.00  0.00     0.266 C 
HETATM   21  O1  UNL     1      20.947   4.621  49.817  1.00  0.00    -0.302 OA
ENDBRANCH   1  20
TORSDOF 1
ENDMDL
MODEL 9
REMARK VINA RESULT:      -6.5      7.841     10.597
REMARK  1 active torsions:
REMARK  status: ('A' for Active; 'I' for Inactive)
REMARK    1  A    between atoms: C1_2  and  C2_3 
ROOT
HETATM    1  C2  UNL     1      27.350   6.327  48.544  1.00  0.00    -0.015 C 
HETATM    2  C3  UNL     1      26.275   6.705  49.217  1.00  0.00     0.012 C 
HETATM    3  C4  UNL     1      25.576   7.953  49.431  1.00  0.00     0.018 C 
HETATM    4  C5  UNL     1      25.629   9.223  49.114  1.00  0.00     0.106 C 
HETATM    5  N1  UNL     1      26.383  10.168  48.386  1.00  0.00    -0.198 N 
HETATM    6  C6  UNL     1      27.633  10.737  48.694  1.00  0.00     0.726 A 
HETATM    7  N2  UNL     1      28.248  11.891  48.964  1.00  0.00    -0.075 NA
HETATM    8  C7  UNL     1      29.600  11.880  49.194  1.00  0.00     0.139 A 
HETATM    9  C8  UNL     1      30.377  10.732  49.165  1.00  0.00     0.053 A 
HETATM   10  C9  UNL     1      29.639   9.611  48.880  1.00  0.00     0.089 A 
HETATM   11  N3  UNL     1      28.333   9.609  48.656  1.00  0.00    -0.062 NA
HETATM   12  C10 UNL     1      30.236   8.287  48.779  1.00  0.00     0.018 A 
HETATM   13  C11 UNL     1      31.511   8.148  49.280  1.00  0.00     0.017 A 
HETATM   14  C12 UNL     1      32.196   6.927  49.238  1.00  0.00     0.020 A 
HETATM   15  C13 UNL     1      31.560   5.832  48.671  1.00  0.00     0.117 A 
HETATM   16  N4  UNL     1      30.317   6.005  48.194  1.00  0.00    -0.264 NA
HETATM   17  C14 UNL     1      29.642   7.165  48.223  1.00  0.00     0.051 A 
HETATM   18  C15 UNL     1      28.307   7.025  47.633  1.00  0.00     0.101 C 
HETATM   19  H5  UNL     1      26.271  10.681  47.495  1.00  0.00     0.183 HD
ENDROOT
BRANCH   1  20
HETATM   20  C1  UNL     1      27.705   4.889  48.627  1.00  0.00     0.266 C 
HETATM   21  O1  UNL     1      27.238   3.990  49.370  1.00  0.00    -0.302 OA
ENDBRANCH   1  20
TORSDOF 1
ENDMDL
