MODEL 1
REMARK VINA RESULT:      -8.1      0.000      0.000
REMARK  3 active torsions:
REMARK  status: ('A' for Active; 'I' for Inactive)
REMARK    1  A    between atoms: C2_2  and  C3_3 
REMARK    2  A    between atoms: C5_6  and  O2_7 
REMARK    3  A    between atoms: C8_10  and  C9_11 
ROOT
HETATM    1  C9  UNL     1      25.411   1.995  51.945  1.00  0.00    -0.066 C 
HETATM    2  C10 UNL     1      26.052   2.624  50.915  1.00  0.00     0.029 C 
HETATM    3  C11 UNL     1      25.988   3.960  50.258  1.00  0.00     0.049 C 
HETATM    4 CL1  UNL     1      27.189   4.069  48.949  1.00  0.00    -0.083 Cl
HETATM    5  C12 UNL     1      25.258   5.068  50.419  1.00  0.00     0.106 C 
HETATM    6  N1  UNL     1      24.200   5.721  51.168  1.00  0.00    -0.397 N 
HETATM    7  C13 UNL     1      22.833   5.437  51.504  1.00  0.00     0.119 C 
HETATM    8  C14 UNL     1      22.531   4.392  52.494  1.00  0.00     0.020 C 
HETATM    9  C15 UNL     1      23.111   3.012  52.222  1.00  0.00     0.006 C 
HETATM   10  C16 UNL     1      24.589   3.091  52.398  1.00  0.00     0.035 C 
HETATM   11  H14 UNL     1      24.508   6.650  51.601  1.00  0.00     0.158 HD
ENDROOT
BRANCH   1  12
HETATM   12  C8  UNL     1      25.672   0.617  52.388  1.00  0.00     0.072 A 
HETATM   13  C3  UNL     1      24.664  -0.025  53.215  1.00  0.00    -0.046 A 
HETATM   14  C4  UNL     1      25.145  -0.619  54.327  1.00  0.00     0.148 A 
HETATM   15  O1  UNL     1      26.473  -0.697  54.800  1.00  0.00    -0.300 OA
HETATM   16  C5  UNL     1      27.468  -0.092  54.047  1.00  0.00     0.181 A 
HETATM   17  C7  UNL     1      27.028   0.488  52.960  1.00  0.00     0.051 A 
BRANCH  13  18
HETATM   18  C2  UNL     1      23.206  -0.176  53.086  1.00  0.00     0.033 C 
HETATM   19  C1  UNL     1      22.594  -0.831  54.332  1.00  0.00     0.010 C 
ENDBRANCH  13  18
BRANCH  16  20
HETATM   20  O2  UNL     1      28.821  -0.051  54.332  1.00  0.00    -0.336 OA
HETATM   21  C6  UNL     1      29.738  -0.825  53.583  1.00  0.00     0.212 C 
ENDBRANCH  16  20
ENDBRANCH   1  12
TORSDOF 3
ENDMDL
MODEL 2
REMARK VINA RESULT:      -7.8      1.816      2.600
REMARK  3 active torsions:
REMARK  status: ('A' for Active; 'I' for Inactive)
REMARK    1  A    between atoms: C2_2  and  C3_3 
REMARK    2  A    between atoms: C5_6  and  O2_7 
REMARK    3  A    between atoms: C8_10  and  C9_11 
ROOT
HETATM    1  C9  UNL     1      24.796   1.410  51.942  1.00  0.00    -0.066 C 
HETATM    2  C10 UNL     1      23.671   2.140  52.205  1.00  0.00     0.029 C 
HETATM    3  C11 UNL     1      23.021   3.362  51.652  1.00  0.00     0.049 C 
HETATM    4 CL1  UNL     1      21.509   3.712  52.522  1.00  0.00    -0.083 Cl
HETATM    5  C12 UNL     1      23.302   4.233  50.679  1.00  0.00     0.106 C 
HETATM    6  N1  UNL     1      24.227   4.616  49.629  1.00  0.00    -0.397 N 
HETATM    7  C13 UNL     1      25.632   4.899  49.529  1.00  0.00     0.119 C 
HETATM    8  C14 UNL     1      26.602   3.797  49.621  1.00  0.00     0.020 C 
HETATM    9  C15 UNL     1      26.515   2.919  50.861  1.00  0.00     0.006 C 
HETATM   10  C16 UNL     1      25.257   2.126  50.776  1.00  0.00     0.035 C 
HETATM   11  H14 UNL     1      23.758   4.700  48.670  1.00  0.00     0.158 HD
ENDROOT
BRANCH   1  12
HETATM   12  C8  UNL     1      25.219   0.212  52.682  1.00  0.00     0.072 A 
HETATM   13  C3  UNL     1      24.226  -0.452  53.511  1.00  0.00    -0.046 A 
HETATM   14  C4  UNL     1      24.638  -0.729  54.765  1.00  0.00     0.148 A 
HETATM   15  O1  UNL     1      25.879  -0.463  55.383  1.00  0.00    -0.300 OA
HETATM   16  C5  UNL     1      26.854   0.175  54.632  1.00  0.00     0.181 A 
HETATM   17  C7  UNL     1      26.482   0.453  53.410  1.00  0.00     0.051 A 
BRANCH  13  18
HETATM   18  C2  UNL     1      22.848  -0.901  53.261  1.00  0.00     0.033 C 
HETATM   19  C1  UNL     1      21.926  -0.581  54.446  1.00  0.00     0.010 C 
ENDBRANCH  13  18
BRANCH  16  20
HETATM   20  O2  UNL     1      28.127   0.527  55.045  1.00  0.00    -0.336 OA
HETATM   21  C6  UNL     1      29.248   0.267  54.222  1.00  0.00     0.212 C 
ENDBRANCH  16  20
ENDBRANCH   1  12
TORSDOF 3
ENDMDL
MODEL 3
REMARK VINA RESULT:      -7.5      2.903      4.404
REMARK  3 active torsions:
REMARK  status: ('A' for Active; 'I' for Inactive)
REMARK    1  A    between atoms: C2_2  and  C3_3 
REMARK    2  A    between atoms: C5_6  and  O2_7 
REMARK    3  A    between atoms: C8_10  and  C9_11 
ROOT
HETATM    1  C9  UNL     1      23.607   1.346  51.847  1.00  0.00    -0.066 C 
HETATM    2  C10 UNL     1      24.855   0.915  52.197  1.00  0.00     0.029 C 
HETATM    3  C11 UNL     1      26.254   1.402  52.028  1.00  0.00     0.049 C 
HETATM    4 CL1  UNL     1      27.402   0.281  52.798  1.00  0.00    -0.083 Cl
HETATM    5  C12 UNL     1      26.832   2.458  51.448  1.00  0.00     0.106 C 
HETATM    6  N1  UNL     1      26.634   3.684  50.697  1.00  0.00    -0.397 N 
HETATM    7  C13 UNL     1      25.987   4.064  49.472  1.00  0.00     0.119 C 
HETATM    8  C14 UNL     1      24.518   4.097  49.408  1.00  0.00     0.020 C 
HETATM    9  C15 UNL     1      23.794   2.816  49.796  1.00  0.00     0.006 C 
HETATM   10  C16 UNL     1      23.966   2.616  51.263  1.00  0.00     0.035 C 
HETATM   11  H14 UNL     1      27.065   4.540  51.176  1.00  0.00     0.158 HD
ENDROOT
BRANCH   1  12
HETATM   12  C8  UNL     1      22.354   0.634  52.139  1.00  0.00     0.072 A 
HETATM   13  C3  UNL     1      21.143   1.429  52.261  1.00  0.00    -0.046 A 
HETATM   14  C4  UNL     1      20.404   1.162  53.358  1.00  0.00     0.148 A 
HETATM   15  O1  UNL     1      20.642   0.237  54.398  1.00  0.00    -0.300 OA
HETATM   16  C5  UNL     1      21.790  -0.538  54.327  1.00  0.00     0.181 A 
HETATM   17  C7  UNL     1      22.522  -0.302  53.270  1.00  0.00     0.051 A 
BRANCH  13  18
HETATM   18  C2  UNL     1      20.537   2.473  51.419  1.00  0.00     0.033 C 
HETATM   19  C1  UNL     1      20.209   1.946  50.014  1.00  0.00     0.010 C 
ENDBRANCH  13  18
BRANCH  16  20
HETATM   20  O2  UNL     1      22.207  -1.495  55.235  1.00  0.00    -0.336 OA
HETATM   21  C6  UNL     1      23.536  -1.495  55.721  1.00  0.00     0.212 C 
ENDBRANCH  16  20
ENDBRANCH   1  12
TORSDOF 3
ENDMDL
MODEL 4
REMARK VINA RESULT:      -7.5      3.155      4.783
REMARK  3 active torsions:
REMARK  status: ('A' for Active; 'I' for Inactive)
REMARK    1  A    between atoms: C2_2  and  C3_3 
REMARK    2  A    between atoms: C5_6  and  O2_7 
REMARK    3  A    between atoms: C8_10  and  C9_11 
ROOT
HETATM    1  C9  UNL     1      23.581   1.835  52.608  1.00  0.00    -0.066 C 
HETATM    2  C10 UNL     1      23.296   0.776  53.423  1.00  0.00     0.029 C 
HETATM    3  C11 UNL     1      22.137  -0.134  53.647  1.00  0.00     0.049 C 
HETATM    4 CL1  UNL     1      22.522  -1.335  54.903  1.00  0.00    -0.083 Cl
HETATM    5  C12 UNL     1      20.908  -0.256  53.137  1.00  0.00     0.106 C 
HETATM    6  N1  UNL     1      19.934   0.259  52.193  1.00  0.00    -0.397 N 
HETATM    7  C13 UNL     1      19.325   1.530  51.912  1.00  0.00     0.119 C 
HETATM    8  C14 UNL     1      20.119   2.589  51.270  1.00  0.00     0.020 C 
HETATM    9  C15 UNL     1      21.417   2.976  51.963  1.00  0.00     0.006 C 
HETATM   10  C16 UNL     1      22.372   1.841  51.820  1.00  0.00     0.035 C 
HETATM   11  H14 UNL     1      19.579  -0.487  51.512  1.00  0.00     0.158 HD
ENDROOT
BRANCH   1  12
HETATM   12  C8  UNL     1      24.846   2.585  52.607  1.00  0.00     0.072 A 
HETATM   13  C3  UNL     1      25.504   2.792  51.327  1.00  0.00    -0.046 A 
HETATM   14  C4  UNL     1      26.818   2.489  51.317  1.00  0.00     0.148 A 
HETATM   15  O1  UNL     1      27.636   1.998  52.358  1.00  0.00    -0.300 OA
HETATM   16  C5  UNL     1      27.049   1.779  53.595  1.00  0.00     0.181 A 
HETATM   17  C7  UNL     1      25.774   2.069  53.634  1.00  0.00     0.051 A 
BRANCH  13  18
HETATM   18  C2  UNL     1      25.031   3.280  50.022  1.00  0.00     0.033 C 
HETATM   19  C1  UNL     1      26.025   4.268  49.395  1.00  0.00     0.010 C 
ENDBRANCH  13  18
BRANCH  16  20
HETATM   20  O2  UNL     1      27.666   1.304  54.739  1.00  0.00    -0.336 OA
HETATM   21  C6  UNL     1      28.526   0.182  54.679  1.00  0.00     0.212 C 
ENDBRANCH  16  20
ENDBRANCH   1  12
TORSDOF 3
ENDMDL
MODEL 5
REMARK VINA RESULT:      -7.5      4.008      6.879
REMARK  3 active torsions:
REMARK  status: ('A' for Active; 'I' for Inactive)
REMARK    1  A    between atoms: C2_2  and  C3_3 
REMARK    2  A    between atoms: C5_6  and  O2_7 
REMARK    3  A    between atoms: C8_10  and  C9_11 
ROOT
HETATM    1  C9  UNL     1      23.697   1.499  52.390  1.00  0.00    -0.066 C 
HETATM    2  C10 UNL     1      23.139   0.519  53.160  1.00  0.00     0.029 C 
HETATM    3  C11 UNL     1      23.627  -0.509  54.123  1.00  0.00     0.049 C 
HETATM    4 CL1  UNL     1      22.264  -1.450  54.775  1.00  0.00    -0.083 Cl
HETATM    5  C12 UNL     1      24.819  -0.878  54.600  1.00  0.00     0.106 C 
HETATM    6  N1  UNL     1      26.252  -0.650  54.583  1.00  0.00    -0.397 N 
HETATM    7  C13 UNL     1      27.286  -0.593  53.587  1.00  0.00     0.119 C 
HETATM    8  C14 UNL     1      27.356   0.562  52.679  1.00  0.00     0.020 C 
HETATM    9  C15 UNL     1      26.096   0.876  51.884  1.00  0.00     0.006 C 
HETATM   10  C16 UNL     1      25.065   1.379  52.835  1.00  0.00     0.035 C 
HETATM   11  H14 UNL     1      26.656  -0.459  55.556  1.00  0.00     0.158 HD
ENDROOT
BRANCH   1  12
HETATM   12  C8  UNL     1      22.955   2.391  51.487  1.00  0.00     0.072 A 
HETATM   13  C3  UNL     1      23.525   3.701  51.218  1.00  0.00    -0.046 A 
HETATM   14  C4  UNL     1      22.659   4.728  51.354  1.00  0.00     0.148 A 
HETATM   15  O1  UNL     1      21.296   4.711  51.721  1.00  0.00    -0.300 OA
HETATM   16  C5  UNL     1      20.713   3.483  51.994  1.00  0.00     0.181 A 
HETATM   17  C7  UNL     1      21.529   2.470  51.866  1.00  0.00     0.051 A 
BRANCH  13  18
HETATM   18  C2  UNL     1      24.867   4.149  50.814  1.00  0.00     0.033 C 
HETATM   19  C1  UNL     1      25.289   3.528  49.475  1.00  0.00     0.010 C 
ENDBRANCH  13  18
BRANCH  16  20
HETATM   20  O2  UNL     1      19.402   3.248  52.370  1.00  0.00    -0.336 OA
HETATM   21  C6  UNL     1      18.336   3.547  51.490  1.00  0.00     0.212 C 
ENDBRANCH  16  20
ENDBRANCH   1  12
TORSDOF 3
ENDMDL
MODEL 6
REMARK VINA RESULT:      -7.4      2.770      4.657
REMARK  3 active torsions:
REMARK  status: ('A' for Active; 'I' for Inactive)
REMARK    1  A    between atoms: C2_2  and  C3_3 
REMARK    2  A    between atoms: C5_6  and  O2_7 
REMARK    3  A    between atoms: C8_10  and  C9_11 
ROOT
HETATM    1  C9  UNL     1      23.417   1.905  52.240  1.00  0.00    -0.066 C 
HETATM    2  C10 UNL     1      22.855   1.631  51.026  1.00  0.00     0.029 C 
HETATM    3  C11 UNL     1      21.604   0.985  50.535  1.00  0.00     0.049 C 
HETATM    4 CL1  UNL     1      21.546   1.012  48.756  1.00  0.00    -0.083 Cl
HETATM    5  C12 UNL     1      20.543   0.407  51.105  1.00  0.00     0.106 C 
HETATM    6  N1  UNL     1      19.894   0.026  52.346  1.00  0.00    -0.397 N 
HETATM    7  C13 UNL     1      20.242  -0.740  53.511  1.00  0.00     0.119 C 
HETATM    8  C14 UNL     1      21.195  -0.186  54.484  1.00  0.00     0.020 C 
HETATM    9  C15 UNL     1      22.549   0.242  53.938  1.00  0.00     0.006 C 
HETATM   10  C16 UNL     1      22.343   1.450  53.091  1.00  0.00     0.035 C 
HETATM   11  H14 UNL     1      18.904   0.422  52.437  1.00  0.00     0.158 HD
ENDROOT
BRANCH   1  12
HETATM   12  C8  UNL     1      24.717   2.562  52.441  1.00  0.00     0.072 A 
HETATM   13  C3  UNL     1      25.548   2.782  51.269  1.00  0.00    -0.046 A 
HETATM   14  C4  UNL     1      26.830   2.386  51.408  1.00  0.00     0.148 A 
HETATM   15  O1  UNL     1      27.471   1.789  52.515  1.00  0.00    -0.300 OA
HETATM   16  C5  UNL     1      26.716   1.554  53.654  1.00  0.00     0.181 A 
HETATM   17  C7  UNL     1      25.468   1.932  53.547  1.00  0.00     0.051 A 
BRANCH  13  18
HETATM   18  C2  UNL     1      25.281   3.364  49.944  1.00  0.00     0.033 C 
HETATM   19  C1  UNL     1      26.546   3.988  49.337  1.00  0.00     0.010 C 
ENDBRANCH  13  18
BRANCH  16  20
HETATM   20  O2  UNL     1      27.147   0.982  54.837  1.00  0.00    -0.336 OA
HETATM   21  C6  UNL     1      28.301   0.164  54.863  1.00  0.00     0.212 C 
ENDBRANCH  16  20
ENDBRANCH   1  12
TORSDOF 3
ENDMDL
MODEL 7
REMARK VINA RESULT:      -7.4      1.939      2.368
REMARK  3 active torsions:
REMARK  status: ('A' for Active; 'I' for Inactive)
REMARK    1  A    between atoms: C2_2  and  C3_3 
REMARK    2  A    between atoms: C5_6  and  O2_7 
REMARK    3  A    between atoms: C8_10  and  C9_11 
ROOT
HETATM    1  C9  UNL     1      23.711   0.788  52.156  1.00  0.00    -0.066 C 
HETATM    2  C10 UNL     1      24.340   1.839  51.551  1.00  0.00     0.029 C 
HETATM    3  C11 UNL     1      23.928   3.055  50.794  1.00  0.00     0.049 C 
HETATM    4 CL1  UNL     1      25.354   4.007  50.318  1.00  0.00    -0.083 Cl
HETATM    5  C12 UNL     1      22.766   3.584  50.400  1.00  0.00     0.106 C 
HETATM    6  N1  UNL     1      21.321   3.452  50.383  1.00  0.00    -0.397 N 
HETATM    7  C13 UNL     1      20.370   2.455  49.977  1.00  0.00     0.119 C 
HETATM    8  C14 UNL     1      20.210   1.234  50.781  1.00  0.00     0.020 C 
HETATM    9  C15 UNL     1      21.471   0.421  51.039  1.00  0.00     0.006 C 
HETATM   10  C16 UNL     1      22.343   1.204  51.959  1.00  0.00     0.035 C 
HETATM   11  H14 UNL     1      20.819   4.306  50.790  1.00  0.00     0.158 HD
ENDROOT
BRANCH   1  12
HETATM   12  C8  UNL     1      24.389  -0.322  52.843  1.00  0.00     0.072 A 
HETATM   13  C3  UNL     1      23.990  -0.609  54.211  1.00  0.00    -0.046 A 
HETATM   14  C4  UNL     1      25.015  -0.740  55.078  1.00  0.00     0.148 A 
HETATM   15  O1  UNL     1      26.405  -0.631  54.850  1.00  0.00    -0.300 OA
HETATM   16  C5  UNL     1      26.831  -0.351  53.561  1.00  0.00     0.181 A 
HETATM   17  C7  UNL     1      25.856  -0.223  52.699  1.00  0.00     0.051 A 
BRANCH  13  18
HETATM   18  C2  UNL     1      22.682  -0.801  54.857  1.00  0.00     0.033 C 
HETATM   19  C1  UNL     1      21.833  -1.843  54.115  1.00  0.00     0.010 C 
ENDBRANCH  13  18
BRANCH  16  20
HETATM   20  O2  UNL     1      28.136  -0.202  53.128  1.00  0.00    -0.336 OA
HETATM   21  C6  UNL     1      29.204  -0.787  53.849  1.00  0.00     0.212 C 
ENDBRANCH  16  20
ENDBRANCH   1  12
TORSDOF 3
ENDMDL
MODEL 8
REMARK VINA RESULT:      -7.4      3.768      5.661
REMARK  3 active torsions:
REMARK  status: ('A' for Active; 'I' for Inactive)
REMARK    1  A    between atoms: C2_2  and  C3_3 
REMARK    2  A    between atoms: C5_6  and  O2_7 
REMARK    3  A    between atoms: C8_10  and  C9_11 
ROOT
HETATM    1  C9  UNL     1      23.662   1.412  52.226  1.00  0.00    -0.066 C 
HETATM    2  C10 UNL     1      24.920   1.696  52.677  1.00  0.00     0.029 C 
HETATM    3  C11 UNL     1      25.881   1.099  53.647  1.00  0.00     0.049 C 
HETATM    4 CL1  UNL     1      27.390   2.042  53.691  1.00  0.00    -0.083 Cl
HETATM    5  C12 UNL     1      25.875   0.046  54.470  1.00  0.00     0.106 C 
HETATM    6  N1  UNL     1      25.127  -1.091  54.973  1.00  0.00    -0.397 N 
HETATM    7  C13 UNL     1      23.844  -1.307  55.582  1.00  0.00     0.119 C 
HETATM    8  C14 UNL     1      22.625  -1.200  54.765  1.00  0.00     0.020 C 
HETATM    9  C15 UNL     1      22.430   0.105  54.008  1.00  0.00     0.006 C 
HETATM   10  C16 UNL     1      23.452   0.167  52.925  1.00  0.00     0.035 C 
HETATM   11  H14 UNL     1      25.647  -2.019  54.852  1.00  0.00     0.158 HD
ENDROOT
BRANCH   1  12
HETATM   12  C8  UNL     1      22.917   2.208  51.240  1.00  0.00     0.072 A 
HETATM   13  C3  UNL     1      22.119   1.490  50.260  1.00  0.00    -0.046 A 
HETATM   14  C4  UNL     1      22.306   1.887  48.984  1.00  0.00     0.148 A 
HETATM   15  O1  UNL     1      23.162   2.886  48.470  1.00  0.00    -0.300 OA
HETATM   16  C5  UNL     1      23.947   3.592  49.368  1.00  0.00     0.181 A 
HETATM   17  C7  UNL     1      23.783   3.229  50.613  1.00  0.00     0.051 A 
BRANCH  13  18
HETATM   18  C2  UNL     1      21.127   0.409  50.370  1.00  0.00     0.033 C 
HETATM   19  C1  UNL     1      19.989   0.783  51.331  1.00  0.00     0.010 C 
ENDBRANCH  13  18
BRANCH  16  20
HETATM   20  O2  UNL     1      24.847   4.602  49.074  1.00  0.00    -0.336 OA
HETATM   21  C6  UNL     1      26.214   4.467  49.411  1.00  0.00     0.212 C 
ENDBRANCH  16  20
ENDBRANCH   1  12
TORSDOF 3
ENDMDL
MODEL 9
REMARK VINA RESULT:      -7.4      4.061      6.024
REMARK  3 active torsions:
REMARK  status: ('A' for Active; 'I' for Inactive)
REMARK    1  A    between atoms: C2_2  and  C3_3 
REMARK    2  A    between atoms: C5_6  and  O2_7 
REMARK    3  A    between atoms: C8_10  and  C9_11 
ROOT
HETATM    1  C9  UNL     1      23.784   1.359  52.319  1.00  0.00    -0.066 C 
HETATM    2  C10 UNL     1      23.249   0.419  53.154  1.00  0.00     0.029 C 
HETATM    3  C11 UNL     1      23.763  -0.526  54.186  1.00  0.00     0.049 C 
HETATM    4 CL1  UNL     1      22.424  -1.455  54.901  1.00  0.00    -0.083 Cl
HETATM    5  C12 UNL     1      24.963  -0.831  54.687  1.00  0.00     0.106 C 
HETATM    6  N1  UNL     1      26.390  -0.567  54.654  1.00  0.00    -0.397 N 
HETATM    7  C13 UNL     1      27.424  -0.551  53.657  1.00  0.00     0.119 C 
HETATM    8  C14 UNL     1      27.465   0.540  52.671  1.00  0.00     0.020 C 
HETATM    9  C15 UNL     1      26.199   0.765  51.857  1.00  0.00     0.006 C 
HETATM   10  C16 UNL     1      25.154   1.306  52.770  1.00  0.00     0.035 C 
HETATM   11  H14 UNL     1      26.786  -0.298  55.612  1.00  0.00     0.158 HD
ENDROOT
BRANCH   1  12
HETATM   12  C8  UNL     1      23.020   2.167  51.356  1.00  0.00     0.072 A 
HETATM   13  C3  UNL     1      22.186   1.460  50.398  1.00  0.00    -0.046 A 
HETATM   14  C4  UNL     1      22.341   1.857  49.118  1.00  0.00     0.148 A 
HETATM   15  O1  UNL     1      23.194   2.846  48.581  1.00  0.00    -0.300 OA
HETATM   16  C5  UNL     1      24.013   3.541  49.457  1.00  0.00     0.181 A 
HETATM   17  C7  UNL     1      23.880   3.178  50.707  1.00  0.00     0.051 A 
BRANCH  13  18
HETATM   18  C2  UNL     1      21.184   0.391  50.535  1.00  0.00     0.033 C 
HETATM   19  C1  UNL     1      19.986   0.845  51.380  1.00  0.00     0.010 C 
ENDBRANCH  13  18
BRANCH  16  20
HETATM   20  O2  UNL     1      24.917   4.540  49.139  1.00  0.00    -0.336 OA
HETATM   21  C6  UNL     1      26.291   4.388  49.436  1.00  0.00     0.212 C 
ENDBRANCH  16  20
ENDBRANCH   1  12
TORSDOF 3
ENDMDL
