MODEL 1
REMARK VINA RESULT:      -8.0      0.000      0.000
REMARK  2 active torsions:
REMARK  status: ('A' for Active; 'I' for Inactive)
REMARK    1  A    between atoms: C2_2  and  O1_3 
REMARK    2  A    between atoms: C2_2  and  C4_5 
ROOT
HETATM    1  C4  UNL     1      24.887   0.424  53.416  1.00  0.00     0.215 C 
HETATM    2  O2  UNL     1      24.102  -0.493  52.811  1.00  0.00    -0.374 OA
HETATM    3  C5  UNL     1      22.856  -0.649  53.124  1.00  0.00     0.173 C 
HETATM    4  C6  UNL     1      22.350  -1.311  54.404  1.00  0.00     0.055 C 
HETATM    5  C7  UNL     1      20.828  -1.233  54.107  1.00  0.00     0.002 C 
HETATM    6  C8  UNL     1      20.170  -0.634  53.086  1.00  0.00     0.069 C 
HETATM    7 CL1  UNL     1      18.508  -1.087  53.578  1.00  0.00    -0.081 Cl
HETATM    8  C9  UNL     1      20.122   0.230  51.907  1.00  0.00     0.139 C 
HETATM    9  F1  UNL     1      18.843   0.259  51.356  1.00  0.00    -0.204 F 
HETATM   10  C10 UNL     1      20.894   1.018  51.136  1.00  0.00     0.063 C 
HETATM   11  C11 UNL     1      22.184   1.626  50.805  1.00  0.00     0.122 C 
HETATM   12  N1  UNL     1      23.255   1.519  51.385  1.00  0.00    -0.241 NA
HETATM   13  C12 UNL     1      24.556   1.919  51.355  1.00  0.00     0.161 A 
HETATM   14  N2  UNL     1      25.109   2.762  50.470  1.00  0.00    -0.222 NA
HETATM   15  C13 UNL     1      26.395   3.149  50.507  1.00  0.00     0.235 A 
HETATM   16  N3  UNL     1      27.206   2.685  51.470  1.00  0.00    -0.253 NA
HETATM   17  C14 UNL     1      26.709   1.837  52.384  1.00  0.00     0.132 A 
HETATM   18  C15 UNL     1      25.394   1.419  52.375  1.00  0.00     0.042 A 
ENDROOT
BRANCH   1  19
HETATM   19  C2  UNL     1      26.061  -0.215  54.077  1.00  0.00     0.070 C 
HETATM   20  C1  UNL     1      26.502   0.247  55.238  1.00  0.00     0.049 C 
BRANCH  19  21
HETATM   21  O1  UNL     1      26.691  -1.296  53.474  1.00  0.00    -0.358 OA
HETATM   22  C3  UNL     1      28.085  -1.270  53.238  1.00  0.00     0.209 C 
ENDBRANCH  19  21
ENDBRANCH   1  19
TORSDOF 2
ENDMDL
MODEL 2
REMARK VINA RESULT:      -7.9      3.369      5.276
REMARK  2 active torsions:
REMARK  status: ('A' for Active; 'I' for Inactive)
REMARK    1  A    between atoms: C2_2  and  O1_3 
REMARK    2  A    between atoms: C2_2  and  C4_5 
ROOT
HETATM    1  C4  UNL     1      25.062   0.351  52.725  1.00  0.00     0.215 C 
HETATM    2  O2  UNL     1      25.360   1.657  52.893  1.00  0.00    -0.374 OA
HETATM    3  C5  UNL     1      25.508   2.465  51.894  1.00  0.00     0.173 C 
HETATM    4  C6  UNL     1      26.712   2.488  50.955  1.00  0.00     0.055 C 
HETATM    5  C7  UNL     1      26.285   3.696  50.077  1.00  0.00     0.002 C 
HETATM    6  C8  UNL     1      25.133   4.407  50.075  1.00  0.00     0.069 C 
HETATM    7 CL1  UNL     1      25.571   5.562  48.779  1.00  0.00    -0.081 Cl
HETATM    8  C9  UNL     1      23.753   4.635  50.501  1.00  0.00     0.139 C 
HETATM    9  F1  UNL     1      23.252   5.822  49.969  1.00  0.00    -0.204 F 
HETATM   10  C10 UNL     1      22.770   4.103  51.251  1.00  0.00     0.063 C 
HETATM   11  C11 UNL     1      22.253   3.057  52.136  1.00  0.00     0.122 C 
HETATM   12  N1  UNL     1      22.807   2.043  52.534  1.00  0.00    -0.241 NA
HETATM   13  C12 UNL     1      22.630   0.935  53.305  1.00  0.00     0.161 A 
HETATM   14  N2  UNL     1      21.511   0.592  53.960  1.00  0.00    -0.222 NA
HETATM   15  C13 UNL     1      21.381  -0.533  54.683  1.00  0.00     0.235 A 
HETATM   16  N3  UNL     1      22.411  -1.389  54.780  1.00  0.00    -0.253 NA
HETATM   17  C14 UNL     1      23.558  -1.098  54.146  1.00  0.00     0.132 A 
HETATM   18  C15 UNL     1      23.725   0.048  53.396  1.00  0.00     0.042 A 
ENDROOT
BRANCH   1  19
HETATM   19  C2  UNL     1      26.107  -0.528  53.325  1.00  0.00     0.070 C 
HETATM   20  C1  UNL     1      26.608  -1.536  52.626  1.00  0.00     0.049 C 
BRANCH  19  21
HETATM   21  O1  UNL     1      26.555  -0.288  54.617  1.00  0.00    -0.358 OA
HETATM   22  C3  UNL     1      27.875   0.166  54.843  1.00  0.00     0.209 C 
ENDBRANCH  19  21
ENDBRANCH   1  19
TORSDOF 2
ENDMDL
MODEL 3
REMARK VINA RESULT:      -7.6      2.233      4.032
REMARK  2 active torsions:
REMARK  status: ('A' for Active; 'I' for Inactive)
REMARK    1  A    between atoms: C2_2  and  O1_3 
REMARK    2  A    between atoms: C2_2  and  C4_5 
ROOT
HETATM    1  C4  UNL     1      24.035   2.235  51.471  1.00  0.00     0.215 C 
HETATM    2  O2  UNL     1      23.117   2.308  52.459  1.00  0.00    -0.374 OA
HETATM    3  C5  UNL     1      22.060   1.562  52.475  1.00  0.00     0.173 C 
HETATM    4  C6  UNL     1      20.846   1.741  51.566  1.00  0.00     0.055 C 
HETATM    5  C7  UNL     1      19.963   0.604  52.149  1.00  0.00     0.002 C 
HETATM    6  C8  UNL     1      20.256  -0.333  53.082  1.00  0.00     0.069 C 
HETATM    7 CL1  UNL     1      18.662  -1.151  53.101  1.00  0.00    -0.081 Cl
HETATM    8  C9  UNL     1      21.189  -1.039  53.959  1.00  0.00     0.139 C 
HETATM    9  F1  UNL     1      20.527  -1.983  54.742  1.00  0.00    -0.204 F 
HETATM   10  C10 UNL     1      22.489  -1.098  54.299  1.00  0.00     0.063 C 
HETATM   11  C11 UNL     1      23.874  -0.642  54.165  1.00  0.00     0.122 C 
HETATM   12  N1  UNL     1      24.334   0.213  53.422  1.00  0.00    -0.241 NA
HETATM   13  C12 UNL     1      25.488   0.838  53.061  1.00  0.00     0.161 A 
HETATM   14  N2  UNL     1      26.714   0.582  53.540  1.00  0.00    -0.222 NA
HETATM   15  C13 UNL     1      27.827   1.209  53.123  1.00  0.00     0.235 A 
HETATM   16  N3  UNL     1      27.747   2.156  52.174  1.00  0.00    -0.253 NA
HETATM   17  C14 UNL     1      26.544   2.456  51.658  1.00  0.00     0.132 A 
HETATM   18  C15 UNL     1      25.382   1.831  52.063  1.00  0.00     0.042 A 
ENDROOT
BRANCH   1  19
HETATM   19  C2  UNL     1      24.193   3.546  50.776  1.00  0.00     0.070 C 
HETATM   20  C1  UNL     1      24.387   3.582  49.466  1.00  0.00     0.049 C 
BRANCH  19  21
HETATM   21  O1  UNL     1      24.135   4.726  51.504  1.00  0.00    -0.358 OA
HETATM   22  C3  UNL     1      23.093   5.656  51.275  1.00  0.00     0.209 C 
ENDBRANCH  19  21
ENDBRANCH   1  19
TORSDOF 2
ENDMDL
MODEL 4
REMARK VINA RESULT:      -7.6      3.863      6.737
REMARK  2 active torsions:
REMARK  status: ('A' for Active; 'I' for Inactive)
REMARK    1  A    between atoms: C2_2  and  O1_3 
REMARK    2  A    between atoms: C2_2  and  C4_5 
ROOT
HETATM    1  C4  UNL     1      22.632   1.290  52.278  1.00  0.00     0.215 C 
HETATM    2  O2  UNL     1      23.805   0.765  51.865  1.00  0.00    -0.374 OA
HETATM    3  C5  UNL     1      24.946   1.247  52.238  1.00  0.00     0.173 C 
HETATM    4  C6  UNL     1      25.551   2.557  51.738  1.00  0.00     0.055 C 
HETATM    5  C7  UNL     1      26.900   2.485  52.505  1.00  0.00     0.002 C 
HETATM    6  C8  UNL     1      27.327   1.595  53.432  1.00  0.00     0.069 C 
HETATM    7 CL1  UNL     1      28.951   2.301  53.705  1.00  0.00    -0.081 Cl
HETATM    8  C9  UNL     1      27.112   0.473  54.345  1.00  0.00     0.139 C 
HETATM    9  F1  UNL     1      28.295   0.112  54.987  1.00  0.00    -0.204 F 
HETATM   10  C10 UNL     1      26.159  -0.367  54.790  1.00  0.00     0.063 C 
HETATM   11  C11 UNL     1      24.778  -0.852  54.801  1.00  0.00     0.122 C 
HETATM   12  N1  UNL     1      23.812  -0.437  54.177  1.00  0.00    -0.241 NA
HETATM   13  C12 UNL     1      22.481  -0.637  53.969  1.00  0.00     0.161 A 
HETATM   14  N2  UNL     1      21.710  -1.555  54.570  1.00  0.00    -0.222 NA
HETATM   15  C13 UNL     1      20.392  -1.686  54.349  1.00  0.00     0.235 A 
HETATM   16  N3  UNL     1      19.773  -0.870  53.481  1.00  0.00    -0.253 NA
HETATM   17  C14 UNL     1      20.495   0.069  52.848  1.00  0.00     0.132 A 
HETATM   18  C15 UNL     1      21.850   0.231  53.052  1.00  0.00     0.042 A 
ENDROOT
BRANCH   1  19
HETATM   19  C2  UNL     1      21.803   1.748  51.126  1.00  0.00     0.070 C 
HETATM   20  C1  UNL     1      21.864   1.106  49.968  1.00  0.00     0.049 C 
BRANCH  19  21
HETATM   21  O1  UNL     1      20.966   2.846  51.269  1.00  0.00    -0.358 OA
HETATM   22  C3  UNL     1      21.318   3.905  52.139  1.00  0.00     0.209 C 
ENDBRANCH  19  21
ENDBRANCH   1  19
TORSDOF 2
ENDMDL
MODEL 5
REMARK VINA RESULT:      -7.3      3.643      5.694
REMARK  2 active torsions:
REMARK  status: ('A' for Active; 'I' for Inactive)
REMARK    1  A    between atoms: C2_2  and  O1_3 
REMARK    2  A    between atoms: C2_2  and  C4_5 
ROOT
HETATM    1  C4  UNL     1      23.482   1.344  52.379  1.00  0.00     0.215 C 
HETATM    2  O2  UNL     1      23.438   1.575  51.050  1.00  0.00    -0.374 OA
HETATM    3  C5  UNL     1      23.359   2.769  50.559  1.00  0.00     0.173 C 
HETATM    4  C6  UNL     1      22.108   3.644  50.578  1.00  0.00     0.055 C 
HETATM    5  C7  UNL     1      22.673   4.857  49.790  1.00  0.00     0.002 C 
HETATM    6  C8  UNL     1      23.931   5.100  49.351  1.00  0.00     0.069 C 
HETATM    7 CL1  UNL     1      23.606   6.676  48.565  1.00  0.00    -0.081 Cl
HETATM    8  C9  UNL     1      25.359   4.793  49.282  1.00  0.00     0.139 C 
HETATM    9  F1  UNL     1      26.021   5.671  48.426  1.00  0.00    -0.204 F 
HETATM   10  C10 UNL     1      26.286   3.938  49.752  1.00  0.00     0.063 C 
HETATM   11  C11 UNL     1      26.676   2.789  50.571  1.00  0.00     0.122 C 
HETATM   12  N1  UNL     1      25.982   2.089  51.294  1.00  0.00    -0.241 NA
HETATM   13  C12 UNL     1      26.018   1.022  52.139  1.00  0.00     0.161 A 
HETATM   14  N2  UNL     1      27.105   0.319  52.486  1.00  0.00    -0.222 NA
HETATM   15  C13 UNL     1      27.087  -0.709  53.352  1.00  0.00     0.235 A 
HETATM   16  N3  UNL     1      25.932  -1.084  53.922  1.00  0.00    -0.253 NA
HETATM   17  C14 UNL     1      24.809  -0.417  53.611  1.00  0.00     0.132 A 
HETATM   18  C15 UNL     1      24.792   0.642  52.727  1.00  0.00     0.042 A 
ENDROOT
BRANCH   1  19
HETATM   19  C2  UNL     1      22.347   0.483  52.821  1.00  0.00     0.070 C 
HETATM   20  C1  UNL     1      21.674  -0.234  51.933  1.00  0.00     0.049 C 
BRANCH  19  21
HETATM   21  O1  UNL     1      21.999   0.432  54.163  1.00  0.00    -0.358 OA
HETATM   22  C3  UNL     1      21.264  -0.666  54.671  1.00  0.00     0.209 C 
ENDBRANCH  19  21
ENDBRANCH   1  19
TORSDOF 2
ENDMDL
MODEL 6
REMARK VINA RESULT:      -7.2      3.609      5.606
REMARK  2 active torsions:
REMARK  status: ('A' for Active; 'I' for Inactive)
REMARK    1  A    between atoms: C2_2  and  O1_3 
REMARK    2  A    between atoms: C2_2  and  C4_5 
ROOT
HETATM    1  C4  UNL     1      23.900   4.421  50.303  1.00  0.00     0.215 C 
HETATM    2  O2  UNL     1      24.041   4.092  51.605  1.00  0.00    -0.374 OA
HETATM    3  C5  UNL     1      23.621   2.966  52.082  1.00  0.00     0.173 C 
HETATM    4  C6  UNL     1      22.156   2.609  52.327  1.00  0.00     0.055 C 
HETATM    5  C7  UNL     1      22.372   1.203  52.950  1.00  0.00     0.002 C 
HETATM    6  C8  UNL     1      23.508   0.479  53.093  1.00  0.00     0.069 C 
HETATM    7 CL1  UNL     1      22.780  -0.942  53.905  1.00  0.00    -0.081 Cl
HETATM    8  C9  UNL     1      24.929   0.239  52.847  1.00  0.00     0.139 C 
HETATM    9  F1  UNL     1      25.371  -0.898  53.519  1.00  0.00    -0.204 F 
HETATM   10  C10 UNL     1      25.994   0.743  52.197  1.00  0.00     0.063 C 
HETATM   11  C11 UNL     1      26.614   1.748  51.330  1.00  0.00     0.122 C 
HETATM   12  N1  UNL     1      26.102   2.719  50.791  1.00  0.00    -0.241 NA
HETATM   13  C12 UNL     1      26.365   3.778  49.978  1.00  0.00     0.161 A 
HETATM   14  N2  UNL     1      27.543   4.071  49.408  1.00  0.00    -0.222 NA
HETATM   15  C13 UNL     1      27.738   5.115  48.586  1.00  0.00     0.235 A 
HETATM   16  N3  UNL     1      26.718   5.937  48.293  1.00  0.00    -0.253 NA
HETATM   17  C14 UNL     1      25.514   5.694  48.835  1.00  0.00     0.132 A 
HETATM   18  C15 UNL     1      25.280   4.632  49.684  1.00  0.00     0.042 A 
ENDROOT
BRANCH   1  19
HETATM   19  C2  UNL     1      23.108   5.674  50.140  1.00  0.00     0.070 C 
HETATM   20  C1  UNL     1      22.182   5.754  49.196  1.00  0.00     0.049 C 
BRANCH  19  21
HETATM   21  O1  UNL     1      23.340   6.754  50.980  1.00  0.00    -0.358 OA
HETATM   22  C3  UNL     1      23.382   8.069  50.459  1.00  0.00     0.209 C 
ENDBRANCH  19  21
ENDBRANCH   1  19
TORSDOF 2
ENDMDL
MODEL 7
REMARK VINA RESULT:      -7.1      2.920      4.599
REMARK  2 active torsions:
REMARK  status: ('A' for Active; 'I' for Inactive)
REMARK    1  A    between atoms: C2_2  and  O1_3 
REMARK    2  A    between atoms: C2_2  and  C4_5 
ROOT
HETATM    1  C4  UNL     1      25.896   1.039  52.586  1.00  0.00     0.215 C 
HETATM    2  O2  UNL     1      25.333   2.261  52.477  1.00  0.00    -0.374 OA
HETATM    3  C5  UNL     1      24.893   2.719  51.350  1.00  0.00     0.173 C 
HETATM    4  C6  UNL     1      25.769   3.207  50.198  1.00  0.00     0.055 C 
HETATM    5  C7  UNL     1      24.639   3.667  49.238  1.00  0.00     0.002 C 
HETATM    6  C8  UNL     1      23.295   3.537  49.351  1.00  0.00     0.069 C 
HETATM    7 CL1  UNL     1      22.851   4.359  47.822  1.00  0.00    -0.081 Cl
HETATM    8  C9  UNL     1      22.096   3.010  50.000  1.00  0.00     0.139 C 
HETATM    9  F1  UNL     1      20.940   3.496  49.393  1.00  0.00    -0.204 F 
HETATM   10  C10 UNL     1      21.697   2.212  51.008  1.00  0.00     0.063 C 
HETATM   11  C11 UNL     1      21.987   1.326  52.137  1.00  0.00     0.122 C 
HETATM   12  N1  UNL     1      23.071   0.970  52.576  1.00  0.00    -0.241 NA
HETATM   13  C12 UNL     1      23.660   0.206  53.537  1.00  0.00     0.161 A 
HETATM   14  N2  UNL     1      23.032  -0.550  54.448  1.00  0.00    -0.222 NA
HETATM   15  C13 UNL     1      23.666  -1.311  55.356  1.00  0.00     0.235 A 
HETATM   16  N3  UNL     1      25.008  -1.342  55.384  1.00  0.00    -0.253 NA
HETATM   17  C14 UNL     1      25.692  -0.603  54.495  1.00  0.00     0.132 A 
HETATM   18  C15 UNL     1      25.072   0.189  53.551  1.00  0.00     0.042 A 
ENDROOT
BRANCH   1  19
HETATM   19  C2  UNL     1      27.293   1.126  53.101  1.00  0.00     0.070 C 
HETATM   20  C1  UNL     1      27.714   2.233  53.694  1.00  0.00     0.049 C 
BRANCH  19  21
HETATM   21  O1  UNL     1      28.151   0.043  52.960  1.00  0.00    -0.358 OA
HETATM   22  C3  UNL     1      29.343  -0.028  53.718  1.00  0.00     0.209 C 
ENDBRANCH  19  21
ENDBRANCH   1  19
TORSDOF 2
ENDMDL
MODEL 8
REMARK VINA RESULT:      -7.0      3.833      6.276
REMARK  2 active torsions:
REMARK  status: ('A' for Active; 'I' for Inactive)
REMARK    1  A    between atoms: C2_2  and  O1_3 
REMARK    2  A    between atoms: C2_2  and  C4_5 
ROOT
HETATM    1  C4  UNL     1      23.399   3.745  50.969  1.00  0.00     0.215 C 
HETATM    2  O2  UNL     1      23.936   2.551  50.639  1.00  0.00    -0.374 OA
HETATM    3  C5  UNL     1      24.936   2.043  51.283  1.00  0.00     0.173 C 
HETATM    4  C6  UNL     1      26.381   2.528  51.185  1.00  0.00     0.055 C 
HETATM    5  C7  UNL     1      27.033   1.472  52.118  1.00  0.00     0.002 C 
HETATM    6  C8  UNL     1      26.459   0.513  52.882  1.00  0.00     0.069 C 
HETATM    7 CL1  UNL     1      27.965  -0.186  53.554  1.00  0.00    -0.081 Cl
HETATM    8  C9  UNL     1      25.296  -0.141  53.481  1.00  0.00     0.139 C 
HETATM    9  F1  UNL     1      25.671  -1.271  54.205  1.00  0.00    -0.204 F 
HETATM   10  C10 UNL     1      23.957  -0.048  53.576  1.00  0.00     0.063 C 
HETATM   11  C11 UNL     1      22.689   0.616  53.263  1.00  0.00     0.122 C 
HETATM   12  N1  UNL     1      22.493   1.625  52.602  1.00  0.00    -0.241 NA
HETATM   13  C12 UNL     1      21.516   2.458  52.150  1.00  0.00     0.161 A 
HETATM   14  N2  UNL     1      20.204   2.360  52.406  1.00  0.00    -0.222 NA
HETATM   15  C13 UNL     1      19.285   3.231  51.958  1.00  0.00     0.235 A 
HETATM   16  N3  UNL     1      19.665   4.276  51.204  1.00  0.00    -0.253 NA
HETATM   17  C14 UNL     1      20.967   4.426  50.914  1.00  0.00     0.132 A 
HETATM   18  C15 UNL     1      21.936   3.550  51.358  1.00  0.00     0.042 A 
ENDROOT
BRANCH   1  19
HETATM   19  C2  UNL     1      23.465   4.706  49.830  1.00  0.00     0.070 C 
HETATM   20  C1  UNL     1      23.401   4.263  48.583  1.00  0.00     0.049 C 
BRANCH  19  21
HETATM   21  O1  UNL     1      23.593   6.066  50.079  1.00  0.00    -0.358 OA
HETATM   22  C3  UNL     1      24.168   6.520  51.289  1.00  0.00     0.209 C 
ENDBRANCH  19  21
ENDBRANCH   1  19
TORSDOF 2
ENDMDL
MODEL 9
REMARK VINA RESULT:      -7.0      3.901      6.958
REMARK  2 active torsions:
REMARK  status: ('A' for Active; 'I' for Inactive)
REMARK    1  A    between atoms: C2_2  and  O1_3 
REMARK    2  A    between atoms: C2_2  and  C4_5 
ROOT
HETATM    1  C4  UNL     1      20.415   1.206  51.619  1.00  0.00     0.215 C 
HETATM    2  O2  UNL     1      21.442   0.343  51.476  1.00  0.00    -0.374 OA
HETATM    3  C5  UNL     1      22.538   0.455  52.155  1.00  0.00     0.173 C 
HETATM    4  C6  UNL     1      23.615   1.511  51.913  1.00  0.00     0.055 C 
HETATM    5  C7  UNL     1      24.634   1.036  52.985  1.00  0.00     0.002 C 
HETATM    6  C8  UNL     1      24.521   0.069  53.926  1.00  0.00     0.069 C 
HETATM    7 CL1  UNL     1      26.153   0.245  54.642  1.00  0.00    -0.081 Cl
HETATM    8  C9  UNL     1      23.752  -0.923  54.676  1.00  0.00     0.139 C 
HETATM    9  F1  UNL     1      24.565  -1.622  55.566  1.00  0.00    -0.204 F 
HETATM   10  C10 UNL     1      22.510  -1.425  54.810  1.00  0.00     0.063 C 
HETATM   11  C11 UNL     1      21.093  -1.463  54.443  1.00  0.00     0.122 C 
HETATM   12  N1  UNL     1      20.491  -0.779  53.628  1.00  0.00    -0.241 NA
HETATM   13  C12 UNL     1      19.263  -0.563  53.082  1.00  0.00     0.161 A 
HETATM   14  N2  UNL     1      18.125  -1.193  53.406  1.00  0.00    -0.222 NA
HETATM   15  C13 UNL     1      16.932  -0.916  52.855  1.00  0.00     0.235 A 
HETATM   16  N3  UNL     1      16.832   0.041  51.919  1.00  0.00    -0.253 NA
HETATM   17  C14 UNL     1      17.940   0.706  51.552  1.00  0.00     0.132 A 
HETATM   18  C15 UNL     1      19.180   0.447  52.098  1.00  0.00     0.042 A 
ENDROOT
BRANCH   1  19
HETATM   19  C2  UNL     1      20.088   1.884  50.331  1.00  0.00     0.070 C 
HETATM   20  C1  UNL     1      20.454   1.336  49.182  1.00  0.00     0.049 C 
BRANCH  19  21
HETATM   21  O1  UNL     1      19.399   3.089  50.339  1.00  0.00    -0.358 OA
HETATM   22  C3  UNL     1      20.076   4.302  50.069  1.00  0.00     0.209 C 
ENDBRANCH  19  21
ENDBRANCH   1  19
TORSDOF 2
ENDMDL
