MODEL 1
REMARK VINA RESULT:      -8.1      0.000      0.000
REMARK  5 active torsions:
REMARK  status: ('A' for Active; 'I' for Inactive)
REMARK    1  A    between atoms: C4_4  and  C5_5 
REMARK    2  A    between atoms: C5_5  and  C6_7 
REMARK    3  A    between atoms: C7_8  and  C8_9 
REMARK    4  A    between atoms: C8_9  and  N1_10 
REMARK    5  A    between atoms: C15_18  and  N2_19 
ROOT
HETATM    1  C1  UNL     1      22.643   2.218  47.553  1.00  0.00     0.049 C 
HETATM    2  C2  UNL     1      22.360   2.067  49.023  1.00  0.00    -0.047 C 
HETATM    3  C3  UNL     1      22.889   2.907  49.879  1.00  0.00    -0.006 C 
HETATM    4  C4  UNL     1      22.870   3.107  51.341  1.00  0.00     0.088 C 
HETATM    5  C13 UNL     1      22.617   1.864  52.146  1.00  0.00     0.077 C 
HETATM    6  C14 UNL     1      21.364   1.165  51.808  1.00  0.00     0.050 C 
HETATM    7  C15 UNL     1      20.380   1.042  52.713  1.00  0.00     0.118 C 
HETATM    8  N3  UNL     1      21.067   0.572  50.549  1.00  0.00    -0.264 NA
HETATM    9  C22 UNL     1      21.487   0.954  49.387  1.00  0.00     0.123 C 
ENDROOT
BRANCH   4  10
HETATM   10  C5  UNL     1      24.210   3.603  51.736  1.00  0.00     0.157 C 
HETATM   11  O1  UNL     1      24.359   4.139  52.875  1.00  0.00    -0.293 OA
BRANCH  10  12
HETATM   12  C6  UNL     1      25.333   3.469  50.817  1.00  0.00     0.048 C 
HETATM   13  C7  UNL     1      26.232   2.514  50.887  1.00  0.00     0.007 C 
BRANCH  13  14
HETATM   14  C8  UNL     1      26.518   1.352  51.722  1.00  0.00     0.300 C 
BRANCH  14  15
HETATM   15  N1  UNL     1      27.170   1.688  52.971  1.00  0.00     0.096 N 
HETATM   16  C9  UNL     1      26.256   1.448  54.064  1.00  0.00     0.299 C 
HETATM   17  C10 UNL     1      26.382   0.048  54.618  1.00  0.00     0.198 C 
HETATM   18  O2  UNL     1      27.633  -0.251  55.109  1.00  0.00    -0.388 OA
HETATM   19  C11 UNL     1      28.622   0.606  54.640  1.00  0.00     0.198 C 
HETATM   20  C12 UNL     1      28.390   0.943  53.177  1.00  0.00     0.299 C 
ENDBRANCH  14  15
ENDBRANCH  13  14
ENDBRANCH  10  12
ENDBRANCH   4  10
BRANCH   7  21
HETATM   21  N2  UNL     1      19.136   0.389  52.489  1.00  0.00    -0.354 N 
HETATM   22  C16 UNL     1      18.163   1.081  51.668  1.00  0.00     0.155 A 
HETATM   23  C17 UNL     1      16.917   0.282  51.521  1.00  0.00    -0.005 A 
HETATM   24  C18 UNL     1      16.712  -0.908  52.064  1.00  0.00     0.019 A 
HETATM   25  C19 UNL     1      17.742  -1.524  52.870  1.00  0.00     0.033 A 
HETATM   26 BR1  UNL     1      17.430  -3.219  53.636  1.00  0.00    -0.049 Br
HETATM   27  C20 UNL     1      18.899  -0.907  53.074  1.00  0.00     0.025 A 
HETATM   28  C21 UNL     1      19.932  -1.581  53.913  1.00  0.00     0.070 C 
ENDBRANCH   7  21
TORSDOF 5
ENDMDL
MODEL 2
REMARK VINA RESULT:      -7.8      2.347      3.385
REMARK  5 active torsions:
REMARK  status: ('A' for Active; 'I' for Inactive)
REMARK    1  A    between atoms: C4_4  and  C5_5 
REMARK    2  A    between atoms: C5_5  and  C6_7 
REMARK    3  A    between atoms: C7_8  and  C8_9 
REMARK    4  A    between atoms: C8_9  and  N1_10 
REMARK    5  A    between atoms: C15_18  and  N2_19 
ROOT
HETATM    1  C1  UNL     1      22.568  -1.087  54.810  1.00  0.00     0.049 C 
HETATM    2  C2  UNL     1      22.161  -0.020  53.830  1.00  0.00    -0.047 C 
HETATM    3  C3  UNL     1      23.077   0.612  53.137  1.00  0.00    -0.006 C 
HETATM    4  C4  UNL     1      23.108   1.678  52.116  1.00  0.00     0.088 C 
HETATM    5  C13 UNL     1      21.951   2.634  52.165  1.00  0.00     0.077 C 
HETATM    6  C14 UNL     1      20.628   1.994  52.054  1.00  0.00     0.050 C 
HETATM    7  C15 UNL     1      19.823   2.255  51.012  1.00  0.00     0.118 C 
HETATM    8  N3  UNL     1      20.078   1.073  52.989  1.00  0.00    -0.264 NA
HETATM    9  C22 UNL     1      20.726   0.233  53.729  1.00  0.00     0.123 C 
ENDROOT
BRANCH   4  10
HETATM   10  C5  UNL     1      24.332   2.480  52.353  1.00  0.00     0.157 C 
HETATM   11  O1  UNL     1      24.454   3.113  53.444  1.00  0.00    -0.293 OA
BRANCH  10  12
HETATM   12  C6  UNL     1      25.374   2.530  51.337  1.00  0.00     0.048 C 
HETATM   13  C7  UNL     1      26.655   2.384  51.587  1.00  0.00     0.007 C 
BRANCH  13  14
HETATM   14  C8  UNL     1      27.515   2.148  52.743  1.00  0.00     0.300 C 
BRANCH  14  15
HETATM   15  N1  UNL     1      27.827   0.750  52.952  1.00  0.00     0.096 N 
HETATM   16  C9  UNL     1      27.772   0.457  54.365  1.00  0.00     0.299 C 
HETATM   17  C10 UNL     1      26.400  -0.002  54.802  1.00  0.00     0.198 C 
HETATM   18  O2  UNL     1      25.962  -1.144  54.169  1.00  0.00    -0.388 OA
HETATM   19  C11 UNL     1      26.652  -1.414  52.993  1.00  0.00     0.198 C 
HETATM   20  C12 UNL     1      26.938  -0.131  52.232  1.00  0.00     0.299 C 
ENDBRANCH  14  15
ENDBRANCH  13  14
ENDBRANCH  10  12
ENDBRANCH   4  10
BRANCH   7  21
HETATM   21  N2  UNL     1      18.531   1.693  50.810  1.00  0.00    -0.354 N 
HETATM   22  C16 UNL     1      18.472   0.324  50.339  1.00  0.00     0.155 A 
HETATM   23  C17 UNL     1      17.065  -0.129  50.176  1.00  0.00    -0.005 A 
HETATM   24  C18 UNL     1      15.996   0.614  50.425  1.00  0.00     0.019 A 
HETATM   25  C19 UNL     1      16.152   1.972  50.893  1.00  0.00     0.033 A 
HETATM   26 BR1  UNL     1      14.618   3.014  51.242  1.00  0.00    -0.049 Br
HETATM   27  C20 UNL     1      17.361   2.490  51.078  1.00  0.00     0.025 A 
HETATM   28  C21 UNL     1      17.472   3.896  51.562  1.00  0.00     0.070 C 
ENDBRANCH   7  21
TORSDOF 5
ENDMDL
MODEL 3
REMARK VINA RESULT:      -7.8      4.787      7.548
REMARK  5 active torsions:
REMARK  status: ('A' for Active; 'I' for Inactive)
REMARK    1  A    between atoms: C4_4  and  C5_5 
REMARK    2  A    between atoms: C5_5  and  C6_7 
REMARK    3  A    between atoms: C7_8  and  C8_9 
REMARK    4  A    between atoms: C8_9  and  N1_10 
REMARK    5  A    between atoms: C15_18  and  N2_19 
ROOT
HETATM    1  C1  UNL     1      22.081   2.924  47.140  1.00  0.00     0.049 C 
HETATM    2  C2  UNL     1      22.741   3.616  48.302  1.00  0.00    -0.047 C 
HETATM    3  C3  UNL     1      23.034   2.938  49.384  1.00  0.00    -0.006 C 
HETATM    4  C4  UNL     1      23.655   3.218  50.693  1.00  0.00     0.088 C 
HETATM    5  C13 UNL     1      23.519   4.636  51.168  1.00  0.00     0.077 C 
HETATM    6  C14 UNL     1      24.052   5.644  50.233  1.00  0.00     0.050 C 
HETATM    7  C15 UNL     1      25.087   6.425  50.581  1.00  0.00     0.118 C 
HETATM    8  N3  UNL     1      23.557   5.894  48.923  1.00  0.00    -0.264 NA
HETATM    9  C22 UNL     1      23.009   5.041  48.120  1.00  0.00     0.123 C 
ENDROOT
BRANCH   4  10
HETATM   10  C5  UNL     1      22.973   2.366  51.696  1.00  0.00     0.157 C 
HETATM   11  O1  UNL     1      22.002   2.846  52.355  1.00  0.00    -0.293 OA
BRANCH  10  12
HETATM   12  C6  UNL     1      23.421   0.997  51.911  1.00  0.00     0.048 C 
HETATM   13  C7  UNL     1      24.473   0.670  52.627  1.00  0.00     0.007 C 
BRANCH  13  14
HETATM   14  C8  UNL     1      25.508   1.343  53.405  1.00  0.00     0.300 C 
BRANCH  14  15
HETATM   15  N1  UNL     1      26.806   0.708  53.307  1.00  0.00     0.096 N 
HETATM   16  C9  UNL     1      27.756   1.652  52.765  1.00  0.00     0.299 C 
HETATM   17  C10 UNL     1      28.459   2.441  53.845  1.00  0.00     0.198 C 
HETATM   18  O2  UNL     1      29.171   1.667  54.733  1.00  0.00    -0.388 OA
HETATM   19  C11 UNL     1      28.785   0.332  54.723  1.00  0.00     0.198 C 
HETATM   20  C12 UNL     1      27.278   0.210  54.577  1.00  0.00     0.299 C 
ENDBRANCH  14  15
ENDBRANCH  13  14
ENDBRANCH  10  12
ENDBRANCH   4  10
BRANCH   7  21
HETATM   21  N2  UNL     1      25.675   7.424  49.757  1.00  0.00    -0.354 N 
HETATM   22  C16 UNL     1      25.167   8.774  49.890  1.00  0.00     0.155 A 
HETATM   23  C17 UNL     1      25.872   9.707  48.971  1.00  0.00    -0.005 A 
HETATM   24  C18 UNL     1      26.839   9.361  48.134  1.00  0.00     0.019 A 
HETATM   25  C19 UNL     1      27.282   7.987  48.070  1.00  0.00     0.033 A 
HETATM   26 BR1  UNL     1      28.661   7.513  46.872  1.00  0.00    -0.049 Br
HETATM   27  C20 UNL     1      26.729   7.060  48.843  1.00  0.00     0.025 A 
HETATM   28  C21 UNL     1      27.218   5.655  48.740  1.00  0.00     0.070 C 
ENDBRANCH   7  21
TORSDOF 5
ENDMDL
MODEL 4
REMARK VINA RESULT:      -7.6      2.096      2.958
REMARK  5 active torsions:
REMARK  status: ('A' for Active; 'I' for Inactive)
REMARK    1  A    between atoms: C4_4  and  C5_5 
REMARK    2  A    between atoms: C5_5  and  C6_7 
REMARK    3  A    between atoms: C7_8  and  C8_9 
REMARK    4  A    between atoms: C8_9  and  N1_10 
REMARK    5  A    between atoms: C15_18  and  N2_19 
ROOT
HETATM    1  C1  UNL     1      22.507  -0.621  53.959  1.00  0.00     0.049 C 
HETATM    2  C2  UNL     1      22.023   0.638  53.292  1.00  0.00    -0.047 C 
HETATM    3  C3  UNL     1      22.867   1.392  52.631  1.00  0.00    -0.006 C 
HETATM    4  C4  UNL     1      22.811   2.652  51.865  1.00  0.00     0.088 C 
HETATM    5  C13 UNL     1      21.712   3.591  52.271  1.00  0.00     0.077 C 
HETATM    6  C14 UNL     1      20.359   3.008  52.208  1.00  0.00     0.050 C 
HETATM    7  C15 UNL     1      19.438   3.500  51.363  1.00  0.00     0.118 C 
HETATM    8  N3  UNL     1      19.897   1.915  52.992  1.00  0.00    -0.264 NA
HETATM    9  C22 UNL     1      20.599   0.926  53.443  1.00  0.00     0.123 C 
ENDROOT
BRANCH   4  10
HETATM   10  C5  UNL     1      24.088   3.367  52.097  1.00  0.00     0.157 C 
HETATM   11  O1  UNL     1      24.260   3.985  53.191  1.00  0.00    -0.293 OA
BRANCH  10  12
HETATM   12  C6  UNL     1      25.126   3.351  51.075  1.00  0.00     0.048 C 
HETATM   13  C7  UNL     1      26.100   2.471  51.028  1.00  0.00     0.007 C 
BRANCH  13  14
HETATM   14  C8  UNL     1      26.555   1.313  51.792  1.00  0.00     0.300 C 
BRANCH  14  15
HETATM   15  N1  UNL     1      27.209   1.666  53.035  1.00  0.00     0.096 N 
HETATM   16  C9  UNL     1      26.323   1.370  54.137  1.00  0.00     0.299 C 
HETATM   17  C10 UNL     1      26.523  -0.028  54.674  1.00  0.00     0.198 C 
HETATM   18  O2  UNL     1      27.794  -0.273  55.143  1.00  0.00    -0.388 OA
HETATM   19  C11 UNL     1      28.734   0.636  54.671  1.00  0.00     0.198 C 
HETATM   20  C12 UNL     1      28.465   0.978  53.215  1.00  0.00     0.299 C 
ENDBRANCH  14  15
ENDBRANCH  13  14
ENDBRANCH  10  12
ENDBRANCH   4  10
BRANCH   7  21
HETATM   21  N2  UNL     1      18.109   3.012  51.225  1.00  0.00    -0.354 N 
HETATM   22  C16 UNL     1      17.050   3.794  51.829  1.00  0.00     0.155 A 
HETATM   23  C17 UNL     1      15.721   3.165  51.605  1.00  0.00    -0.005 A 
HETATM   24  C18 UNL     1      15.519   2.037  50.940  1.00  0.00     0.019 A 
HETATM   25  C19 UNL     1      16.638   1.323  50.370  1.00  0.00     0.033 A 
HETATM   26 BR1  UNL     1      16.330  -0.283  49.428  1.00  0.00    -0.049 Br
HETATM   27  C20 UNL     1      17.875   1.785  50.504  1.00  0.00     0.025 A 
HETATM   28  C21 UNL     1      18.999   1.013  49.899  1.00  0.00     0.070 C 
ENDBRANCH   7  21
TORSDOF 5
ENDMDL
MODEL 5
REMARK VINA RESULT:      -7.4      1.866      2.497
REMARK  5 active torsions:
REMARK  status: ('A' for Active; 'I' for Inactive)
REMARK    1  A    between atoms: C4_4  and  C5_5 
REMARK    2  A    between atoms: C5_5  and  C6_7 
REMARK    3  A    between atoms: C7_8  and  C8_9 
REMARK    4  A    between atoms: C8_9  and  N1_10 
REMARK    5  A    between atoms: C15_18  and  N2_19 
ROOT
HETATM    1  C1  UNL     1      22.668   2.301  47.288  1.00  0.00     0.049 C 
HETATM    2  C2  UNL     1      22.323   2.035  48.729  1.00  0.00    -0.047 C 
HETATM    3  C3  UNL     1      23.044   2.574  49.682  1.00  0.00    -0.006 C 
HETATM    4  C4  UNL     1      23.050   2.571  51.158  1.00  0.00     0.088 C 
HETATM    5  C13 UNL     1      22.450   1.349  51.790  1.00  0.00     0.077 C 
HETATM    6  C14 UNL     1      21.061   1.072  51.382  1.00  0.00     0.050 C 
HETATM    7  C15 UNL     1      20.062   1.102  52.279  1.00  0.00     0.118 C 
HETATM    8  N3  UNL     1      20.639   0.759  50.060  1.00  0.00    -0.264 NA
HETATM    9  C22 UNL     1      21.172   1.165  48.954  1.00  0.00     0.123 C 
ENDROOT
BRANCH   4  10
HETATM   10  C5  UNL     1      24.466   2.624  51.593  1.00  0.00     0.157 C 
HETATM   11  O1  UNL     1      25.383   2.470  50.732  1.00  0.00    -0.293 OA
BRANCH  10  12
HETATM   12  C6  UNL     1      24.786   2.851  52.996  1.00  0.00     0.048 C 
HETATM   13  C7  UNL     1      25.290   1.937  53.794  1.00  0.00     0.007 C 
BRANCH  13  14
HETATM   14  C8  UNL     1      25.703   0.539  53.718  1.00  0.00     0.300 C 
BRANCH  14  15
HETATM   15  N1  UNL     1      26.995   0.354  53.090  1.00  0.00     0.096 N 
HETATM   16  C9  UNL     1      27.995   1.081  53.838  1.00  0.00     0.299 C 
HETATM   17  C10 UNL     1      28.633   0.234  54.915  1.00  0.00     0.198 C 
HETATM   18  O2  UNL     1      29.270  -0.890  54.440  1.00  0.00    -0.388 OA
HETATM   19  C11 UNL     1      28.865  -1.246  53.159  1.00  0.00     0.198 C 
HETATM   20  C12 UNL     1      27.370  -1.036  52.991  1.00  0.00     0.299 C 
ENDBRANCH  14  15
ENDBRANCH  13  14
ENDBRANCH  10  12
ENDBRANCH   4  10
BRANCH   7  21
HETATM   21  N2  UNL     1      18.691   0.851  51.990  1.00  0.00    -0.354 N 
HETATM   22  C16 UNL     1      18.228  -0.516  52.115  1.00  0.00     0.155 A 
HETATM   23  C17 UNL     1      16.783  -0.627  51.783  1.00  0.00    -0.005 A 
HETATM   24  C18 UNL     1      16.009   0.385  51.419  1.00  0.00     0.019 A 
HETATM   25  C19 UNL     1      16.559   1.718  51.321  1.00  0.00     0.033 A 
HETATM   26 BR1  UNL     1      15.441   3.146  50.800  1.00  0.00    -0.049 Br
HETATM   27  C20 UNL     1      17.839   1.943  51.593  1.00  0.00     0.025 A 
HETATM   28  C21 UNL     1      18.362   3.335  51.477  1.00  0.00     0.070 C 
ENDBRANCH   7  21
TORSDOF 5
ENDMDL
MODEL 6
REMARK VINA RESULT:      -7.4      4.473      5.624
REMARK  5 active torsions:
REMARK  status: ('A' for Active; 'I' for Inactive)
REMARK    1  A    between atoms: C4_4  and  C5_5 
REMARK    2  A    between atoms: C5_5  and  C6_7 
REMARK    3  A    between atoms: C7_8  and  C8_9 
REMARK    4  A    between atoms: C8_9  and  N1_10 
REMARK    5  A    between atoms: C15_18  and  N2_19 
ROOT
HETATM    1  C1  UNL     1      22.380   5.233  46.881  1.00  0.00     0.049 C 
HETATM    2  C2  UNL     1      23.075   4.792  48.142  1.00  0.00    -0.047 C 
HETATM    3  C3  UNL     1      24.066   5.502  48.623  1.00  0.00    -0.006 C 
HETATM    4  C4  UNL     1      24.978   5.428  49.781  1.00  0.00     0.088 C 
HETATM    5  C13 UNL     1      25.221   4.043  50.307  1.00  0.00     0.077 C 
HETATM    6  C14 UNL     1      23.999   3.317  50.697  1.00  0.00     0.050 C 
HETATM    7  C15 UNL     1      23.795   2.949  51.972  1.00  0.00     0.118 C 
HETATM    8  N3  UNL     1      22.948   2.941  49.815  1.00  0.00    -0.264 NA
HETATM    9  C22 UNL     1      22.567   3.563  48.746  1.00  0.00     0.123 C 
ENDROOT
BRANCH   4  10
HETATM   10  C5  UNL     1      26.292   5.952  49.340  1.00  0.00     0.157 C 
HETATM   11  O1  UNL     1      26.541   7.188  49.475  1.00  0.00    -0.293 OA
BRANCH  10  12
HETATM   12  C6  UNL     1      27.278   5.048  48.763  1.00  0.00     0.048 C 
HETATM   13  C7  UNL     1      28.445   5.430  48.298  1.00  0.00     0.007 C 
BRANCH  13  14
HETATM   14  C8  UNL     1      29.200   6.670  48.147  1.00  0.00     0.300 C 
BRANCH  14  15
HETATM   15  N1  UNL     1      30.502   6.480  47.541  1.00  0.00     0.096 N 
HETATM   16  C9  UNL     1      31.396   7.517  48.002  1.00  0.00     0.299 C 
HETATM   17  C10 UNL     1      32.151   7.109  49.246  1.00  0.00     0.198 C 
HETATM   18  O2  UNL     1      32.934   5.988  49.086  1.00  0.00    -0.388 OA
HETATM   19  C11 UNL     1      32.574   5.226  47.981  1.00  0.00     0.198 C 
HETATM   20  C12 UNL     1      31.064   5.182  47.828  1.00  0.00     0.299 C 
ENDBRANCH  14  15
ENDBRANCH  13  14
ENDBRANCH  10  12
ENDBRANCH   4  10
BRANCH   7  21
HETATM   21  N2  UNL     1      22.654   2.248  52.452  1.00  0.00    -0.354 N 
HETATM   22  C16 UNL     1      21.368   2.899  52.307  1.00  0.00     0.155 A 
HETATM   23  C17 UNL     1      20.272   2.053  52.849  1.00  0.00    -0.005 A 
HETATM   24  C18 UNL     1      20.437   0.858  53.396  1.00  0.00     0.019 A 
HETATM   25  C19 UNL     1      21.760   0.285  53.499  1.00  0.00     0.033 A 
HETATM   26 BR1  UNL     1      21.975  -1.418  54.281  1.00  0.00    -0.049 Br
HETATM   27  C20 UNL     1      22.820   0.946  53.049  1.00  0.00     0.025 A 
HETATM   28  C21 UNL     1      24.165   0.316  53.177  1.00  0.00     0.070 C 
ENDBRANCH   7  21
TORSDOF 5
ENDMDL
MODEL 7
REMARK VINA RESULT:      -7.2      4.429      7.378
REMARK  5 active torsions:
REMARK  status: ('A' for Active; 'I' for Inactive)
REMARK    1  A    between atoms: C4_4  and  C5_5 
REMARK    2  A    between atoms: C5_5  and  C6_7 
REMARK    3  A    between atoms: C7_8  and  C8_9 
REMARK    4  A    between atoms: C8_9  and  N1_10 
REMARK    5  A    between atoms: C15_18  and  N2_19 
ROOT
HETATM    1  C1  UNL     1      21.640   3.666  45.717  1.00  0.00     0.049 C 
HETATM    2  C2  UNL     1      22.068   3.980  47.125  1.00  0.00    -0.047 C 
HETATM    3  C3  UNL     1      21.916   3.083  48.068  1.00  0.00    -0.006 C 
HETATM    4  C4  UNL     1      22.190   2.987  49.515  1.00  0.00     0.088 C 
HETATM    5  C13 UNL     1      22.196   4.299  50.246  1.00  0.00     0.077 C 
HETATM    6  C14 UNL     1      23.147   5.289  49.710  1.00  0.00     0.050 C 
HETATM    7  C15 UNL     1      24.173   5.731  50.456  1.00  0.00     0.118 C 
HETATM    8  N3  UNL     1      23.092   5.862  48.409  1.00  0.00    -0.264 NA
HETATM    9  C22 UNL     1      22.639   5.309  47.331  1.00  0.00     0.123 C 
ENDROOT
BRANCH   4  10
HETATM   10  C5  UNL     1      21.108   2.171  50.115  1.00  0.00     0.157 C 
HETATM   11  O1  UNL     1      19.996   2.719  50.381  1.00  0.00    -0.293 OA
BRANCH  10  12
HETATM   12  C6  UNL     1      21.332   0.758  50.390  1.00  0.00     0.048 C 
HETATM   13  C7  UNL     1      22.015   0.307  51.418  1.00  0.00     0.007 C 
BRANCH  13  14
HETATM   14  C8  UNL     1      22.739   0.850  52.563  1.00  0.00     0.300 C 
BRANCH  14  15
HETATM   15  N1  UNL     1      24.179   0.791  52.413  1.00  0.00     0.096 N 
HETATM   16  C9  UNL     1      24.685   2.119  52.157  1.00  0.00     0.299 C 
HETATM   17  C10 UNL     1      25.059   2.844  53.429  1.00  0.00     0.198 C 
HETATM   18  O2  UNL     1      26.033   2.213  54.169  1.00  0.00    -0.388 OA
HETATM   19  C11 UNL     1      26.185   0.871  53.839  1.00  0.00     0.198 C 
HETATM   20  C12 UNL     1      24.834   0.229  53.570  1.00  0.00     0.299 C 
ENDBRANCH  14  15
ENDBRANCH  13  14
ENDBRANCH  10  12
ENDBRANCH   4  10
BRANCH   7  21
HETATM   21  N2  UNL     1      25.143   6.683  50.034  1.00  0.00    -0.354 N 
HETATM   22  C16 UNL     1      24.884   8.074  50.344  1.00  0.00     0.155 A 
HETATM   23  C17 UNL     1      25.979   8.949  49.846  1.00  0.00    -0.005 A 
HETATM   24  C18 UNL     1      27.055   8.523  49.201  1.00  0.00     0.019 A 
HETATM   25  C19 UNL     1      27.230   7.114  48.935  1.00  0.00     0.033 A 
HETATM   26 BR1  UNL     1      28.769   6.527  48.015  1.00  0.00    -0.049 Br
HETATM   27  C20 UNL     1      26.319   6.233  49.332  1.00  0.00     0.025 A 
HETATM   28  C21 UNL     1      26.542   4.788  49.035  1.00  0.00     0.070 C 
ENDBRANCH   7  21
TORSDOF 5
ENDMDL
MODEL 8
REMARK VINA RESULT:      -7.1      5.256      8.662
REMARK  5 active torsions:
REMARK  status: ('A' for Active; 'I' for Inactive)
REMARK    1  A    between atoms: C4_4  and  C5_5 
REMARK    2  A    between atoms: C5_5  and  C6_7 
REMARK    3  A    between atoms: C7_8  and  C8_9 
REMARK    4  A    between atoms: C8_9  and  N1_10 
REMARK    5  A    between atoms: C15_18  and  N2_19 
ROOT
HETATM    1  C1  UNL     1      26.696   1.908  51.176  1.00  0.00     0.049 C 
HETATM    2  C2  UNL     1      25.841   2.947  50.502  1.00  0.00    -0.047 C 
HETATM    3  C3  UNL     1      24.535   2.850  50.555  1.00  0.00    -0.006 C 
HETATM    4  C4  UNL     1      23.379   3.619  50.052  1.00  0.00     0.088 C 
HETATM    5  C13 UNL     1      23.644   4.421  48.811  1.00  0.00     0.077 C 
HETATM    6  C14 UNL     1      24.757   5.381  48.933  1.00  0.00     0.050 C 
HETATM    7  C15 UNL     1      24.540   6.701  48.829  1.00  0.00     0.118 C 
HETATM    8  N3  UNL     1      26.118   5.037  49.162  1.00  0.00    -0.264 NA
HETATM    9  C22 UNL     1      26.565   4.016  49.820  1.00  0.00     0.123 C 
ENDROOT
BRANCH   4  10
HETATM   10  C5  UNL     1      22.317   2.644  49.709  1.00  0.00     0.157 C 
HETATM   11  O1  UNL     1      22.426   1.959  48.648  1.00  0.00    -0.293 OA
BRANCH  10  12
HETATM   12  C6  UNL     1      21.168   2.483  50.590  1.00  0.00     0.048 C 
HETATM   13  C7  UNL     1      21.047   1.519  51.474  1.00  0.00     0.007 C 
BRANCH  13  14
HETATM   14  C8  UNL     1      21.817   0.369  51.938  1.00  0.00     0.300 C 
BRANCH  14  15
HETATM   15  N1  UNL     1      22.061   0.379  53.366  1.00  0.00     0.096 N 
HETATM   16  C9  UNL     1      20.856  -0.019  54.056  1.00  0.00     0.299 C 
HETATM   17  C10 UNL     1      20.796  -1.510  54.290  1.00  0.00     0.198 C 
HETATM   18  O2  UNL     1      21.836  -2.002  55.047  1.00  0.00    -0.388 OA
HETATM   19  C11 UNL     1      22.927  -1.142  55.097  1.00  0.00     0.198 C 
HETATM   20  C12 UNL     1      23.154  -0.483  53.748  1.00  0.00     0.299 C 
ENDBRANCH  14  15
ENDBRANCH  13  14
ENDBRANCH  10  12
ENDBRANCH   4  10
BRANCH   7  21
HETATM   21  N2  UNL     1      25.541   7.708  48.931  1.00  0.00    -0.354 N 
HETATM   22  C16 UNL     1      26.071   7.982  50.251  1.00  0.00     0.155 A 
HETATM   23  C17 UNL     1      27.104   9.051  50.205  1.00  0.00    -0.005 A 
HETATM   24  C18 UNL     1      27.496   9.679  49.106  1.00  0.00     0.019 A 
HETATM   25  C19 UNL     1      26.909   9.339  47.829  1.00  0.00     0.033 A 
HETATM   26 BR1  UNL     1      27.480  10.245  46.276  1.00  0.00    -0.049 Br
HETATM   27  C20 UNL     1      25.976   8.398  47.743  1.00  0.00     0.025 A 
HETATM   28  C21 UNL     1      25.399   8.082  46.404  1.00  0.00     0.070 C 
ENDBRANCH   7  21
TORSDOF 5
ENDMDL
MODEL 9
REMARK VINA RESULT:      -7.1      6.406      9.687
REMARK  5 active torsions:
REMARK  status: ('A' for Active; 'I' for Inactive)
REMARK    1  A    between atoms: C4_4  and  C5_5 
REMARK    2  A    between atoms: C5_5  and  C6_7 
REMARK    3  A    between atoms: C7_8  and  C8_9 
REMARK    4  A    between atoms: C8_9  and  N1_10 
REMARK    5  A    between atoms: C15_18  and  N2_19 
ROOT
HETATM    1  C1  UNL     1      22.349   7.373  50.822  1.00  0.00     0.049 C 
HETATM    2  C2  UNL     1      23.675   7.114  50.159  1.00  0.00    -0.047 C 
HETATM    3  C3  UNL     1      23.922   5.938  49.635  1.00  0.00    -0.006 C 
HETATM    4  C4  UNL     1      25.043   5.293  48.923  1.00  0.00     0.088 C 
HETATM    5  C13 UNL     1      26.400   5.853  49.240  1.00  0.00     0.077 C 
HETATM    6  C14 UNL     1      26.533   7.301  48.994  1.00  0.00     0.050 C 
HETATM    7  C15 UNL     1      27.391   7.765  48.072  1.00  0.00     0.118 C 
HETATM    8  N3  UNL     1      25.807   8.320  49.671  1.00  0.00    -0.264 NA
HETATM    9  C22 UNL     1      24.611   8.235  50.156  1.00  0.00     0.123 C 
ENDROOT
BRANCH   4  10
HETATM   10  C5  UNL     1      25.065   3.869  49.334  1.00  0.00     0.157 C 
HETATM   11  O1  UNL     1      23.968   3.244  49.454  1.00  0.00    -0.293 OA
BRANCH  10  12
HETATM   12  C6  UNL     1      26.337   3.208  49.593  1.00  0.00     0.048 C 
HETATM   13  C7  UNL     1      26.632   2.592  50.715  1.00  0.00     0.007 C 
BRANCH  13  14
HETATM   14  C8  UNL     1      25.996   2.308  51.997  1.00  0.00     0.300 C 
BRANCH  14  15
HETATM   15  N1  UNL     1      25.478   0.960  52.096  1.00  0.00     0.096 N 
HETATM   16  C9  UNL     1      26.582   0.027  52.102  1.00  0.00     0.299 C 
HETATM   17  C10 UNL     1      27.063  -0.281  53.501  1.00  0.00     0.198 C 
HETATM   18  O2  UNL     1      26.103  -0.838  54.315  1.00  0.00    -0.388 OA
HETATM   19  C11 UNL     1      24.809  -0.633  53.851  1.00  0.00     0.198 C 
HETATM   20  C12 UNL     1      24.662   0.763  53.271  1.00  0.00     0.299 C 
ENDBRANCH  14  15
ENDBRANCH  13  14
ENDBRANCH  10  12
ENDBRANCH   4  10
BRANCH   7  21
HETATM   21  N2  UNL     1      27.594   9.138  47.758  1.00  0.00    -0.354 N 
HETATM   22  C16 UNL     1      26.673   9.746  46.820  1.00  0.00     0.155 A 
HETATM   23  C17 UNL     1      27.007  11.177  46.589  1.00  0.00    -0.005 A 
HETATM   24  C18 UNL     1      28.013  11.822  47.161  1.00  0.00     0.019 A 
HETATM   25  C19 UNL     1      28.882  11.133  48.087  1.00  0.00     0.033 A 
HETATM   26 BR1  UNL     1      30.310  12.069  48.890  1.00  0.00    -0.049 Br
HETATM   27  C20 UNL     1      28.685   9.852  48.374  1.00  0.00     0.025 A 
HETATM   28  C21 UNL     1      29.609   9.182  49.334  1.00  0.00     0.070 C 
ENDBRANCH   7  21
TORSDOF 5
ENDMDL
