MODEL 1
REMARK VINA RESULT:      -8.9      0.000      0.000
REMARK  1 active torsions:
REMARK  status: ('A' for Active; 'I' for Inactive)
REMARK    1  A    between atoms: C12_14  and  C13_15 
ROOT
HETATM    1  C1  UNL     1      20.237  -0.094  53.184  1.00  0.00     0.012 C 
HETATM    2  C2  UNL     1      21.256   0.994  53.043  1.00  0.00    -0.032 C 
HETATM    3  C3  UNL     1      20.696   2.180  52.663  1.00  0.00     0.036 C 
HETATM    4  C4  UNL     1      21.183   3.619  52.392  1.00  0.00     0.001 C 
HETATM    5  C5  UNL     1      22.280   4.439  52.428  1.00  0.00     0.009 C 
HETATM    6  C6  UNL     1      23.642   4.901  52.644  1.00  0.00     0.101 C 
HETATM    7  N1  UNL     1      24.216   5.121  51.213  1.00  0.00    -0.261 NA
HETATM    8  C7  UNL     1      24.196   3.633  50.686  1.00  0.00     0.203 C 
HETATM    9  N2  UNL     1      25.215   3.093  51.057  1.00  0.00    -0.218 NA
HETATM   10  C8  UNL     1      25.568   1.961  51.939  1.00  0.00     0.109 A 
HETATM   11  C9  UNL     1      24.491   1.023  52.153  1.00  0.00     0.062 A 
HETATM   12  C10 UNL     1      25.307   0.248  52.783  1.00  0.00     0.052 A 
HETATM   13  C11 UNL     1      26.559  -0.031  53.240  1.00  0.00     0.266 A 
HETATM   14  C12 UNL     1      27.669   0.729  53.034  1.00  0.00     0.275 A 
HETATM   15  C14 UNL     1      27.083   2.196  52.199  1.00  0.00     0.294 A 
HETATM   16  N3  UNL     1      27.146   1.296  52.663  1.00  0.00     0.148 N 
HETATM   17  O1  UNL     1      28.135   2.748  52.662  1.00  0.00     0.000 OA
HETATM   18  N4  UNL     1      23.194   0.996  51.884  1.00  0.00    -0.340 N 
HETATM   19  C15 UNL     1      22.809   1.685  50.656  1.00  0.00     0.213 C 
HETATM   20  N5  UNL     1      23.549   2.502  49.888  1.00  0.00    -0.213 NA
HETATM   21  C16 UNL     1      22.613   0.182  52.977  1.00  0.00     0.135 C 
HETATM   22  H9  UNL     1      24.486   4.830  50.218  1.00  0.00     0.130 HD
HETATM   23  H13 UNL     1      28.037   3.111  53.627  1.00  0.00     0.000 HD
ENDROOT
BRANCH  14  24
HETATM   24  C13 UNL     1      28.796  -0.326  53.628  1.00  0.00     0.270 C 
HETATM   25  F1  UNL     1      30.035   0.093  53.276  1.00  0.00    -0.253 F 
ENDBRANCH  14  24
TORSDOF 1
ENDMDL
MODEL 2
REMARK VINA RESULT:      -8.4      3.243      5.602
REMARK  1 active torsions:
REMARK  status: ('A' for Active; 'I' for Inactive)
REMARK    1  A    between atoms: C12_14  and  C13_15 
ROOT
HETATM    1  C1  UNL     1      27.389  -0.632  52.985  1.00  0.00     0.012 C 
HETATM    2  C2  UNL     1      26.358   0.224  52.315  1.00  0.00    -0.032 C 
HETATM    3  C3  UNL     1      26.914   1.279  51.651  1.00  0.00     0.036 C 
HETATM    4  C4  UNL     1      26.414   2.449  50.778  1.00  0.00     0.001 C 
HETATM    5  C5  UNL     1      25.302   2.996  50.196  1.00  0.00     0.009 C 
HETATM    6  C6  UNL     1      23.921   3.179  49.775  1.00  0.00     0.101 C 
HETATM    7  N1  UNL     1      23.421   4.411  50.586  1.00  0.00    -0.261 NA
HETATM    8  C7  UNL     1      23.499   3.818  52.047  1.00  0.00     0.203 C 
HETATM    9  N2  UNL     1      22.472   3.210  52.258  1.00  0.00    -0.218 NA
HETATM   10  C8  UNL     1      22.094   1.809  52.539  1.00  0.00     0.109 A 
HETATM   11  C9  UNL     1      23.175   0.998  53.045  1.00  0.00     0.062 A 
HETATM   12  C10 UNL     1      22.342   0.036  53.250  1.00  0.00     0.052 A 
HETATM   13  C11 UNL     1      21.073  -0.456  53.220  1.00  0.00     0.266 A 
HETATM   14  C12 UNL     1      19.961   0.232  52.843  1.00  0.00     0.275 A 
HETATM   15  C14 UNL     1      20.563   1.813  52.268  1.00  0.00     0.294 A 
HETATM   16  N3  UNL     1      20.492   0.871  52.638  1.00  0.00     0.148 N 
HETATM   17  O1  UNL     1      19.476   1.862  51.601  1.00  0.00     0.000 OA
HETATM   18  N4  UNL     1      24.486   1.146  53.179  1.00  0.00    -0.340 N 
HETATM   19  C15 UNL     1      24.923   2.510  53.455  1.00  0.00     0.213 C 
HETATM   20  N5  UNL     1      24.210   3.648  53.389  1.00  0.00    -0.213 NA
HETATM   21  C16 UNL     1      25.022  -0.228  53.035  1.00  0.00     0.135 C 
HETATM   22  H9  UNL     1      23.212   4.970  51.476  1.00  0.00     0.130 HD
HETATM   23  H13 UNL     1      19.515   1.378  50.687  1.00  0.00     0.000 HD
ENDROOT
BRANCH  14  24
HETATM   24  C13 UNL     1      18.823  -0.880  53.297  1.00  0.00     0.270 C 
HETATM   25  F1  UNL     1      19.438  -1.956  53.844  1.00  0.00    -0.253 F 
ENDBRANCH  14  24
TORSDOF 1
ENDMDL
MODEL 3
REMARK VINA RESULT:      -7.9      3.261      5.152
REMARK  1 active torsions:
REMARK  status: ('A' for Active; 'I' for Inactive)
REMARK    1  A    between atoms: C12_14  and  C13_15 
ROOT
HETATM    1  C1  UNL     1      26.656   3.641  49.734  1.00  0.00     0.012 C 
HETATM    2  C2  UNL     1      25.175   3.435  49.834  1.00  0.00    -0.032 C 
HETATM    3  C3  UNL     1      24.477   4.330  49.076  1.00  0.00     0.036 C 
HETATM    4  C4  UNL     1      22.996   4.608  48.743  1.00  0.00     0.001 C 
HETATM    5  C5  UNL     1      21.717   4.155  48.932  1.00  0.00     0.009 C 
HETATM    6  C6  UNL     1      20.605   3.326  49.369  1.00  0.00     0.101 C 
HETATM    7  N1  UNL     1      19.863   4.188  50.433  1.00  0.00    -0.261 NA
HETATM    8  C7  UNL     1      20.985   4.267  51.541  1.00  0.00     0.203 C 
HETATM    9  N2  UNL     1      20.901   3.273  52.228  1.00  0.00    -0.218 NA
HETATM   10  C8  UNL     1      21.758   2.109  52.538  1.00  0.00     0.109 A 
HETATM   11  C9  UNL     1      23.161   2.325  52.278  1.00  0.00     0.062 A 
HETATM   12  C10 UNL     1      23.425   1.185  52.819  1.00  0.00     0.052 A 
HETATM   13  C11 UNL     1      23.013   0.053  53.453  1.00  0.00     0.266 A 
HETATM   14  C12 UNL     1      21.734  -0.231  53.824  1.00  0.00     0.275 A 
HETATM   15  C14 UNL     1      20.749   1.105  53.164  1.00  0.00     0.294 A 
HETATM   16  N3  UNL     1      21.514   0.491  53.421  1.00  0.00     0.148 N 
HETATM   17  O1  UNL     1      19.781   0.275  53.222  1.00  0.00     0.000 OA
HETATM   18  N4  UNL     1      23.878   3.263  51.675  1.00  0.00    -0.340 N 
HETATM   19  C15 UNL     1      23.339   4.614  51.789  1.00  0.00     0.213 C 
HETATM   20  N5  UNL     1      22.132   4.998  52.238  1.00  0.00    -0.213 NA
HETATM   21  C16 UNL     1      25.045   2.532  51.128  1.00  0.00     0.135 C 
HETATM   22  H9  UNL     1      19.779   4.757  51.337  1.00  0.00     0.130 HD
HETATM   23  H13 UNL     1      19.705  -0.348  52.399  1.00  0.00     0.000 HD
ENDROOT
BRANCH  14  24
HETATM   24  C13 UNL     1      22.040  -1.584  54.726  1.00  0.00     0.270 C 
HETATM   25  F1  UNL     1      22.887  -1.272  55.735  1.00  0.00    -0.253 F 
ENDBRANCH  14  24
TORSDOF 1
ENDMDL
MODEL 4
REMARK VINA RESULT:      -7.6      1.945      4.026
REMARK  1 active torsions:
REMARK  status: ('A' for Active; 'I' for Inactive)
REMARK    1  A    between atoms: C12_14  and  C13_15 
ROOT
HETATM    1  C1  UNL     1      25.828   6.025  48.602  1.00  0.00     0.012 C 
HETATM    2  C2  UNL     1      25.071   4.818  49.064  1.00  0.00    -0.032 C 
HETATM    3  C3  UNL     1      23.751   4.874  48.719  1.00  0.00     0.036 C 
HETATM    4  C4  UNL     1      22.510   3.968  48.869  1.00  0.00     0.001 C 
HETATM    5  C5  UNL     1      22.082   2.744  49.310  1.00  0.00     0.009 C 
HETATM    6  C6  UNL     1      22.106   1.399  49.864  1.00  0.00     0.101 C 
HETATM    7  N1  UNL     1      21.386   1.526  51.239  1.00  0.00    -0.261 NA
HETATM    8  C7  UNL     1      22.407   2.469  51.988  1.00  0.00     0.203 C 
HETATM    9  N2  UNL     1      23.280   1.773  52.461  1.00  0.00    -0.218 NA
HETATM   10  C8  UNL     1      24.739   1.617  52.287  1.00  0.00     0.109 A 
HETATM   11  C9  UNL     1      25.388   2.765  51.699  1.00  0.00     0.062 A 
HETATM   12  C10 UNL     1      26.533   2.211  51.910  1.00  0.00     0.052 A 
HETATM   13  C11 UNL     1      27.276   1.179  52.396  1.00  0.00     0.266 A 
HETATM   14  C12 UNL     1      26.791   0.084  53.042  1.00  0.00     0.275 A 
HETATM   15  C14 UNL     1      25.013   0.241  52.956  1.00  0.00     0.294 A 
HETATM   16  N3  UNL     1      26.012   0.392  52.865  1.00  0.00     0.148 N 
HETATM   17  O1  UNL     1      25.002  -1.025  53.113  1.00  0.00     0.000 OA
HETATM   18  N4  UNL     1      24.983   3.886  51.118  1.00  0.00    -0.340 N 
HETATM   19  C15 UNL     1      23.733   4.429  51.641  1.00  0.00     0.213 C 
HETATM   20  N5  UNL     1      22.851   3.849  52.472  1.00  0.00    -0.213 NA
HETATM   21  C16 UNL     1      26.050   4.193  50.138  1.00  0.00     0.135 C 
HETATM   22  H9  UNL     1      21.235   1.917  52.226  1.00  0.00     0.130 HD
HETATM   23  H13 UNL     1      25.118  -1.564  52.237  1.00  0.00     0.000 HD
ENDROOT
BRANCH  14  24
HETATM   24  C13 UNL     1      28.231  -0.561  53.539  1.00  0.00     0.270 C 
HETATM   25  F1  UNL     1      28.437  -0.254  54.842  1.00  0.00    -0.253 F 
ENDBRANCH  14  24
TORSDOF 1
ENDMDL
MODEL 5
REMARK VINA RESULT:      -7.6      3.627      5.207
REMARK  1 active torsions:
REMARK  status: ('A' for Active; 'I' for Inactive)
REMARK    1  A    between atoms: C12_14  and  C13_15 
ROOT
HETATM    1  C1  UNL     1      26.166   0.466  52.041  1.00  0.00     0.012 C 
HETATM    2  C2  UNL     1      25.714   1.888  51.913  1.00  0.00    -0.032 C 
HETATM    3  C3  UNL     1      24.545   2.121  52.578  1.00  0.00     0.036 C 
HETATM    4  C4  UNL     1      23.623   3.330  52.843  1.00  0.00     0.001 C 
HETATM    5  C5  UNL     1      23.488   4.679  52.652  1.00  0.00     0.009 C 
HETATM    6  C6  UNL     1      23.783   6.045  52.247  1.00  0.00     0.101 C 
HETATM    7  N1  UNL     1      22.774   6.342  51.097  1.00  0.00    -0.261 NA
HETATM    8  C7  UNL     1      23.283   5.306  50.021  1.00  0.00     0.203 C 
HETATM    9  N2  UNL     1      24.195   5.820  49.410  1.00  0.00    -0.218 NA
HETATM   10  C8  UNL     1      25.637   5.559  49.217  1.00  0.00     0.109 A 
HETATM   11  C9  UNL     1      26.034   4.201  49.502  1.00  0.00     0.062 A 
HETATM   12  C10 UNL     1      27.215   4.464  49.058  1.00  0.00     0.052 A 
HETATM   13  C11 UNL     1      28.102   5.334  48.502  1.00  0.00     0.266 A 
HETATM   14  C12 UNL     1      27.831   6.610  48.115  1.00  0.00     0.275 A 
HETATM   15  C14 UNL     1      26.149   6.909  48.640  1.00  0.00     0.294 A 
HETATM   16  N3  UNL     1      27.054   6.490  48.455  1.00  0.00     0.148 N 
HETATM   17  O1  UNL     1      26.476   8.142  48.617  1.00  0.00     0.000 OA
HETATM   18  N4  UNL     1      25.455   3.143  50.053  1.00  0.00    -0.340 N 
HETATM   19  C15 UNL     1      24.018   3.039  49.818  1.00  0.00     0.213 C 
HETATM   20  N5  UNL     1      23.185   3.960  49.305  1.00  0.00    -0.213 NA
HETATM   21  C16 UNL     1      26.573   2.408  50.689  1.00  0.00     0.135 C 
HETATM   22  H9  UNL     1      22.303   6.176  50.150  1.00  0.00     0.130 HD
HETATM   23  H13 UNL     1      26.934   8.477  49.483  1.00  0.00     0.000 HD
ENDROOT
BRANCH  14  24
HETATM   24  C13 UNL     1      29.251   6.932  47.330  1.00  0.00     0.270 C 
HETATM   25  F1  UNL     1      30.063   5.850  47.405  1.00  0.00    -0.253 F 
ENDBRANCH  14  24
TORSDOF 1
ENDMDL
MODEL 6
REMARK VINA RESULT:      -7.6      9.481     11.779
REMARK  1 active torsions:
REMARK  status: ('A' for Active; 'I' for Inactive)
REMARK    1  A    between atoms: C12_14  and  C13_15 
ROOT
HETATM    1  C1  UNL     1      34.089   6.060  42.557  1.00  0.00     0.012 C 
HETATM    2  C2  UNL     1      34.152   5.648  43.995  1.00  0.00    -0.032 C 
HETATM    3  C3  UNL     1      34.830   4.476  44.168  1.00  0.00     0.036 C 
HETATM    4  C4  UNL     1      35.248   3.582  45.355  1.00  0.00     0.001 C 
HETATM    5  C5  UNL     1      35.243   3.486  46.721  1.00  0.00     0.009 C 
HETATM    6  C6  UNL     1      35.033   3.823  48.120  1.00  0.00     0.101 C 
HETATM    7  N1  UNL     1      33.924   2.841  48.601  1.00  0.00    -0.261 NA
HETATM    8  C7  UNL     1      32.721   3.339  47.708  1.00  0.00     0.203 C 
HETATM    9  N2  UNL     1      32.198   4.274  48.275  1.00  0.00    -0.218 NA
HETATM   10  C8  UNL     1      31.987   5.711  48.002  1.00  0.00     0.109 A 
HETATM   11  C9  UNL     1      32.086   6.066  46.607  1.00  0.00     0.062 A 
HETATM   12  C10 UNL     1      31.697   7.261  46.895  1.00  0.00     0.052 A 
HETATM   13  C11 UNL     1      31.276   8.180  47.807  1.00  0.00     0.266 A 
HETATM   14  C12 UNL     1      31.065   7.948  49.132  1.00  0.00     0.275 A 
HETATM   15  C14 UNL     1      31.607   6.267  49.404  1.00  0.00     0.294 A 
HETATM   16  N3  UNL     1      31.376   7.164  48.988  1.00  0.00     0.148 N 
HETATM   17  O1  UNL     1      31.758   6.628  50.618  1.00  0.00     0.000 OA
HETATM   18  N4  UNL     1      32.480   5.451  45.500  1.00  0.00    -0.340 N 
HETATM   19  C15 UNL     1      32.217   4.016  45.470  1.00  0.00     0.213 C 
HETATM   20  N5  UNL     1      31.825   3.216  46.477  1.00  0.00    -0.213 NA
HETATM   21  C16 UNL     1      33.022   6.540  44.653  1.00  0.00     0.135 C 
HETATM   22  H9  UNL     1      32.957   2.380  48.580  1.00  0.00     0.130 HD
HETATM   23  H13 UNL     1      32.667   7.081  50.818  1.00  0.00     0.000 HD
ENDROOT
BRANCH  14  24
HETATM   24  C13 UNL     1      30.348   9.388  49.517  1.00  0.00     0.270 C 
HETATM   25  F1  UNL     1      31.135  10.409  49.100  1.00  0.00    -0.253 F 
ENDBRANCH  14  24
TORSDOF 1
ENDMDL
MODEL 7
REMARK VINA RESULT:      -7.3      2.163      2.553
REMARK  1 active torsions:
REMARK  status: ('A' for Active; 'I' for Inactive)
REMARK    1  A    between atoms: C12_14  and  C13_15 
ROOT
HETATM    1  C1  UNL     1      19.299   2.033  49.701  1.00  0.00     0.012 C 
HETATM    2  C2  UNL     1      20.460   2.781  50.281  1.00  0.00    -0.032 C 
HETATM    3  C3  UNL     1      20.541   4.058  49.806  1.00  0.00     0.036 C 
HETATM    4  C4  UNL     1      21.449   5.286  50.029  1.00  0.00     0.001 C 
HETATM    5  C5  UNL     1      22.501   5.762  50.765  1.00  0.00     0.009 C 
HETATM    6  C6  UNL     1      23.568   5.829  51.752  1.00  0.00     0.101 C 
HETATM    7  N1  UNL     1      24.881   5.812  50.915  1.00  0.00    -0.261 NA
HETATM    8  C7  UNL     1      24.778   4.369  50.284  1.00  0.00     0.203 C 
HETATM    9  N2  UNL     1      25.228   3.579  51.085  1.00  0.00    -0.218 NA
HETATM   10  C8  UNL     1      24.715   2.435  51.867  1.00  0.00     0.109 A 
HETATM   11  C9  UNL     1      23.507   1.851  51.335  1.00  0.00     0.062 A 
HETATM   12  C10 UNL     1      23.592   0.906  52.207  1.00  0.00     0.052 A 
HETATM   13  C11 UNL     1      24.245   0.305  53.240  1.00  0.00     0.266 A 
HETATM   14  C12 UNL     1      25.428   0.709  53.776  1.00  0.00     0.275 A 
HETATM   15  C14 UNL     1      25.818   2.243  52.946  1.00  0.00     0.294 A 
HETATM   16  N3  UNL     1      25.374   1.383  53.252  1.00  0.00     0.148 N 
HETATM   17  O1  UNL     1      26.527   2.494  53.977  1.00  0.00     0.000 OA
HETATM   18  N4  UNL     1      22.634   2.180  50.393  1.00  0.00    -0.340 N 
HETATM   19  C15 UNL     1      23.201   2.894  49.254  1.00  0.00     0.213 C 
HETATM   20  N5  UNL     1      24.426   3.433  49.129  1.00  0.00    -0.213 NA
HETATM   21  C16 UNL     1      21.351   1.616  50.874  1.00  0.00     0.135 C 
HETATM   22  H9  UNL     1      25.578   5.412  50.206  1.00  0.00     0.130 HD
HETATM   23  H13 UNL     1      26.000   2.914  54.764  1.00  0.00     0.000 HD
ENDROOT
BRANCH  14  24
HETATM   24  C13 UNL     1      25.706  -0.594  54.757  1.00  0.00     0.270 C 
HETATM   25  F1  UNL     1      24.536  -1.008  55.299  1.00  0.00    -0.253 F 
ENDBRANCH  14  24
TORSDOF 1
ENDMDL
MODEL 8
REMARK VINA RESULT:      -7.2      7.718      9.189
REMARK  1 active torsions:
REMARK  status: ('A' for Active; 'I' for Inactive)
REMARK    1  A    between atoms: C12_14  and  C13_15 
ROOT
HETATM    1  C1  UNL     1      26.324   5.630  48.618  1.00  0.00     0.012 C 
HETATM    2  C2  UNL     1      27.563   6.461  48.759  1.00  0.00    -0.032 C 
HETATM    3  C3  UNL     1      27.280   7.787  48.913  1.00  0.00     0.036 C 
HETATM    4  C4  UNL     1      28.080   9.090  49.129  1.00  0.00     0.001 C 
HETATM    5  C5  UNL     1      29.337   9.595  49.325  1.00  0.00     0.009 C 
HETATM    6  C6  UNL     1      30.777   9.654  49.524  1.00  0.00     0.101 C 
HETATM    7  N1  UNL     1      31.331  10.288  48.213  1.00  0.00    -0.261 NA
HETATM    8  C7  UNL     1      30.944   9.154  47.185  1.00  0.00     0.203 C 
HETATM    9  N2  UNL     1      31.822   8.319  47.203  1.00  0.00    -0.218 NA
HETATM   10  C8  UNL     1      31.935   6.889  47.558  1.00  0.00     0.109 A 
HETATM   11  C9  UNL     1      30.679   6.178  47.547  1.00  0.00     0.062 A 
HETATM   12  C10 UNL     1      31.315   5.074  47.742  1.00  0.00     0.052 A 
HETATM   13  C11 UNL     1      32.483   4.395  47.905  1.00  0.00     0.266 A 
HETATM   14  C12 UNL     1      33.732   4.936  47.855  1.00  0.00     0.275 A 
HETATM   15  C14 UNL     1      33.472   6.696  47.695  1.00  0.00     0.294 A 
HETATM   16  N3  UNL     1      33.341   5.694  47.785  1.00  0.00     0.148 N 
HETATM   17  O1  UNL     1      34.642   6.804  48.193  1.00  0.00     0.000 OA
HETATM   18  N4  UNL     1      29.401   6.518  47.449  1.00  0.00    -0.340 N 
HETATM   19  C15 UNL     1      29.140   7.689  46.618  1.00  0.00     0.213 C 
HETATM   20  N5  UNL     1      30.020   8.572  46.116  1.00  0.00    -0.213 NA
HETATM   21  C16 UNL     1      28.689   5.482  48.233  1.00  0.00     0.135 C 
HETATM   22  H9  UNL     1      31.486  10.354  47.155  1.00  0.00     0.130 HD
HETATM   23  H13 UNL     1      34.668   6.780  49.228  1.00  0.00     0.000 HD
ENDROOT
BRANCH  14  24
HETATM   24  C13 UNL     1      34.604   3.530  47.876  1.00  0.00     0.270 C 
HETATM   25  F1  UNL     1      33.792   2.491  47.570  1.00  0.00    -0.253 F 
ENDBRANCH  14  24
TORSDOF 1
ENDMDL
MODEL 9
REMARK VINA RESULT:      -7.2      5.121      7.558
REMARK  1 active torsions:
REMARK  status: ('A' for Active; 'I' for Inactive)
REMARK    1  A    between atoms: C12_14  and  C13_15 
ROOT
HETATM    1  C1  UNL     1      22.346  -1.047  54.895  1.00  0.00     0.012 C 
HETATM    2  C2  UNL     1      22.001  -0.427  53.576  1.00  0.00    -0.032 C 
HETATM    3  C3  UNL     1      22.991   0.391  53.114  1.00  0.00     0.036 C 
HETATM    4  C4  UNL     1      23.243   1.255  51.860  1.00  0.00     0.001 C 
HETATM    5  C5  UNL     1      22.733   1.605  50.638  1.00  0.00     0.009 C 
HETATM    6  C6  UNL     1      21.855   1.651  49.480  1.00  0.00     0.101 C 
HETATM    7  N1  UNL     1      21.201   3.064  49.536  1.00  0.00    -0.261 NA
HETATM    8  C7  UNL     1      20.374   2.922  50.873  1.00  0.00     0.203 C 
HETATM    9  N2  UNL     1      19.316   2.397  50.603  1.00  0.00    -0.218 NA
HETATM   10  C8  UNL     1      18.625   1.137  50.948  1.00  0.00     0.109 A 
HETATM   11  C9  UNL     1      19.108   0.512  52.156  1.00  0.00     0.062 A 
HETATM   12  C10 UNL     1      18.156  -0.353  52.077  1.00  0.00     0.052 A 
HETATM   13  C11 UNL     1      17.048  -0.838  51.451  1.00  0.00     0.266 A 
HETATM   14  C12 UNL     1      16.449  -0.294  50.357  1.00  0.00     0.275 A 
HETATM   15  C14 UNL     1      17.513   1.054  49.864  1.00  0.00     0.294 A 
HETATM   16  N3  UNL     1      17.101   0.261  50.343  1.00  0.00     0.148 N 
HETATM   17  O1  UNL     1      16.989   0.903  48.711  1.00  0.00     0.000 OA
HETATM   18  N4  UNL     1      20.139   0.698  52.970  1.00  0.00    -0.340 N 
HETATM   19  C15 UNL     1      20.569   2.085  53.106  1.00  0.00     0.213 C 
HETATM   20  N5  UNL     1      20.202   3.151  52.374  1.00  0.00    -0.213 NA
HETATM   21  C16 UNL     1      20.437  -0.656  53.493  1.00  0.00     0.135 C 
HETATM   22  H9  UNL     1      20.634   3.856  49.983  1.00  0.00     0.130 HD
HETATM   23  H13 UNL     1      17.441   0.174  48.130  1.00  0.00     0.000 HD
ENDROOT
BRANCH  14  24
HETATM   24  C13 UNL     1      15.086  -1.231  50.337  1.00  0.00     0.270 C 
HETATM   25  F1  UNL     1      15.248  -2.281  51.178  1.00  0.00    -0.253 F 
ENDBRANCH  14  24
TORSDOF 1
ENDMDL
