MODEL 1
REMARK VINA RESULT:      -8.9      0.000      0.000
REMARK  5 active torsions:
REMARK  status: ('A' for Active; 'I' for Inactive)
REMARK    1  A    between atoms: N1_1  and  C1_2 
REMARK    2  A    between atoms: C4_6  and  N3_7 
REMARK    3  A    between atoms: N3_7  and  C5_8 
REMARK    4  A    between atoms: C12_17  and  C13_18 
REMARK    5  A    between atoms: C13_18  and  C14_19 
ROOT
HETATM    1  C1  UNL     1      28.120   2.069  53.520  1.00  0.00     0.722 A 
HETATM    2  N2  UNL     1      27.201   1.337  54.213  1.00  0.00    -0.067 NA
HETATM    3  C2  UNL     1      26.045   1.000  53.633  1.00  0.00     0.071 A 
HETATM    4  C3  UNL     1      25.824   1.414  52.332  1.00  0.00     0.036 A 
HETATM    5  C4  UNL     1      26.743   2.157  51.610  1.00  0.00     0.159 A 
HETATM    6  N4  UNL     1      27.900   2.468  52.256  1.00  0.00    -0.044 NA
HETATM    7  C11 UNL     1      24.490   0.914  51.937  1.00  0.00     0.021 A 
HETATM    8  C12 UNL     1      23.983   0.252  52.964  1.00  0.00    -0.069 A 
HETATM    9  C20 UNL     1      24.885   0.221  54.145  1.00  0.00     0.095 A 
ENDROOT
BRANCH   5  10
HETATM   10  N3  UNL     1      26.416   2.530  50.281  1.00  0.00    -0.340 N 
HETATM   11  H3  UNL     1      26.251   1.746  49.592  1.00  0.00     0.167 HD
BRANCH  10  12
HETATM   12  C5  UNL     1      26.317   3.894  49.901  1.00  0.00     0.035 A 
HETATM   13  C6  UNL     1      27.252   4.355  48.999  1.00  0.00     0.029 A 
HETATM   14  C7  UNL     1      27.154   5.692  48.628  1.00  0.00     0.004 A 
HETATM   15  C8  UNL     1      26.151   6.469  49.167  1.00  0.00     0.019 A 
HETATM   16  C9  UNL     1      25.223   5.980  50.073  1.00  0.00     0.013 A 
HETATM   17 BR1  UNL     1      23.838   7.073  50.811  1.00  0.00    -0.051 Br
HETATM   18  C10 UNL     1      25.296   4.656  50.460  1.00  0.00     0.048 A 
ENDBRANCH  10  12
ENDBRANCH   5  10
BRANCH   1  19
HETATM   19  N1  UNL     1      29.339   2.408  54.170  1.00  0.00    -0.231 N 
HETATM   20  H1  UNL     1      29.585   3.222  54.799  1.00  0.00     0.174 HD
HETATM   21  H2  UNL     1      30.070   1.697  53.949  1.00  0.00     0.174 HD
ENDBRANCH   1  19
BRANCH   8  22
HETATM   22  C13 UNL     1      22.639  -0.404  52.945  1.00  0.00     0.073 C 
BRANCH  22  23
HETATM   23  C14 UNL     1      21.654   0.398  52.203  1.00  0.00    -0.054 A 
HETATM   24  C15 UNL     1      21.232   0.280  50.894  1.00  0.00     0.007 A 
HETATM   25  C16 UNL     1      20.282   1.151  50.389  1.00  0.00     0.001 A 
HETATM   26  C17 UNL     1      19.754   2.143  51.200  1.00  0.00     0.000 A 
HETATM   27  C18 UNL     1      20.148   2.293  52.511  1.00  0.00     0.001 A 
HETATM   28  C19 UNL     1      21.098   1.411  52.993  1.00  0.00     0.007 A 
ENDBRANCH  22  23
ENDBRANCH   8  22
TORSDOF 5
ENDMDL
MODEL 2
REMARK VINA RESULT:      -8.6      2.586      5.316
REMARK  5 active torsions:
REMARK  status: ('A' for Active; 'I' for Inactive)
REMARK    1  A    between atoms: N1_1  and  C1_2 
REMARK    2  A    between atoms: C4_6  and  N3_7 
REMARK    3  A    between atoms: N3_7  and  C5_8 
REMARK    4  A    between atoms: C12_17  and  C13_18 
REMARK    5  A    between atoms: C13_18  and  C14_19 
ROOT
HETATM    1  C1  UNL     1      21.005   1.822  49.690  1.00  0.00     0.722 A 
HETATM    2  N2  UNL     1      21.104   0.689  50.441  1.00  0.00    -0.067 NA
HETATM    3  C2  UNL     1      22.003   0.621  51.429  1.00  0.00     0.071 A 
HETATM    4  C3  UNL     1      22.809   1.722  51.651  1.00  0.00     0.036 A 
HETATM    5  C4  UNL     1      22.725   2.884  50.901  1.00  0.00     0.159 A 
HETATM    6  N4  UNL     1      21.791   2.890  49.912  1.00  0.00    -0.044 NA
HETATM    7  C11 UNL     1      23.700   1.389  52.783  1.00  0.00     0.021 A 
HETATM    8  C12 UNL     1      23.411   0.159  53.179  1.00  0.00    -0.069 A 
HETATM    9  C20 UNL     1      22.322  -0.471  52.388  1.00  0.00     0.095 A 
ENDROOT
BRANCH   5  10
HETATM   10  N3  UNL     1      23.600   3.955  51.214  1.00  0.00    -0.340 N 
HETATM   11  H3  UNL     1      23.371   4.523  52.076  1.00  0.00     0.167 HD
BRANCH  10  12
HETATM   12  C5  UNL     1      24.727   4.248  50.404  1.00  0.00     0.035 A 
HETATM   13  C6  UNL     1      25.680   3.258  50.288  1.00  0.00     0.029 A 
HETATM   14  C7  UNL     1      26.785   3.547  49.493  1.00  0.00     0.004 A 
HETATM   15  C8  UNL     1      26.869   4.777  48.877  1.00  0.00     0.019 A 
HETATM   16  C9  UNL     1      25.895   5.754  49.009  1.00  0.00     0.013 A 
HETATM   17 BR1  UNL     1      26.028   7.456  48.146  1.00  0.00    -0.051 Br
HETATM   18  C10 UNL     1      24.787   5.497  49.793  1.00  0.00     0.048 A 
ENDBRANCH  10  12
ENDBRANCH   5  10
BRANCH   1  19
HETATM   19  N1  UNL     1      20.037   1.857  48.649  1.00  0.00    -0.231 N 
HETATM   20  H1  UNL     1      19.999   2.424  47.757  1.00  0.00     0.174 HD
HETATM   21  H2  UNL     1      19.263   1.190  48.861  1.00  0.00     0.174 HD
ENDBRANCH   1  19
BRANCH   8  22
HETATM   22  C13 UNL     1      24.106  -0.533  54.308  1.00  0.00     0.073 C 
BRANCH  22  23
HETATM   23  C14 UNL     1      25.570  -0.430  54.188  1.00  0.00    -0.054 A 
HETATM   24  C15 UNL     1      26.473   0.225  55.001  1.00  0.00     0.007 A 
HETATM   25  C16 UNL     1      27.824   0.193  54.703  1.00  0.00     0.001 A 
HETATM   26  C17 UNL     1      28.271  -0.497  53.587  1.00  0.00     0.000 A 
HETATM   27  C18 UNL     1      27.401  -1.165  52.753  1.00  0.00     0.001 A 
HETATM   28  C19 UNL     1      26.055  -1.119  53.071  1.00  0.00     0.007 A 
ENDBRANCH  22  23
ENDBRANCH   8  22
TORSDOF 5
ENDMDL
MODEL 3
REMARK VINA RESULT:      -8.5      1.272      1.968
REMARK  5 active torsions:
REMARK  status: ('A' for Active; 'I' for Inactive)
REMARK    1  A    between atoms: N1_1  and  C1_2 
REMARK    2  A    between atoms: C4_6  and  N3_7 
REMARK    3  A    between atoms: N3_7  and  C5_8 
REMARK    4  A    between atoms: C12_17  and  C13_18 
REMARK    5  A    between atoms: C13_18  and  C14_19 
ROOT
HETATM    1  C1  UNL     1      28.565   1.917  53.925  1.00  0.00     0.722 A 
HETATM    2  N2  UNL     1      27.775   1.123  54.704  1.00  0.00    -0.067 NA
HETATM    3  C2  UNL     1      26.633   0.634  54.211  1.00  0.00     0.071 A 
HETATM    4  C3  UNL     1      26.294   0.959  52.911  1.00  0.00     0.036 A 
HETATM    5  C4  UNL     1      27.081   1.762  52.102  1.00  0.00     0.159 A 
HETATM    6  N4  UNL     1      28.230   2.228  52.662  1.00  0.00    -0.044 NA
HETATM    7  C11 UNL     1      25.003   0.298  52.619  1.00  0.00     0.021 A 
HETATM    8  C12 UNL     1      24.632  -0.366  53.702  1.00  0.00    -0.069 A 
HETATM    9  C20 UNL     1      25.597  -0.240  54.826  1.00  0.00     0.095 A 
ENDROOT
BRANCH   5  10
HETATM   10  N3  UNL     1      26.639   2.032  50.782  1.00  0.00    -0.340 N 
HETATM   11  H3  UNL     1      26.741   1.252  50.075  1.00  0.00     0.167 HD
BRANCH  10  12
HETATM   12  C5  UNL     1      26.089   3.292  50.432  1.00  0.00     0.035 A 
HETATM   13  C6  UNL     1      24.826   3.570  50.908  1.00  0.00     0.029 A 
HETATM   14  C7  UNL     1      24.288   4.807  50.563  1.00  0.00     0.004 A 
HETATM   15  C8  UNL     1      25.027   5.669  49.783  1.00  0.00     0.019 A 
HETATM   16  C9  UNL     1      26.296   5.365  49.318  1.00  0.00     0.013 A 
HETATM   17 BR1  UNL     1      27.309   6.574  48.236  1.00  0.00    -0.051 Br
HETATM   18  C10 UNL     1      26.857   4.144  49.643  1.00  0.00     0.048 A 
ENDBRANCH  10  12
ENDBRANCH   5  10
BRANCH   1  19
HETATM   19  N1  UNL     1      29.774   2.417  54.484  1.00  0.00    -0.231 N 
HETATM   20  H1  UNL     1      30.706   1.946  54.652  1.00  0.00     0.174 HD
HETATM   21  H2  UNL     1      29.654   3.418  54.752  1.00  0.00     0.174 HD
ENDBRANCH   1  19
BRANCH   8  22
HETATM   22  C13 UNL     1      23.371  -1.164  53.795  1.00  0.00     0.073 C 
BRANCH  22  23
HETATM   23  C14 UNL     1      22.191  -0.357  53.444  1.00  0.00    -0.054 A 
HETATM   24  C15 UNL     1      21.259   0.240  54.269  1.00  0.00     0.007 A 
HETATM   25  C16 UNL     1      20.213   0.964  53.725  1.00  0.00     0.001 A 
HETATM   26  C17 UNL     1      20.102   1.091  52.349  1.00  0.00     0.000 A 
HETATM   27  C18 UNL     1      21.012   0.511  51.493  1.00  0.00     0.001 A 
HETATM   28  C19 UNL     1      22.048  -0.208  52.061  1.00  0.00     0.007 A 
ENDBRANCH  22  23
ENDBRANCH   8  22
TORSDOF 5
ENDMDL
MODEL 4
REMARK VINA RESULT:      -8.4      2.540      5.252
REMARK  5 active torsions:
REMARK  status: ('A' for Active; 'I' for Inactive)
REMARK    1  A    between atoms: N1_1  and  C1_2 
REMARK    2  A    between atoms: C4_6  and  N3_7 
REMARK    3  A    between atoms: N3_7  and  C5_8 
REMARK    4  A    between atoms: C12_17  and  C13_18 
REMARK    5  A    between atoms: C13_18  and  C14_19 
ROOT
HETATM    1  C1  UNL     1      22.869   2.609  49.742  1.00  0.00     0.722 A 
HETATM    2  N2  UNL     1      22.828   2.022  50.972  1.00  0.00    -0.067 NA
HETATM    3  C2  UNL     1      23.953   1.880  51.679  1.00  0.00     0.071 A 
HETATM    4  C3  UNL     1      25.133   2.341  51.125  1.00  0.00     0.036 A 
HETATM    5  C4  UNL     1      25.198   2.941  49.878  1.00  0.00     0.159 A 
HETATM    6  N4  UNL     1      24.019   3.056  49.209  1.00  0.00    -0.044 NA
HETATM    7  C11 UNL     1      26.210   2.065  52.100  1.00  0.00     0.021 A 
HETATM    8  C12 UNL     1      25.664   1.476  53.152  1.00  0.00    -0.069 A 
HETATM    9  C20 UNL     1      24.196   1.287  53.023  1.00  0.00     0.095 A 
ENDROOT
BRANCH   5  10
HETATM   10  N3  UNL     1      26.460   3.379  49.404  1.00  0.00    -0.340 N 
HETATM   11  H3  UNL     1      27.193   2.635  49.239  1.00  0.00     0.167 HD
BRANCH  10  12
HETATM   12  C5  UNL     1      26.722   4.753  49.164  1.00  0.00     0.035 A 
HETATM   13  C6  UNL     1      27.887   5.054  48.492  1.00  0.00     0.029 A 
HETATM   14  C7  UNL     1      28.141   6.403  48.259  1.00  0.00     0.004 A 
HETATM   15  C8  UNL     1      27.238   7.345  48.700  1.00  0.00     0.019 A 
HETATM   16  C9  UNL     1      26.073   7.014  49.375  1.00  0.00     0.013 A 
HETATM   17 BR1  UNL     1      24.830   8.336  49.981  1.00  0.00    -0.051 Br
HETATM   18  C10 UNL     1      25.793   5.684  49.621  1.00  0.00     0.048 A 
ENDBRANCH  10  12
ENDBRANCH   5  10
BRANCH   1  19
HETATM   19  N1  UNL     1      21.651   2.744  49.020  1.00  0.00    -0.231 N 
HETATM   20  H1  UNL     1      21.355   3.446  48.286  1.00  0.00     0.174 HD
HETATM   21  H2  UNL     1      20.982   1.997  49.308  1.00  0.00     0.174 HD
ENDBRANCH   1  19
BRANCH   8  22
HETATM   22  C13 UNL     1      26.441   1.041  54.354  1.00  0.00     0.073 C 
BRANCH  22  23
HETATM   23  C14 UNL     1      27.538   0.128  53.990  1.00  0.00    -0.054 A 
HETATM   24  C15 UNL     1      28.897   0.269  54.185  1.00  0.00     0.007 A 
HETATM   25  C16 UNL     1      29.765  -0.723  53.761  1.00  0.00     0.001 A 
HETATM   26  C17 UNL     1      29.267  -1.858  53.140  1.00  0.00     0.000 A 
HETATM   27  C18 UNL     1      27.918  -2.035  52.929  1.00  0.00     0.001 A 
HETATM   28  C19 UNL     1      27.071  -1.031  53.361  1.00  0.00     0.007 A 
ENDBRANCH  22  23
ENDBRANCH   8  22
TORSDOF 5
ENDMDL
MODEL 5
REMARK VINA RESULT:      -8.2      2.042      2.373
REMARK  5 active torsions:
REMARK  status: ('A' for Active; 'I' for Inactive)
REMARK    1  A    between atoms: N1_1  and  C1_2 
REMARK    2  A    between atoms: C4_6  and  N3_7 
REMARK    3  A    between atoms: N3_7  and  C5_8 
REMARK    4  A    between atoms: C12_17  and  C13_18 
REMARK    5  A    between atoms: C13_18  and  C14_19 
ROOT
HETATM    1  C1  UNL     1      26.922   0.262  54.464  1.00  0.00     0.722 A 
HETATM    2  N2  UNL     1      25.927  -0.669  54.435  1.00  0.00    -0.067 NA
HETATM    3  C2  UNL     1      24.716  -0.335  53.979  1.00  0.00     0.071 A 
HETATM    4  C3  UNL     1      24.519   0.964  53.547  1.00  0.00     0.036 A 
HETATM    5  C4  UNL     1      25.515   1.926  53.567  1.00  0.00     0.159 A 
HETATM    6  N4  UNL     1      26.725   1.523  54.042  1.00  0.00    -0.044 NA
HETATM    7  C11 UNL     1      23.113   1.066  53.099  1.00  0.00     0.021 A 
HETATM    8  C12 UNL     1      22.545  -0.117  53.271  1.00  0.00    -0.069 A 
HETATM    9  C20 UNL     1      23.469  -1.134  53.838  1.00  0.00     0.095 A 
ENDROOT
BRANCH   5  10
HETATM   10  N3  UNL     1      25.207   3.229  53.100  1.00  0.00    -0.340 N 
HETATM   11  H3  UNL     1      25.377   4.029  53.771  1.00  0.00     0.167 HD
BRANCH  10  12
HETATM   12  C5  UNL     1      24.693   3.442  51.795  1.00  0.00     0.035 A 
HETATM   13  C6  UNL     1      25.506   3.078  50.743  1.00  0.00     0.029 A 
HETATM   14  C7  UNL     1      25.001   3.289  49.463  1.00  0.00     0.004 A 
HETATM   15  C8  UNL     1      23.745   3.837  49.317  1.00  0.00     0.019 A 
HETATM   16  C9  UNL     1      22.948   4.194  50.393  1.00  0.00     0.013 A 
HETATM   17 BR1  UNL     1      21.206   4.953  50.170  1.00  0.00    -0.051 Br
HETATM   18  C10 UNL     1      23.423   3.997  51.675  1.00  0.00     0.048 A 
ENDBRANCH  10  12
ENDBRANCH   5  10
BRANCH   1  19
HETATM   19  N1  UNL     1      28.198  -0.132  54.955  1.00  0.00    -0.231 N 
HETATM   20  H1  UNL     1      28.653  -1.085  55.013  1.00  0.00     0.174 HD
HETATM   21  H2  UNL     1      28.719   0.703  55.301  1.00  0.00     0.174 HD
ENDBRANCH   1  19
BRANCH   8  22
HETATM   22  C13 UNL     1      21.119  -0.409  52.930  1.00  0.00     0.073 C 
BRANCH  22  23
HETATM   23  C14 UNL     1      20.719   0.238  51.669  1.00  0.00    -0.054 A 
HETATM   24  C15 UNL     1      21.464   0.484  50.534  1.00  0.00     0.007 A 
HETATM   25  C16 UNL     1      20.884   1.112  49.446  1.00  0.00     0.001 A 
HETATM   26  C17 UNL     1      19.553   1.496  49.497  1.00  0.00     0.000 A 
HETATM   27  C18 UNL     1      18.776   1.268  50.612  1.00  0.00     0.001 A 
HETATM   28  C19 UNL     1      19.378   0.638  51.686  1.00  0.00     0.007 A 
ENDBRANCH  22  23
ENDBRANCH   8  22
TORSDOF 5
ENDMDL
MODEL 6
REMARK VINA RESULT:      -8.2      3.816      6.368
REMARK  5 active torsions:
REMARK  status: ('A' for Active; 'I' for Inactive)
REMARK    1  A    between atoms: N1_1  and  C1_2 
REMARK    2  A    between atoms: C4_6  and  N3_7 
REMARK    3  A    between atoms: N3_7  and  C5_8 
REMARK    4  A    between atoms: C12_17  and  C13_18 
REMARK    5  A    between atoms: C13_18  and  C14_19 
ROOT
HETATM    1  C1  UNL     1      18.659  -0.962  53.201  1.00  0.00     0.722 A 
HETATM    2  N2  UNL     1      19.598  -1.693  53.867  1.00  0.00    -0.067 NA
HETATM    3  C2  UNL     1      20.851  -1.236  53.964  1.00  0.00     0.071 A 
HETATM    4  C3  UNL     1      21.147  -0.021  53.375  1.00  0.00     0.036 A 
HETATM    5  C4  UNL     1      20.210   0.738  52.695  1.00  0.00     0.159 A 
HETATM    6  N4  UNL     1      18.953   0.219  52.631  1.00  0.00    -0.044 NA
HETATM    7  C11 UNL     1      22.579   0.248  53.628  1.00  0.00     0.021 A 
HETATM    8  C12 UNL     1      23.066  -0.767  54.323  1.00  0.00    -0.069 A 
HETATM    9  C20 UNL     1      22.055  -1.815  54.620  1.00  0.00     0.095 A 
ENDROOT
BRANCH   5  10
HETATM   10  N3  UNL     1      20.620   1.972  52.128  1.00  0.00    -0.340 N 
HETATM   11  H3  UNL     1      20.372   2.849  52.663  1.00  0.00     0.167 HD
BRANCH  10  12
HETATM   12  C5  UNL     1      21.329   2.020  50.901  1.00  0.00     0.035 A 
HETATM   13  C6  UNL     1      20.761   1.363  49.831  1.00  0.00     0.029 A 
HETATM   14  C7  UNL     1      21.458   1.410  48.627  1.00  0.00     0.004 A 
HETATM   15  C8  UNL     1      22.652   2.095  48.568  1.00  0.00     0.019 A 
HETATM   16  C9  UNL     1      23.202   2.748  49.660  1.00  0.00     0.013 A 
HETATM   17 BR1  UNL     1      24.862   3.694  49.559  1.00  0.00    -0.051 Br
HETATM   18  C10 UNL     1      22.533   2.718  50.868  1.00  0.00     0.048 A 
ENDBRANCH  10  12
ENDBRANCH   5  10
BRANCH   1  19
HETATM   19  N1  UNL     1      17.337  -1.481  53.119  1.00  0.00    -0.231 N 
HETATM   20  H1  UNL     1      16.399  -1.009  53.250  1.00  0.00     0.174 HD
HETATM   21  H2  UNL     1      17.367  -2.498  52.891  1.00  0.00     0.174 HD
ENDBRANCH   1  19
BRANCH   8  22
HETATM   22  C13 UNL     1      24.491  -0.858  54.771  1.00  0.00     0.073 C 
BRANCH  22  23
HETATM   23  C14 UNL     1      25.369   0.005  53.964  1.00  0.00    -0.054 A 
HETATM   24  C15 UNL     1      25.809   1.289  54.214  1.00  0.00     0.007 A 
HETATM   25  C16 UNL     1      26.642   1.925  53.310  1.00  0.00     0.001 A 
HETATM   26  C17 UNL     1      27.035   1.272  52.153  1.00  0.00     0.000 A 
HETATM   27  C18 UNL     1      26.618  -0.010  51.868  1.00  0.00     0.001 A 
HETATM   28  C19 UNL     1      25.786  -0.625  52.786  1.00  0.00     0.007 A 
ENDBRANCH  22  23
ENDBRANCH   8  22
TORSDOF 5
ENDMDL
MODEL 7
REMARK VINA RESULT:      -8.0      3.955      7.529
REMARK  5 active torsions:
REMARK  status: ('A' for Active; 'I' for Inactive)
REMARK    1  A    between atoms: N1_1  and  C1_2 
REMARK    2  A    between atoms: C4_6  and  N3_7 
REMARK    3  A    between atoms: N3_7  and  C5_8 
REMARK    4  A    between atoms: C12_17  and  C13_18 
REMARK    5  A    between atoms: C13_18  and  C14_19 
ROOT
HETATM    1  C1  UNL     1      20.755   2.478  48.957  1.00  0.00     0.722 A 
HETATM    2  N2  UNL     1      22.040   2.688  48.553  1.00  0.00    -0.067 NA
HETATM    3  C2  UNL     1      23.026   2.711  49.455  1.00  0.00     0.071 A 
HETATM    4  C3  UNL     1      22.696   2.518  50.784  1.00  0.00     0.036 A 
HETATM    5  C4  UNL     1      21.398   2.303  51.217  1.00  0.00     0.159 A 
HETATM    6  N4  UNL     1      20.441   2.290  50.250  1.00  0.00    -0.044 NA
HETATM    7  C11 UNL     1      23.953   2.590  51.559  1.00  0.00     0.021 A 
HETATM    8  C12 UNL     1      24.943   2.813  50.710  1.00  0.00    -0.069 A 
HETATM    9  C20 UNL     1      24.491   2.916  49.297  1.00  0.00     0.095 A 
ENDROOT
BRANCH   5  10
HETATM   10  N3  UNL     1      21.170   2.115  52.604  1.00  0.00    -0.340 N 
HETATM   11  H3  UNL     1      21.110   2.987  53.200  1.00  0.00     0.167 HD
BRANCH  10  12
HETATM   12  C5  UNL     1      21.031   0.817  53.159  1.00  0.00     0.035 A 
HETATM   13  C6  UNL     1      22.146   0.279  53.764  1.00  0.00     0.029 A 
HETATM   14  C7  UNL     1      22.007  -0.995  54.308  1.00  0.00     0.004 A 
HETATM   15  C8  UNL     1      20.791  -1.637  54.217  1.00  0.00     0.019 A 
HETATM   16  C9  UNL     1      19.684  -1.072  53.603  1.00  0.00     0.013 A 
HETATM   17 BR1  UNL     1      18.004  -1.979  53.486  1.00  0.00    -0.051 Br
HETATM   18  C10 UNL     1      19.792   0.191  53.054  1.00  0.00     0.048 A 
ENDBRANCH  10  12
ENDBRANCH   5  10
BRANCH   1  19
HETATM   19  N1  UNL     1      19.733   2.459  47.967  1.00  0.00    -0.231 N 
HETATM   20  H1  UNL     1      19.718   2.039  46.996  1.00  0.00     0.174 HD
HETATM   21  H2  UNL     1      18.887   2.958  48.319  1.00  0.00     0.174 HD
ENDBRANCH   1  19
BRANCH   8  22
HETATM   22  C13 UNL     1      26.374   2.949  51.122  1.00  0.00     0.073 C 
BRANCH  22  23
HETATM   23  C14 UNL     1      26.830   1.780  51.891  1.00  0.00    -0.054 A 
HETATM   24  C15 UNL     1      26.529   0.444  51.720  1.00  0.00     0.007 A 
HETATM   25  C16 UNL     1      27.075  -0.505  52.568  1.00  0.00     0.001 A 
HETATM   26  C17 UNL     1      27.924  -0.112  53.590  1.00  0.00     0.000 A 
HETATM   27  C18 UNL     1      28.250   1.211  53.793  1.00  0.00     0.001 A 
HETATM   28  C19 UNL     1      27.692   2.140  52.933  1.00  0.00     0.007 A 
ENDBRANCH  22  23
ENDBRANCH   8  22
TORSDOF 5
ENDMDL
MODEL 8
REMARK VINA RESULT:      -8.0      4.061      6.529
REMARK  5 active torsions:
REMARK  status: ('A' for Active; 'I' for Inactive)
REMARK    1  A    between atoms: N1_1  and  C1_2 
REMARK    2  A    between atoms: C4_6  and  N3_7 
REMARK    3  A    between atoms: N3_7  and  C5_8 
REMARK    4  A    between atoms: C12_17  and  C13_18 
REMARK    5  A    between atoms: C13_18  and  C14_19 
ROOT
HETATM    1  C1  UNL     1      20.963  -0.797  53.812  1.00  0.00     0.722 A 
HETATM    2  N2  UNL     1      22.228  -1.167  54.161  1.00  0.00    -0.067 NA
HETATM    3  C2  UNL     1      23.267  -0.405  53.802  1.00  0.00     0.071 A 
HETATM    4  C3  UNL     1      23.011   0.745  53.079  1.00  0.00     0.036 A 
HETATM    5  C4  UNL     1      21.735   1.140  52.713  1.00  0.00     0.159 A 
HETATM    6  N4  UNL     1      20.721   0.323  53.109  1.00  0.00    -0.044 NA
HETATM    7  C11 UNL     1      24.314   1.392  52.815  1.00  0.00     0.021 A 
HETATM    8  C12 UNL     1      25.258   0.644  53.362  1.00  0.00    -0.069 A 
HETATM    9  C20 UNL     1      24.726  -0.566  54.043  1.00  0.00     0.095 A 
ENDROOT
BRANCH   5  10
HETATM   10  N3  UNL     1      21.584   2.339  51.971  1.00  0.00    -0.340 N 
HETATM   11  H3  UNL     1      21.699   3.246  52.502  1.00  0.00     0.167 HD
BRANCH  10  12
HETATM   12  C5  UNL     1      21.292   2.315  50.583  1.00  0.00     0.035 A 
HETATM   13  C6  UNL     1      22.214   1.696  49.767  1.00  0.00     0.029 A 
HETATM   14  C7  UNL     1      21.926   1.674  48.405  1.00  0.00     0.004 A 
HETATM   15  C8  UNL     1      20.762   2.258  47.954  1.00  0.00     0.019 A 
HETATM   16  C9  UNL     1      19.851   2.874  48.797  1.00  0.00     0.013 A 
HETATM   17 BR1  UNL     1      18.241   3.680  48.152  1.00  0.00    -0.051 Br
HETATM   18  C10 UNL     1      20.110   2.912  50.154  1.00  0.00     0.048 A 
ENDBRANCH  10  12
ENDBRANCH   5  10
BRANCH   1  19
HETATM   19  N1  UNL     1      19.883  -1.632  54.213  1.00  0.00    -0.231 N 
HETATM   20  H1  UNL     1      19.601  -1.987  55.168  1.00  0.00     0.174 HD
HETATM   21  H2  UNL     1      19.315  -1.903  53.381  1.00  0.00     0.174 HD
ENDBRANCH   1  19
BRANCH   8  22
HETATM   22  C13 UNL     1      26.715   0.974  53.305  1.00  0.00     0.073 C 
BRANCH  22  23
HETATM   23  C14 UNL     1      27.545  -0.240  53.233  1.00  0.00    -0.054 A 
HETATM   24  C15 UNL     1      27.245  -1.478  52.703  1.00  0.00     0.007 A 
HETATM   25  C16 UNL     1      28.183  -2.495  52.739  1.00  0.00     0.001 A 
HETATM   26  C17 UNL     1      29.426  -2.268  53.308  1.00  0.00     0.000 A 
HETATM   27  C18 UNL     1      29.764  -1.046  53.846  1.00  0.00     0.001 A 
HETATM   28  C19 UNL     1      28.810  -0.046  53.799  1.00  0.00     0.007 A 
ENDBRANCH  22  23
ENDBRANCH   8  22
TORSDOF 5
ENDMDL
MODEL 9
REMARK VINA RESULT:      -7.9      3.128      5.331
REMARK  5 active torsions:
REMARK  status: ('A' for Active; 'I' for Inactive)
REMARK    1  A    between atoms: N1_1  and  C1_2 
REMARK    2  A    between atoms: C4_6  and  N3_7 
REMARK    3  A    between atoms: N3_7  and  C5_8 
REMARK    4  A    between atoms: C12_17  and  C13_18 
REMARK    5  A    between atoms: C13_18  and  C14_19 
ROOT
HETATM    1  C1  UNL     1      23.692   5.171  51.808  1.00  0.00     0.722 A 
HETATM    2  N2  UNL     1      22.357   5.020  51.578  1.00  0.00    -0.067 NA
HETATM    3  C2  UNL     1      21.875   3.827  51.214  1.00  0.00     0.071 A 
HETATM    4  C3  UNL     1      22.766   2.778  51.083  1.00  0.00     0.036 A 
HETATM    5  C4  UNL     1      24.126   2.909  51.312  1.00  0.00     0.159 A 
HETATM    6  N4  UNL     1      24.553   4.147  51.680  1.00  0.00    -0.044 NA
HETATM    7  C11 UNL     1      21.984   1.591  50.677  1.00  0.00     0.021 A 
HETATM    8  C12 UNL     1      20.715   1.953  50.583  1.00  0.00    -0.069 A 
HETATM    9  C20 UNL     1      20.488   3.386  50.905  1.00  0.00     0.095 A 
ENDROOT
BRANCH   5  10
HETATM   10  N3  UNL     1      24.951   1.767  51.149  1.00  0.00    -0.340 N 
HETATM   11  H3  UNL     1      25.166   1.470  50.157  1.00  0.00     0.167 HD
BRANCH  10  12
HETATM   12  C5  UNL     1      25.462   1.061  52.268  1.00  0.00     0.035 A 
HETATM   13  C6  UNL     1      24.538   0.463  53.098  1.00  0.00     0.029 A 
HETATM   14  C7  UNL     1      25.041  -0.229  54.196  1.00  0.00     0.004 A 
HETATM   15  C8  UNL     1      26.404  -0.280  54.393  1.00  0.00     0.019 A 
HETATM   16  C9  UNL     1      27.312   0.331  53.543  1.00  0.00     0.013 A 
HETATM   17 BR1  UNL     1      29.201   0.250  53.832  1.00  0.00    -0.051 Br
HETATM   18  C10 UNL     1      26.842   1.025  52.444  1.00  0.00     0.048 A 
ENDBRANCH  10  12
ENDBRANCH   5  10
BRANCH   1  19
HETATM   19  N1  UNL     1      24.167   6.455  52.195  1.00  0.00    -0.231 N 
HETATM   20  H1  UNL     1      24.442   7.295  51.614  1.00  0.00     0.174 HD
HETATM   21  H2  UNL     1      24.231   6.512  53.235  1.00  0.00     0.174 HD
ENDBRANCH   1  19
BRANCH   8  22
HETATM   22  C13 UNL     1      19.613   1.019  50.193  1.00  0.00     0.073 C 
BRANCH  22  23
HETATM   23  C14 UNL     1      19.137   0.232  51.343  1.00  0.00    -0.054 A 
HETATM   24  C15 UNL     1      19.809  -0.144  52.489  1.00  0.00     0.007 A 
HETATM   25  C16 UNL     1      19.164  -0.893  53.457  1.00  0.00     0.001 A 
HETATM   26  C17 UNL     1      17.841  -1.266  53.276  1.00  0.00     0.000 A 
HETATM   27  C18 UNL     1      17.136  -0.910  52.148  1.00  0.00     0.001 A 
HETATM   28  C19 UNL     1      17.802  -0.161  51.194  1.00  0.00     0.007 A 
ENDBRANCH  22  23
ENDBRANCH   8  22
TORSDOF 5
ENDMDL
