MODEL 1
REMARK VINA RESULT:      -8.3      0.000      0.000
REMARK  1 active torsions:
REMARK  status: ('A' for Active; 'I' for Inactive)
REMARK    1  A    between atoms: C12_18  and  O1_19 
ROOT
HETATM    1  C1  UNL     1      19.574   3.580  51.492  1.00  0.00     0.075 C 
HETATM    2  C2  UNL     1      21.033   3.635  51.726  1.00  0.00     0.081 C 
HETATM    3  N1  UNL     1      22.037   4.440  51.664  1.00  0.00    -0.180 NA
HETATM    4  N2  UNL     1      21.848   5.758  51.245  1.00  0.00    -0.284 N 
HETATM    5  C3  UNL     1      21.877   6.615  50.091  1.00  0.00     0.172 C 
HETATM    6  C4  UNL     1      20.522   7.064  49.760  1.00  0.00     0.098 C 
HETATM    7  N3  UNL     1      19.448   7.435  49.486  1.00  0.00    -0.194 NA
HETATM    8  C5  UNL     1      22.327   5.794  48.927  1.00  0.00     0.138 C 
HETATM    9  N4  UNL     1      23.513   5.693  48.413  1.00  0.00    -0.266 NA
HETATM   10  C6  UNL     1      24.736   5.209  49.001  1.00  0.00     0.033 C 
HETATM   11  C7  UNL     1      25.520   4.223  49.384  1.00  0.00     0.002 C 
HETATM   12  C8  UNL     1      26.613   3.369  49.914  1.00  0.00     0.059 C 
HETATM   13  C9  UNL     1      26.089   2.487  51.042  1.00  0.00     0.273 C 
HETATM   14  N5  UNL     1      25.553   3.259  52.118  1.00  0.00     0.085 N 
HETATM   15  C10 UNL     1      25.047   2.448  53.175  1.00  0.00     0.291 C 
HETATM   16  C11 UNL     1      23.793   1.652  52.772  1.00  0.00     0.179 C 
HETATM   17  N6  UNL     1      22.753   2.510  52.348  1.00  0.00    -0.283 NA
HETATM   18  C12 UNL     1      21.518   2.336  52.185  1.00  0.00     0.107 C 
HETATM   19  C15 UNL     1      25.701   6.212  49.453  1.00  0.00     0.085 C 
HETATM   20  C16 UNL     1      25.070   6.889  50.658  1.00  0.00    -0.025 C 
HETATM   21  C17 UNL     1      23.990   7.571  50.984  1.00  0.00    -0.026 C 
HETATM   22  C18 UNL     1      22.715   7.845  50.265  1.00  0.00     0.081 C 
HETATM   23  H4  UNL     1      21.594   6.284  52.110  1.00  0.00     0.185 HD
HETATM   24  H11 UNL     1      24.778   3.868  51.768  1.00  0.00     0.315 HD
ENDROOT
BRANCH  18  25
HETATM   25  O1  UNL     1      20.931   1.111  52.439  1.00  0.00     0.000 OA
HETATM   26  C13 UNL     1      20.480   0.779  53.732  1.00  0.00    -0.008 A 
HETATM   27  C14 UNL     1      19.861  -0.055  52.891  1.00  0.00     0.258 A 
HETATM   28 CL1  UNL     1      18.731  -1.277  53.431  1.00  0.00    -0.251 Cl
ENDBRANCH  18  25
TORSDOF 1
ENDMDL
MODEL 2
REMARK VINA RESULT:      -8.2      3.767      6.510
REMARK  1 active torsions:
REMARK  status: ('A' for Active; 'I' for Inactive)
REMARK    1  A    between atoms: C12_18  and  O1_19 
ROOT
HETATM    1  C1  UNL     1      25.281  -0.653  54.207  1.00  0.00     0.075 C 
HETATM    2  C2  UNL     1      24.945   0.506  53.353  1.00  0.00     0.081 C 
HETATM    3  N1  UNL     1      23.950   1.242  52.994  1.00  0.00    -0.180 NA
HETATM    4  N2  UNL     1      22.675   0.984  53.499  1.00  0.00    -0.284 N 
HETATM    5  C3  UNL     1      21.452   0.277  53.233  1.00  0.00     0.172 C 
HETATM    6  C4  UNL     1      21.280  -0.815  54.195  1.00  0.00     0.098 C 
HETATM    7  N3  UNL     1      21.126  -1.688  54.957  1.00  0.00    -0.194 NA
HETATM    8  C5  UNL     1      21.587  -0.377  51.898  1.00  0.00     0.138 C 
HETATM    9  N4  UNL     1      21.158   0.033  50.745  1.00  0.00    -0.266 NA
HETATM   10  C6  UNL     1      21.498   1.220  50.002  1.00  0.00     0.033 C 
HETATM   11  C7  UNL     1      22.312   1.895  49.217  1.00  0.00     0.002 C 
HETATM   12  C8  UNL     1      22.988   2.902  48.361  1.00  0.00     0.059 C 
HETATM   13  C9  UNL     1      24.352   3.254  48.944  1.00  0.00     0.273 C 
HETATM   14  N5  UNL     1      24.247   3.780  50.268  1.00  0.00     0.085 N 
HETATM   15  C10 UNL     1      25.516   4.102  50.831  1.00  0.00     0.291 C 
HETATM   16  C11 UNL     1      26.381   2.861  51.109  1.00  0.00     0.179 C 
HETATM   17  N6  UNL     1      25.731   1.966  51.988  1.00  0.00    -0.283 NA
HETATM   18  C12 UNL     1      26.141   0.994  52.673  1.00  0.00     0.107 C 
HETATM   19  C15 UNL     1      20.547   2.330  50.047  1.00  0.00     0.085 C 
HETATM   20  C16 UNL     1      20.602   2.873  51.464  1.00  0.00    -0.025 C 
HETATM   21  C17 UNL     1      20.418   2.475  52.708  1.00  0.00    -0.026 C 
HETATM   22  C18 UNL     1      20.223   1.131  53.317  1.00  0.00     0.081 C 
HETATM   23  H4  UNL     1      22.627   1.513  54.398  1.00  0.00     0.185 HD
HETATM   24  H11 UNL     1      23.775   3.085  50.891  1.00  0.00     0.315 HD
ENDROOT
BRANCH  18  25
HETATM   25  O1  UNL     1      27.472   0.622  52.655  1.00  0.00     0.000 OA
HETATM   26  C13 UNL     1      28.379   1.132  53.607  1.00  0.00    -0.008 A 
HETATM   27  C14 UNL     1      28.946   0.035  53.096  1.00  0.00     0.258 A 
HETATM   28 CL1  UNL     1      30.517  -0.543  53.605  1.00  0.00    -0.251 Cl
ENDBRANCH  18  25
TORSDOF 1
ENDMDL
MODEL 3
REMARK VINA RESULT:      -7.5      3.411      5.959
REMARK  1 active torsions:
REMARK  status: ('A' for Active; 'I' for Inactive)
REMARK    1  A    between atoms: C12_18  and  O1_19 
ROOT
HETATM    1  C1  UNL     1      25.978   3.463  50.839  1.00  0.00     0.075 C 
HETATM    2  C2  UNL     1      25.010   2.422  51.243  1.00  0.00     0.081 C 
HETATM    3  N1  UNL     1      23.876   1.909  50.905  1.00  0.00    -0.180 NA
HETATM    4  N2  UNL     1      23.196   2.399  49.789  1.00  0.00    -0.284 N 
HETATM    5  C3  UNL     1      22.195   3.343  49.374  1.00  0.00     0.172 C 
HETATM    6  C4  UNL     1      22.807   4.417  48.587  1.00  0.00     0.098 C 
HETATM    7  N3  UNL     1      23.281   5.278  47.954  1.00  0.00    -0.194 NA
HETATM    8  C5  UNL     1      21.652   3.999  50.600  1.00  0.00     0.138 C 
HETATM    9  N4  UNL     1      20.573   3.720  51.262  1.00  0.00    -0.266 NA
HETATM   10  C6  UNL     1      20.203   2.513  51.958  1.00  0.00     0.033 C 
HETATM   11  C7  UNL     1      20.279   1.715  53.003  1.00  0.00     0.002 C 
HETATM   12  C8  UNL     1      20.145   0.621  53.997  1.00  0.00     0.059 C 
HETATM   13  C9  UNL     1      21.505  -0.014  54.266  1.00  0.00     0.273 C 
HETATM   14  N5  UNL     1      22.088  -0.550  53.077  1.00  0.00     0.085 N 
HETATM   15  C10 UNL     1      23.366  -1.135  53.310  1.00  0.00     0.291 C 
HETATM   16  C11 UNL     1      24.440  -0.099  53.685  1.00  0.00     0.179 C 
HETATM   17  N6  UNL     1      24.588   0.878  52.676  1.00  0.00    -0.283 NA
HETATM   18  C12 UNL     1      25.485   1.727  52.437  1.00  0.00     0.107 C 
HETATM   19  C15 UNL     1      19.269   1.613  51.281  1.00  0.00     0.085 C 
HETATM   20  C16 UNL     1      20.031   1.025  50.105  1.00  0.00    -0.025 C 
HETATM   21  C17 UNL     1      20.671   1.413  49.020  1.00  0.00    -0.026 C 
HETATM   22  C18 UNL     1      21.108   2.749  48.530  1.00  0.00     0.081 C 
HETATM   23  H4  UNL     1      23.579   1.862  48.980  1.00  0.00     0.185 HD
HETATM   24  H11 UNL     1      22.195   0.206  52.361  1.00  0.00     0.315 HD
ENDROOT
BRANCH  18  25
HETATM   25  O1  UNL     1      26.604   1.828  53.241  1.00  0.00     0.000 OA
HETATM   26  C13 UNL     1      27.800   1.163  52.904  1.00  0.00    -0.008 A 
HETATM   27  C14 UNL     1      28.133   2.118  53.777  1.00  0.00     0.258 A 
HETATM   28 CL1  UNL     1      29.779   2.381  54.310  1.00  0.00    -0.251 Cl
ENDBRANCH  18  25
TORSDOF 1
ENDMDL
MODEL 4
REMARK VINA RESULT:      -7.4      3.321      5.651
REMARK  1 active torsions:
REMARK  status: ('A' for Active; 'I' for Inactive)
REMARK    1  A    between atoms: C12_18  and  O1_19 
ROOT
HETATM    1  C1  UNL     1      22.690  -0.810  54.066  1.00  0.00     0.075 C 
HETATM    2  C2  UNL     1      22.829   0.459  53.320  1.00  0.00     0.081 C 
HETATM    3  N1  UNL     1      22.128   1.391  52.770  1.00  0.00    -0.180 NA
HETATM    4  N2  UNL     1      20.735   1.324  52.800  1.00  0.00    -0.284 N 
HETATM    5  C3  UNL     1      19.587   0.873  52.061  1.00  0.00     0.172 C 
HETATM    6  C4  UNL     1      18.948  -0.249  52.754  1.00  0.00     0.098 C 
HETATM    7  N3  UNL     1      18.424  -1.142  53.297  1.00  0.00    -0.194 NA
HETATM    8  C5  UNL     1      20.072   0.322  50.760  1.00  0.00     0.138 C 
HETATM    9  N4  UNL     1      20.121   0.899  49.601  1.00  0.00    -0.266 NA
HETATM   10  C6  UNL     1      20.856   2.065  49.179  1.00  0.00     0.033 C 
HETATM   11  C7  UNL     1      21.974   2.648  48.798  1.00  0.00     0.002 C 
HETATM   12  C8  UNL     1      23.034   3.587  48.353  1.00  0.00     0.059 C 
HETATM   13  C9  UNL     1      24.156   3.637  49.385  1.00  0.00     0.273 C 
HETATM   14  N5  UNL     1      23.685   4.058  50.666  1.00  0.00     0.085 N 
HETATM   15  C10 UNL     1      24.720   4.098  51.644  1.00  0.00     0.291 C 
HETATM   16  C11 UNL     1      25.256   2.702  52.007  1.00  0.00     0.179 C 
HETATM   17  N6  UNL     1      24.228   1.866  52.497  1.00  0.00    -0.283 NA
HETATM   18  C12 UNL     1      24.241   0.782  53.134  1.00  0.00     0.107 C 
HETATM   19  C15 UNL     1      20.112   3.320  49.074  1.00  0.00     0.085 C 
HETATM   20  C16 UNL     1      19.761   3.721  50.497  1.00  0.00    -0.025 C 
HETATM   21  C17 UNL     1      19.112   3.257  51.546  1.00  0.00    -0.026 C 
HETATM   22  C18 UNL     1      18.535   1.923  51.867  1.00  0.00     0.081 C 
HETATM   23  H4  UNL     1      20.461   1.774  53.701  1.00  0.00     0.185 HD
HETATM   24  H11 UNL     1      22.937   3.408  51.002  1.00  0.00     0.315 HD
ENDROOT
BRANCH  18  25
HETATM   25  O1  UNL     1      25.433   0.179  53.490  1.00  0.00     0.000 OA
HETATM   26  C13 UNL     1      26.050  -0.762  52.641  1.00  0.00    -0.008 A 
HETATM   27  C14 UNL     1      26.996  -0.337  53.484  1.00  0.00     0.258 A 
HETATM   28 CL1  UNL     1      28.644  -0.922  53.429  1.00  0.00    -0.251 Cl
ENDBRANCH  18  25
TORSDOF 1
ENDMDL
MODEL 5
REMARK VINA RESULT:      -7.4      2.196      4.972
REMARK  1 active torsions:
REMARK  status: ('A' for Active; 'I' for Inactive)
REMARK    1  A    between atoms: C12_18  and  O1_19 
ROOT
HETATM    1  C1  UNL     1      22.448  -0.565  53.582  1.00  0.00     0.075 C 
HETATM    2  C2  UNL     1      22.383   0.233  52.339  1.00  0.00     0.081 C 
HETATM    3  N1  UNL     1      23.108   0.975  51.575  1.00  0.00    -0.180 NA
HETATM    4  N2  UNL     1      24.447   1.207  51.897  1.00  0.00    -0.284 N 
HETATM    5  C3  UNL     1      25.326   2.116  52.579  1.00  0.00     0.172 C 
HETATM    6  C4  UNL     1      25.888   1.476  53.772  1.00  0.00     0.098 C 
HETATM    7  N3  UNL     1      26.348   0.977  54.725  1.00  0.00    -0.194 NA
HETATM    8  C5  UNL     1      24.502   3.255  53.082  1.00  0.00     0.138 C 
HETATM    9  N4  UNL     1      24.322   4.424  52.551  1.00  0.00    -0.266 NA
HETATM   10  C6  UNL     1      23.729   4.783  51.288  1.00  0.00     0.033 C 
HETATM   11  C7  UNL     1      22.676   4.986  50.524  1.00  0.00     0.002 C 
HETATM   12  C8  UNL     1      21.726   5.289  49.424  1.00  0.00     0.059 C 
HETATM   13  C9  UNL     1      20.860   4.069  49.128  1.00  0.00     0.273 C 
HETATM   14  N5  UNL     1      21.646   2.936  48.751  1.00  0.00     0.085 N 
HETATM   15  C10 UNL     1      20.851   1.784  48.483  1.00  0.00     0.291 C 
HETATM   16  C11 UNL     1      20.166   1.223  49.742  1.00  0.00     0.179 C 
HETATM   17  N6  UNL     1      21.112   0.877  50.732  1.00  0.00    -0.283 NA
HETATM   18  C12 UNL     1      21.039   0.170  51.770  1.00  0.00     0.107 C 
HETATM   19  C15 UNL     1      24.642   5.122  50.196  1.00  0.00     0.085 C 
HETATM   20  C16 UNL     1      25.336   3.826  49.812  1.00  0.00    -0.025 C 
HETATM   21  C17 UNL     1      26.093   2.888  50.346  1.00  0.00    -0.026 C 
HETATM   22  C18 UNL     1      26.483   2.585  51.750  1.00  0.00     0.081 C 
HETATM   23  H4  UNL     1      24.970   0.410  51.470  1.00  0.00     0.185 HD
HETATM   24  H11 UNL     1      22.322   2.702  49.514  1.00  0.00     0.315 HD
ENDROOT
BRANCH  18  25
HETATM   25  O1  UNL     1      19.858  -0.451  52.128  1.00  0.00     0.000 OA
HETATM   26  C13 UNL     1      19.023   0.100  53.122  1.00  0.00    -0.008 A 
HETATM   27  C14 UNL     1      18.266  -0.750  52.422  1.00  0.00     0.258 A 
HETATM   28 CL1  UNL     1      16.576  -1.027  52.780  1.00  0.00    -0.251 Cl
ENDBRANCH  18  25
TORSDOF 1
ENDMDL
MODEL 6
REMARK VINA RESULT:      -7.3      5.924      8.980
REMARK  1 active torsions:
REMARK  status: ('A' for Active; 'I' for Inactive)
REMARK    1  A    between atoms: C12_18  and  O1_19 
ROOT
HETATM    1  C1  UNL     1      27.769   4.747  48.671  1.00  0.00     0.075 C 
HETATM    2  C2  UNL     1      27.804   6.144  48.191  1.00  0.00     0.081 C 
HETATM    3  N1  UNL     1      28.583   6.997  47.618  1.00  0.00    -0.180 NA
HETATM    4  N2  UNL     1      29.880   6.626  47.263  1.00  0.00    -0.284 N 
HETATM    5  C3  UNL     1      31.242   6.620  47.722  1.00  0.00     0.172 C 
HETATM    6  C4  UNL     1      31.682   5.247  47.983  1.00  0.00     0.098 C 
HETATM    7  N3  UNL     1      32.049   4.156  48.191  1.00  0.00    -0.194 NA
HETATM    8  C5  UNL     1      31.280   7.314  49.043  1.00  0.00     0.138 C 
HETATM    9  N4  UNL     1      31.594   8.544  49.306  1.00  0.00    -0.266 NA
HETATM   10  C6  UNL     1      30.967   9.770  48.878  1.00  0.00     0.033 C 
HETATM   11  C7  UNL     1      30.012  10.670  48.974  1.00  0.00     0.002 C 
HETATM   12  C8  UNL     1      29.106  11.837  48.822  1.00  0.00     0.059 C 
HETATM   13  C9  UNL     1      27.695  11.364  48.485  1.00  0.00     0.273 C 
HETATM   14  N5  UNL     1      27.662  10.602  47.277  1.00  0.00     0.085 N 
HETATM   15  C10 UNL     1      26.352  10.143  46.957  1.00  0.00     0.291 C 
HETATM   16  C11 UNL     1      25.826   9.089  47.947  1.00  0.00     0.179 C 
HETATM   17  N6  UNL     1      26.679   7.964  48.003  1.00  0.00    -0.283 NA
HETATM   18  C12 UNL     1      26.525   6.799  48.451  1.00  0.00     0.107 C 
HETATM   19  C15 UNL     1      31.609  10.499  47.784  1.00  0.00     0.085 C 
HETATM   20  C16 UNL     1      31.415   9.647  46.541  1.00  0.00    -0.025 C 
HETATM   21  C17 UNL     1      31.691   8.440  46.091  1.00  0.00    -0.026 C 
HETATM   22  C18 UNL     1      32.217   7.213  46.750  1.00  0.00     0.081 C 
HETATM   23  H4  UNL     1      29.792   6.203  46.313  1.00  0.00     0.185 HD
HETATM   24  H11 UNL     1      28.292   9.771  47.363  1.00  0.00     0.315 HD
ENDROOT
BRANCH  18  25
HETATM   25  O1  UNL     1      25.331   6.409  49.027  1.00  0.00     0.000 OA
HETATM   26  C13 UNL     1      25.107   6.574  50.409  1.00  0.00    -0.008 A 
HETATM   27  C14 UNL     1      23.904   6.422  49.848  1.00  0.00     0.258 A 
HETATM   28 CL1  UNL     1      22.418   6.447  50.772  1.00  0.00    -0.251 Cl
ENDBRANCH  18  25
TORSDOF 1
ENDMDL
MODEL 7
REMARK VINA RESULT:      -7.0      8.228     10.658
REMARK  1 active torsions:
REMARK  status: ('A' for Active; 'I' for Inactive)
REMARK    1  A    between atoms: C12_18  and  O1_19 
ROOT
HETATM    1  C1  UNL     1      29.576   5.472  48.033  1.00  0.00     0.075 C 
HETATM    2  C2  UNL     1      30.668   6.461  47.913  1.00  0.00     0.081 C 
HETATM    3  N1  UNL     1      30.932   7.705  48.122  1.00  0.00    -0.180 NA
HETATM    4  N2  UNL     1      29.948   8.549  48.638  1.00  0.00    -0.284 N 
HETATM    5  C3  UNL     1      28.908   9.469  48.264  1.00  0.00     0.172 C 
HETATM    6  C4  UNL     1      27.595   8.907  48.590  1.00  0.00     0.098 C 
HETATM    7  N3  UNL     1      26.540   8.474  48.849  1.00  0.00    -0.194 NA
HETATM    8  C5  UNL     1      28.933   9.603  46.777  1.00  0.00     0.138 C 
HETATM    9  N4  UNL     1      29.487  10.524  46.054  1.00  0.00    -0.266 NA
HETATM   10  C6  UNL     1      30.875  10.894  45.934  1.00  0.00     0.033 C 
HETATM   11  C7  UNL     1      32.085  10.693  45.454  1.00  0.00     0.002 C 
HETATM   12  C8  UNL     1      33.524  10.750  45.096  1.00  0.00     0.059 C 
HETATM   13  C9  UNL     1      34.228   9.474  45.547  1.00  0.00     0.273 C 
HETATM   14  N5  UNL     1      34.117   9.275  46.958  1.00  0.00     0.085 N 
HETATM   15  C10 UNL     1      34.759   8.079  47.393  1.00  0.00     0.291 C 
HETATM   16  C11 UNL     1      34.056   6.805  46.892  1.00  0.00     0.179 C 
HETATM   17  N6  UNL     1      32.711   6.756  47.319  1.00  0.00    -0.283 NA
HETATM   18  C12 UNL     1      31.866   5.825  47.372  1.00  0.00     0.107 C 
HETATM   19  C15 UNL     1      31.313  12.084  46.664  1.00  0.00     0.085 C 
HETATM   20  C16 UNL     1      31.257  11.717  48.137  1.00  0.00    -0.025 C 
HETATM   21  C17 UNL     1      30.394  11.302  49.043  1.00  0.00    -0.026 C 
HETATM   22  C18 UNL     1      28.996  10.800  48.948  1.00  0.00     0.081 C 
HETATM   23  H4  UNL     1      30.023   8.451  49.675  1.00  0.00     0.185 HD
HETATM   24  H11 UNL     1      33.109   9.228  47.233  1.00  0.00     0.315 HD
ENDROOT
BRANCH  18  25
HETATM   25  O1  UNL     1      32.189   4.546  46.961  1.00  0.00     0.000 OA
HETATM   26  C13 UNL     1      32.757   3.620  47.860  1.00  0.00    -0.008 A 
HETATM   27  C14 UNL     1      32.265   2.906  46.843  1.00  0.00     0.258 A 
HETATM   28 CL1  UNL     1      32.374   1.161  46.772  1.00  0.00    -0.251 Cl
ENDBRANCH  18  25
TORSDOF 1
ENDMDL
MODEL 8
REMARK VINA RESULT:      -7.0      2.080      4.997
REMARK  1 active torsions:
REMARK  status: ('A' for Active; 'I' for Inactive)
REMARK    1  A    between atoms: C12_18  and  O1_19 
ROOT
HETATM    1  C1  UNL     1      21.131  -0.144  52.422  1.00  0.00     0.075 C 
HETATM    2  C2  UNL     1      21.063   0.998  51.485  1.00  0.00     0.081 C 
HETATM    3  N1  UNL     1      21.815   1.813  50.828  1.00  0.00    -0.180 NA
HETATM    4  N2  UNL     1      23.203   1.716  50.931  1.00  0.00    -0.284 N 
HETATM    5  C3  UNL     1      24.342   2.216  51.651  1.00  0.00     0.172 C 
HETATM    6  C4  UNL     1      24.918   1.158  52.486  1.00  0.00     0.098 C 
HETATM    7  N3  UNL     1      25.390   0.323  53.154  1.00  0.00    -0.194 NA
HETATM    8  C5  UNL     1      23.857   3.262  52.600  1.00  0.00     0.138 C 
HETATM    9  N4  UNL     1      23.856   4.550  52.458  1.00  0.00    -0.266 NA
HETATM   10  C6  UNL     1      23.182   5.372  51.485  1.00  0.00     0.033 C 
HETATM   11  C7  UNL     1      22.099   5.967  51.030  1.00  0.00     0.002 C 
HETATM   12  C8  UNL     1      21.091   6.743  50.265  1.00  0.00     0.059 C 
HETATM   13  C9  UNL     1      19.953   5.830  49.820  1.00  0.00     0.273 C 
HETATM   14  N5  UNL     1      20.420   4.758  48.999  1.00  0.00     0.085 N 
HETATM   15  C10 UNL     1      19.370   3.888  48.586  1.00  0.00     0.291 C 
HETATM   16  C11 UNL     1      18.764   3.083  49.750  1.00  0.00     0.179 C 
HETATM   17  N6  UNL     1      19.745   2.301  50.400  1.00  0.00    -0.283 NA
HETATM   18  C12 UNL     1      19.670   1.330  51.196  1.00  0.00     0.107 C 
HETATM   19  C15 UNL     1      23.984   5.880  50.371  1.00  0.00     0.085 C 
HETATM   20  C16 UNL     1      24.327   4.672  49.516  1.00  0.00    -0.025 C 
HETATM   21  C17 UNL     1      24.934   3.506  49.611  1.00  0.00    -0.026 C 
HETATM   22  C18 UNL     1      25.444   2.726  50.772  1.00  0.00     0.081 C 
HETATM   23  H4  UNL     1      23.481   1.017  50.207  1.00  0.00     0.185 HD
HETATM   24  H11 UNL     1      21.131   4.194  49.520  1.00  0.00     0.315 HD
ENDROOT
BRANCH  18  25
HETATM   25  O1  UNL     1      18.446   0.828  51.595  1.00  0.00     0.000 OA
HETATM   26  C13 UNL     1      17.785  -0.156  50.832  1.00  0.00    -0.008 A 
HETATM   27  C14 UNL     1      17.242  -0.197  52.052  1.00  0.00     0.258 A 
HETATM   28 CL1  UNL     1      15.963  -1.311  52.481  1.00  0.00    -0.251 Cl
ENDBRANCH  18  25
TORSDOF 1
ENDMDL
MODEL 9
REMARK VINA RESULT:      -6.5      2.895      5.355
REMARK  1 active torsions:
REMARK  status: ('A' for Active; 'I' for Inactive)
REMARK    1  A    between atoms: C12_18  and  O1_19 
ROOT
HETATM    1  C1  UNL     1      25.712   4.439  49.779  1.00  0.00     0.075 C 
HETATM    2  C2  UNL     1      24.456   3.668  49.888  1.00  0.00     0.081 C 
HETATM    3  N1  UNL     1      23.289   3.556  49.352  1.00  0.00    -0.180 NA
HETATM    4  N2  UNL     1      22.930   4.381  48.286  1.00  0.00    -0.284 N 
HETATM    5  C3  UNL     1      22.283   5.622  47.957  1.00  0.00     0.172 C 
HETATM    6  C4  UNL     1      23.264   6.584  47.446  1.00  0.00     0.098 C 
HETATM    7  N3  UNL     1      24.034   7.360  47.031  1.00  0.00    -0.194 NA
HETATM    8  C5  UNL     1      21.762   6.213  49.226  1.00  0.00     0.138 C 
HETATM    9  N4  UNL     1      20.563   6.155  49.717  1.00  0.00    -0.266 NA
HETATM   10  C6  UNL     1      19.792   5.013  50.138  1.00  0.00     0.033 C 
HETATM   11  C7  UNL     1      19.504   4.078  51.020  1.00  0.00     0.002 C 
HETATM   12  C8  UNL     1      18.944   2.931  51.777  1.00  0.00     0.059 C 
HETATM   13  C9  UNL     1      20.036   1.903  52.054  1.00  0.00     0.273 C 
HETATM   14  N5  UNL     1      20.622   1.409  50.849  1.00  0.00     0.085 N 
HETATM   15  C10 UNL     1      21.653   0.456  51.092  1.00  0.00     0.291 C 
HETATM   16  C11 UNL     1      22.897   1.074  51.755  1.00  0.00     0.179 C 
HETATM   17  N6  UNL     1      23.441   2.110  50.963  1.00  0.00    -0.283 NA
HETATM   18  C12 UNL     1      24.554   2.695  50.972  1.00  0.00     0.107 C 
HETATM   19  C15 UNL     1      18.762   4.528  49.219  1.00  0.00     0.085 C 
HETATM   20  C16 UNL     1      19.504   3.933  48.035  1.00  0.00    -0.025 C 
HETATM   21  C17 UNL     1      20.372   4.282  47.106  1.00  0.00    -0.026 C 
HETATM   22  C18 UNL     1      21.212   5.496  46.917  1.00  0.00     0.081 C 
HETATM   23  H4  UNL     1      23.270   3.886  47.432  1.00  0.00     0.185 HD
HETATM   24  H11 UNL     1      21.026   2.201  50.298  1.00  0.00     0.315 HD
ENDROOT
BRANCH  18  25
HETATM   25  O1  UNL     1      25.532   2.351  51.886  1.00  0.00     0.000 OA
HETATM   26  C13 UNL     1      26.565   1.457  51.539  1.00  0.00    -0.008 A 
HETATM   27  C14 UNL     1      26.989   2.122  52.617  1.00  0.00     0.258 A 
HETATM   28 CL1  UNL     1      28.552   1.836  53.351  1.00  0.00    -0.251 Cl
ENDBRANCH  18  25
TORSDOF 1
ENDMDL
