MODEL 1
REMARK VINA RESULT:      -9.4      0.000      0.000
REMARK  5 active torsions:
REMARK  status: ('A' for Active; 'I' for Inactive)
REMARK    1  A    between atoms: C5_5  and  N1_6 
REMARK    2  A    between atoms: C7_8  and  C8_9 
REMARK    3  A    between atoms: C11_12  and  O1_13 
REMARK    4  A    between atoms: O1_13  and  C12_14 
REMARK    5  A    between atoms: C12_14  and  C13_15 
ROOT
HETATM    1  N1  UNL     1      26.815   0.366  53.300  1.00  0.00    -0.325 N 
HETATM    2  C6  UNL     1      26.243   1.176  52.367  1.00  0.00     0.103 A 
HETATM    3  C7  UNL     1      24.844   1.122  52.428  1.00  0.00    -0.015 A 
HETATM    4  C20 UNL     1      24.635   0.229  53.459  1.00  0.00     0.048 A 
HETATM    5  C21 UNL     1      25.819  -0.228  53.984  1.00  0.00     0.143 A 
HETATM    6  N2  UNL     1      25.577  -1.143  55.039  1.00  0.00    -0.240 NA
HETATM    7  C22 UNL     1      24.297  -1.292  55.211  1.00  0.00     0.150 A 
HETATM    8  C23 UNL     1      23.597  -0.442  54.231  1.00  0.00     0.080 A 
HETATM    9  N3  UNL     1      22.326  -0.301  54.072  1.00  0.00    -0.298 NA
HETATM   10  H17 UNL     1      21.642  -0.820  54.671  1.00  0.00     0.187 HD
ENDROOT
BRANCH   3  11
HETATM   11  C8  UNL     1      23.894   1.864  51.568  1.00  0.00     0.069 A 
HETATM   12  C9  UNL     1      22.901   2.642  52.307  1.00  0.00    -0.011 A 
HETATM   13  C10 UNL     1      22.955   3.930  52.049  1.00  0.00     0.033 A 
HETATM   14  C11 UNL     1      24.043   4.069  51.078  1.00  0.00     0.066 A 
HETATM   15  C19 UNL     1      24.614   2.912  50.771  1.00  0.00     0.023 A 
BRANCH  14  16
HETATM   16  O1  UNL     1      24.414   5.320  50.547  1.00  0.00    -0.347 OA
BRANCH  16  17
HETATM   17  C12 UNL     1      24.566   5.459  49.136  1.00  0.00     0.214 C 
BRANCH  17  18
HETATM   18  C13 UNL     1      25.948   5.766  48.735  1.00  0.00    -0.034 A 
HETATM   19  C14 UNL     1      26.969   4.844  48.876  1.00  0.00     0.009 A 
HETATM   20  C15 UNL     1      28.271   5.145  48.494  1.00  0.00     0.001 A 
HETATM   21  C16 UNL     1      28.572   6.403  47.957  1.00  0.00     0.000 A 
HETATM   22  C17 UNL     1      27.532   7.333  47.816  1.00  0.00     0.001 A 
HETATM   23  C18 UNL     1      26.243   6.985  48.212  1.00  0.00     0.009 A 
ENDBRANCH  17  18
ENDBRANCH  16  17
ENDBRANCH  14  16
ENDBRANCH   3  11
BRANCH   1  24
HETATM   24  C5  UNL     1      28.229   0.264  53.415  1.00  0.00     0.081 A 
HETATM   25  C2  UNL     1      28.713  -1.148  53.324  1.00  0.00    -0.046 A 
HETATM   26  C1  UNL     1      28.986  -2.418  53.028  1.00  0.00     0.018 C 
HETATM   27  C3  UNL     1      29.089  -0.184  54.340  1.00  0.00     0.037 A 
HETATM   28  C4  UNL     1      28.767   1.054  54.556  1.00  0.00     0.045 A 
ENDBRANCH   1  24
TORSDOF 5
ENDMDL
MODEL 2
REMARK VINA RESULT:      -9.3      1.337      1.656
REMARK  5 active torsions:
REMARK  status: ('A' for Active; 'I' for Inactive)
REMARK    1  A    between atoms: C5_5  and  N1_6 
REMARK    2  A    between atoms: C7_8  and  C8_9 
REMARK    3  A    between atoms: C11_12  and  O1_13 
REMARK    4  A    between atoms: O1_13  and  C12_14 
REMARK    5  A    between atoms: C12_14  and  C13_15 
ROOT
HETATM    1  N1  UNL     1      25.528   0.086  53.279  1.00  0.00    -0.325 N 
HETATM    2  C6  UNL     1      24.726   0.713  52.375  1.00  0.00     0.103 A 
HETATM    3  C7  UNL     1      23.371   0.528  52.678  1.00  0.00    -0.015 A 
HETATM    4  C20 UNL     1      23.432  -0.246  53.818  1.00  0.00     0.048 A 
HETATM    5  C21 UNL     1      24.729  -0.514  54.181  1.00  0.00     0.143 A 
HETATM    6  N2  UNL     1      24.764  -1.310  55.353  1.00  0.00    -0.240 NA
HETATM    7  C22 UNL     1      23.553  -1.563  55.755  1.00  0.00     0.150 A 
HETATM    8  C23 UNL     1      22.614  -0.914  54.821  1.00  0.00     0.080 A 
HETATM    9  N3  UNL     1      21.326  -0.921  54.865  1.00  0.00    -0.298 NA
HETATM   10  H17 UNL     1      20.810  -1.426  55.623  1.00  0.00     0.187 HD
ENDROOT
BRANCH   3  11
HETATM   11  C8  UNL     1      22.217   1.060  51.916  1.00  0.00     0.069 A 
HETATM   12  C9  UNL     1      21.606   2.248  52.510  1.00  0.00    -0.011 A 
HETATM   13  C10 UNL     1      21.635   3.297  51.717  1.00  0.00     0.033 A 
HETATM   14  C11 UNL     1      22.302   2.825  50.501  1.00  0.00     0.066 A 
HETATM   15  C19 UNL     1      22.656   1.549  50.567  1.00  0.00     0.023 A 
BRANCH  14  16
HETATM   16  O1  UNL     1      22.526   3.670  49.397  1.00  0.00    -0.347 OA
BRANCH  16  17
HETATM   17  C12 UNL     1      23.184   4.920  49.599  1.00  0.00     0.214 C 
BRANCH  17  18
HETATM   18  C13 UNL     1      24.632   4.854  49.346  1.00  0.00    -0.034 A 
HETATM   19  C14 UNL     1      25.369   3.718  49.626  1.00  0.00     0.009 A 
HETATM   20  C15 UNL     1      26.736   3.668  49.383  1.00  0.00     0.001 A 
HETATM   21  C16 UNL     1      27.395   4.781  48.847  1.00  0.00     0.000 A 
HETATM   22  C17 UNL     1      26.642   5.930  48.564  1.00  0.00     0.001 A 
HETATM   23  C18 UNL     1      25.273   5.932  48.824  1.00  0.00     0.009 A 
ENDBRANCH  17  18
ENDBRANCH  16  17
ENDBRANCH  14  16
ENDBRANCH   3  11
BRANCH   1  24
HETATM   24  C5  UNL     1      26.945   0.140  53.163  1.00  0.00     0.081 A 
HETATM   25  C2  UNL     1      27.564  -1.217  53.050  1.00  0.00    -0.046 A 
HETATM   26  C1  UNL     1      27.928  -2.467  52.764  1.00  0.00     0.018 C 
HETATM   27  C3  UNL     1      27.987  -0.162  53.952  1.00  0.00     0.037 A 
HETATM   28  C4  UNL     1      27.565   1.046  54.169  1.00  0.00     0.045 A 
ENDBRANCH   1  24
TORSDOF 5
ENDMDL
MODEL 3
REMARK VINA RESULT:      -9.1      1.139      1.974
REMARK  5 active torsions:
REMARK  status: ('A' for Active; 'I' for Inactive)
REMARK    1  A    between atoms: C5_5  and  N1_6 
REMARK    2  A    between atoms: C7_8  and  C8_9 
REMARK    3  A    between atoms: C11_12  and  O1_13 
REMARK    4  A    between atoms: O1_13  and  C12_14 
REMARK    5  A    between atoms: C12_14  and  C13_15 
ROOT
HETATM    1  N1  UNL     1      25.151  -0.230  53.285  1.00  0.00    -0.325 N 
HETATM    2  C6  UNL     1      25.025   0.789  52.390  1.00  0.00     0.103 A 
HETATM    3  C7  UNL     1      23.713   1.278  52.352  1.00  0.00    -0.015 A 
HETATM    4  C20 UNL     1      23.080   0.481  53.282  1.00  0.00     0.048 A 
HETATM    5  C21 UNL     1      23.943  -0.428  53.844  1.00  0.00     0.143 A 
HETATM    6  N2  UNL     1      23.269  -1.234  54.796  1.00  0.00    -0.240 NA
HETATM    7  C22 UNL     1      22.018  -0.884  54.867  1.00  0.00     0.150 A 
HETATM    8  C23 UNL     1      21.795   0.225  53.920  1.00  0.00     0.080 A 
HETATM    9  N3  UNL     1      20.696   0.857  53.688  1.00  0.00    -0.298 NA
HETATM   10  H17 UNL     1      19.811   0.612  54.192  1.00  0.00     0.187 HD
ENDROOT
BRANCH   3  11
HETATM   11  C8  UNL     1      23.207   2.378  51.498  1.00  0.00     0.069 A 
HETATM   12  C9  UNL     1      22.712   3.534  52.244  1.00  0.00    -0.011 A 
HETATM   13  C10 UNL     1      23.360   4.644  51.969  1.00  0.00     0.033 A 
HETATM   14  C11 UNL     1      24.366   4.252  50.979  1.00  0.00     0.066 A 
HETATM   15  C19 UNL     1      24.319   2.962  50.677  1.00  0.00     0.023 A 
BRANCH  14  16
HETATM   16  O1  UNL     1      25.271   5.179  50.427  1.00  0.00    -0.347 OA
BRANCH  16  17
HETATM   17  C12 UNL     1      25.354   5.312  49.009  1.00  0.00     0.214 C 
BRANCH  17  18
HETATM   18  C13 UNL     1      26.655   5.825  48.556  1.00  0.00    -0.034 A 
HETATM   19  C14 UNL     1      26.801   7.109  48.064  1.00  0.00     0.009 A 
HETATM   20  C15 UNL     1      28.037   7.582  47.638  1.00  0.00     0.001 A 
HETATM   21  C16 UNL     1      29.164   6.755  47.699  1.00  0.00     0.000 A 
HETATM   22  C17 UNL     1      29.010   5.454  48.200  1.00  0.00     0.001 A 
HETATM   23  C18 UNL     1      27.752   5.025  48.616  1.00  0.00     0.009 A 
ENDBRANCH  17  18
ENDBRANCH  16  17
ENDBRANCH  14  16
ENDBRANCH   3  11
BRANCH   1  24
HETATM   24  C5  UNL     1      26.401  -0.880  53.486  1.00  0.00     0.081 A 
HETATM   25  C2  UNL     1      27.505   0.082  53.792  1.00  0.00    -0.046 A 
HETATM   26  C1  UNL     1      28.316   1.039  54.240  1.00  0.00     0.018 C 
HETATM   27  C3  UNL     1      27.552  -0.982  52.806  1.00  0.00     0.037 A 
HETATM   28  C4  UNL     1      26.699  -1.883  52.427  1.00  0.00     0.045 A 
ENDBRANCH   1  24
TORSDOF 5
ENDMDL
MODEL 4
REMARK VINA RESULT:      -8.9      2.552      3.489
REMARK  5 active torsions:
REMARK  status: ('A' for Active; 'I' for Inactive)
REMARK    1  A    between atoms: C5_5  and  N1_6 
REMARK    2  A    between atoms: C7_8  and  C8_9 
REMARK    3  A    between atoms: C11_12  and  O1_13 
REMARK    4  A    between atoms: O1_13  and  C12_14 
REMARK    5  A    between atoms: C12_14  and  C13_15 
ROOT
HETATM    1  N1  UNL     1      24.338   0.479  52.962  1.00  0.00    -0.325 N 
HETATM    2  C6  UNL     1      23.372   0.814  52.062  1.00  0.00     0.103 A 
HETATM    3  C7  UNL     1      22.138   0.242  52.399  1.00  0.00    -0.015 A 
HETATM    4  C20 UNL     1      22.444  -0.447  53.554  1.00  0.00     0.048 A 
HETATM    5  C21 UNL     1      23.767  -0.306  53.894  1.00  0.00     0.143 A 
HETATM    6  N2  UNL     1      24.056  -1.023  55.082  1.00  0.00    -0.240 NA
HETATM    7  C22 UNL     1      22.981  -1.615  55.515  1.00  0.00     0.150 A 
HETATM    8  C23 UNL     1      21.877  -1.301  54.590  1.00  0.00     0.080 A 
HETATM    9  N3  UNL     1      20.651  -1.690  54.662  1.00  0.00    -0.298 NA
HETATM   10  H17 UNL     1      20.321  -2.305  55.442  1.00  0.00     0.187 HD
ENDROOT
BRANCH   3  11
HETATM   11  C8  UNL     1      20.867   0.385  51.652  1.00  0.00     0.069 A 
HETATM   12  C9  UNL     1      19.933   1.345  52.239  1.00  0.00    -0.011 A 
HETATM   13  C10 UNL     1      19.633   2.337  51.430  1.00  0.00     0.033 A 
HETATM   14  C11 UNL     1      20.395   2.064  50.208  1.00  0.00     0.066 A 
HETATM   15  C19 UNL     1      21.119   0.956  50.287  1.00  0.00     0.023 A 
BRANCH  14  16
HETATM   16  O1  UNL     1      20.338   2.914  49.087  1.00  0.00    -0.347 OA
BRANCH  16  17
HETATM   17  C12 UNL     1      20.979   4.187  49.146  1.00  0.00     0.214 C 
BRANCH  17  18
HETATM   18  C13 UNL     1      22.343   4.117  49.694  1.00  0.00    -0.034 A 
HETATM   19  C14 UNL     1      22.639   4.565  50.968  1.00  0.00     0.009 A 
HETATM   20  C15 UNL     1      23.932   4.494  51.474  1.00  0.00     0.001 A 
HETATM   21  C16 UNL     1      24.965   3.965  50.692  1.00  0.00     0.000 A 
HETATM   22  C17 UNL     1      24.657   3.512  49.400  1.00  0.00     0.001 A 
HETATM   23  C18 UNL     1      23.347   3.603  48.937  1.00  0.00     0.009 A 
ENDBRANCH  17  18
ENDBRANCH  16  17
ENDBRANCH  14  16
ENDBRANCH   3  11
BRANCH   1  24
HETATM   24  C5  UNL     1      25.672   0.950  52.813  1.00  0.00     0.081 A 
HETATM   25  C2  UNL     1      26.676  -0.159  52.824  1.00  0.00    -0.046 A 
HETATM   26  C1  UNL     1      27.407  -1.260  52.656  1.00  0.00     0.018 C 
HETATM   27  C3  UNL     1      26.747   1.060  53.607  1.00  0.00     0.037 A 
HETATM   28  C4  UNL     1      25.975   2.098  53.711  1.00  0.00     0.045 A 
ENDBRANCH   1  24
TORSDOF 5
ENDMDL
MODEL 5
REMARK VINA RESULT:      -8.7      2.906      6.731
REMARK  5 active torsions:
REMARK  status: ('A' for Active; 'I' for Inactive)
REMARK    1  A    between atoms: C5_5  and  N1_6 
REMARK    2  A    between atoms: C7_8  and  C8_9 
REMARK    3  A    between atoms: C11_12  and  O1_13 
REMARK    4  A    between atoms: O1_13  and  C12_14 
REMARK    5  A    between atoms: C12_14  and  C13_15 
ROOT
HETATM    1  N1  UNL     1      25.755   2.336  51.910  1.00  0.00    -0.325 N 
HETATM    2  C6  UNL     1      24.861   1.345  52.181  1.00  0.00     0.103 A 
HETATM    3  C7  UNL     1      25.426   0.352  52.992  1.00  0.00    -0.015 A 
HETATM    4  C20 UNL     1      26.707   0.827  53.181  1.00  0.00     0.048 A 
HETATM    5  C21 UNL     1      26.907   2.020  52.530  1.00  0.00     0.143 A 
HETATM    6  N2  UNL     1      28.230   2.486  52.738  1.00  0.00    -0.240 NA
HETATM    7  C22 UNL     1      28.882   1.648  53.489  1.00  0.00     0.150 A 
HETATM    8  C23 UNL     1      27.978   0.534  53.830  1.00  0.00     0.080 A 
HETATM    9  N3  UNL     1      28.236  -0.499  54.556  1.00  0.00    -0.298 NA
HETATM   10  H17 UNL     1      29.179  -0.637  54.990  1.00  0.00     0.187 HD
ENDROOT
BRANCH   3  11
HETATM   11  C8  UNL     1      24.754  -0.873  53.483  1.00  0.00     0.069 A 
HETATM   12  C9  UNL     1      24.774  -1.023  54.937  1.00  0.00    -0.011 A 
HETATM   13  C10 UNL     1      23.573  -1.072  55.470  1.00  0.00     0.033 A 
HETATM   14  C11 UNL     1      22.657  -0.948  54.333  1.00  0.00     0.066 A 
HETATM   15  C19 UNL     1      23.287  -0.830  53.172  1.00  0.00     0.023 A 
BRANCH  14  16
HETATM   16  O1  UNL     1      21.259  -0.958  54.496  1.00  0.00    -0.347 OA
BRANCH  16  17
HETATM   17  C12 UNL     1      20.542   0.275  54.438  1.00  0.00     0.214 C 
BRANCH  17  18
HETATM   18  C13 UNL     1      20.192   0.671  53.066  1.00  0.00    -0.034 A 
HETATM   19  C14 UNL     1      19.258  -0.025  52.322  1.00  0.00     0.009 A 
HETATM   20  C15 UNL     1      18.936   0.359  51.026  1.00  0.00     0.001 A 
HETATM   21  C16 UNL     1      19.563   1.469  50.446  1.00  0.00     0.000 A 
HETATM   22  C17 UNL     1      20.510   2.171  51.206  1.00  0.00     0.001 A 
HETATM   23  C18 UNL     1      20.799   1.749  52.501  1.00  0.00     0.009 A 
ENDBRANCH  17  18
ENDBRANCH  16  17
ENDBRANCH  14  16
ENDBRANCH   3  11
BRANCH   1  24
HETATM   24  C5  UNL     1      25.394   3.447  51.099  1.00  0.00     0.081 A 
HETATM   25  C2  UNL     1      24.137   4.112  51.562  1.00  0.00    -0.046 A 
HETATM   26  C1  UNL     1      23.132   4.696  52.214  1.00  0.00     0.018 C 
HETATM   27  C3  UNL     1      24.435   3.711  50.200  1.00  0.00     0.037 A 
HETATM   28  C4  UNL     1      25.458   3.136  49.645  1.00  0.00     0.045 A 
ENDBRANCH   1  24
TORSDOF 5
ENDMDL
MODEL 6
REMARK VINA RESULT:      -8.7      2.337      5.080
REMARK  5 active torsions:
REMARK  status: ('A' for Active; 'I' for Inactive)
REMARK    1  A    between atoms: C5_5  and  N1_6 
REMARK    2  A    between atoms: C7_8  and  C8_9 
REMARK    3  A    between atoms: C11_12  and  O1_13 
REMARK    4  A    between atoms: O1_13  and  C12_14 
REMARK    5  A    between atoms: C12_14  and  C13_15 
ROOT
HETATM    1  N1  UNL     1      21.466   0.780  52.079  1.00  0.00    -0.325 N 
HETATM    2  C6  UNL     1      22.709   1.334  52.029  1.00  0.00     0.103 A 
HETATM    3  C7  UNL     1      23.550   0.796  53.013  1.00  0.00    -0.015 A 
HETATM    4  C20 UNL     1      22.719  -0.109  53.639  1.00  0.00     0.048 A 
HETATM    5  C21 UNL     1      21.465  -0.120  53.079  1.00  0.00     0.143 A 
HETATM    6  N2  UNL     1      20.631  -1.057  53.740  1.00  0.00    -0.240 NA
HETATM    7  C22 UNL     1      21.293  -1.643  54.695  1.00  0.00     0.150 A 
HETATM    8  C23 UNL     1      22.662  -1.096  54.711  1.00  0.00     0.080 A 
HETATM    9  N3  UNL     1      23.630  -1.411  55.500  1.00  0.00    -0.298 NA
HETATM   10  H17 UNL     1      23.508  -2.134  56.248  1.00  0.00     0.187 HD
ENDROOT
BRANCH   3  11
HETATM   11  C8  UNL     1      24.964   1.160  53.259  1.00  0.00     0.069 A 
HETATM   12  C9  UNL     1      25.927   0.161  52.799  1.00  0.00    -0.011 A 
HETATM   13  C10 UNL     1      26.763   0.623  51.895  1.00  0.00     0.033 A 
HETATM   14  C11 UNL     1      26.368   2.022  51.706  1.00  0.00     0.066 A 
HETATM   15  C19 UNL     1      25.341   2.377  52.466  1.00  0.00     0.023 A 
BRANCH  14  16
HETATM   16  O1  UNL     1      27.037   2.870  50.803  1.00  0.00    -0.347 OA
BRANCH  16  17
HETATM   17  C12 UNL     1      26.388   3.244  49.589  1.00  0.00     0.214 C 
BRANCH  17  18
HETATM   18  C13 UNL     1      26.745   4.599  49.141  1.00  0.00    -0.034 A 
HETATM   19  C14 UNL     1      25.868   5.661  49.260  1.00  0.00     0.009 A 
HETATM   20  C15 UNL     1      26.217   6.937  48.833  1.00  0.00     0.001 A 
HETATM   21  C16 UNL     1      27.476   7.167  48.266  1.00  0.00     0.000 A 
HETATM   22  C17 UNL     1      28.362   6.086  48.148  1.00  0.00     0.001 A 
HETATM   23  C18 UNL     1      27.967   4.826  48.592  1.00  0.00     0.009 A 
ENDBRANCH  17  18
ENDBRANCH  16  17
ENDBRANCH  14  16
ENDBRANCH   3  11
BRANCH   1  24
HETATM   24  C5  UNL     1      20.448   1.182  51.170  1.00  0.00     0.081 A 
HETATM   25  C2  UNL     1      19.134   0.527  51.455  1.00  0.00    -0.046 A 
HETATM   26  C1  UNL     1      18.010   0.019  51.959  1.00  0.00     0.018 C 
HETATM   27  C3  UNL     1      19.781   0.608  50.159  1.00  0.00     0.037 A 
HETATM   28  C4  UNL     1      20.897   1.130  49.752  1.00  0.00     0.045 A 
ENDBRANCH   1  24
TORSDOF 5
ENDMDL
MODEL 7
REMARK VINA RESULT:      -8.6      4.207      8.328
REMARK  5 active torsions:
REMARK  status: ('A' for Active; 'I' for Inactive)
REMARK    1  A    between atoms: C5_5  and  N1_6 
REMARK    2  A    between atoms: C7_8  and  C8_9 
REMARK    3  A    between atoms: C11_12  and  O1_13 
REMARK    4  A    between atoms: O1_13  and  C12_14 
REMARK    5  A    between atoms: C12_14  and  C13_15 
ROOT
HETATM    1  N1  UNL     1      24.489   2.297  51.559  1.00  0.00    -0.325 N 
HETATM    2  C6  UNL     1      23.440   1.454  51.765  1.00  0.00     0.103 A 
HETATM    3  C7  UNL     1      23.794   0.391  52.606  1.00  0.00    -0.015 A 
HETATM    4  C20 UNL     1      25.117   0.667  52.880  1.00  0.00     0.048 A 
HETATM    5  C21 UNL     1      25.538   1.813  52.250  1.00  0.00     0.143 A 
HETATM    6  N2  UNL     1      26.899   2.075  52.546  1.00  0.00    -0.240 NA
HETATM    7  C22 UNL     1      27.367   1.151  53.333  1.00  0.00     0.150 A 
HETATM    8  C23 UNL     1      26.285   0.188  53.609  1.00  0.00     0.080 A 
HETATM    9  N3  UNL     1      26.336  -0.869  54.344  1.00  0.00    -0.298 NA
HETATM   10  H17 UNL     1      27.216  -1.146  54.838  1.00  0.00     0.187 HD
ENDROOT
BRANCH   3  11
HETATM   11  C8  UNL     1      22.914  -0.716  53.046  1.00  0.00     0.069 A 
HETATM   12  C9  UNL     1      22.820  -0.865  54.497  1.00  0.00    -0.011 A 
HETATM   13  C10 UNL     1      21.595  -0.728  54.954  1.00  0.00     0.033 A 
HETATM   14  C11 UNL     1      20.781  -0.468  53.764  1.00  0.00     0.066 A 
HETATM   15  C19 UNL     1      21.492  -0.451  52.645  1.00  0.00     0.023 A 
BRANCH  14  16
HETATM   16  O1  UNL     1      19.390  -0.264  53.840  1.00  0.00    -0.347 OA
BRANCH  16  17
HETATM   17  C12 UNL     1      18.591  -0.468  52.676  1.00  0.00     0.214 C 
BRANCH  17  18
HETATM   18  C13 UNL     1      17.650  -1.589  52.815  1.00  0.00    -0.034 A 
HETATM   19  C14 UNL     1      17.962  -2.716  53.553  1.00  0.00     0.009 A 
HETATM   20  C15 UNL     1      17.064  -3.769  53.676  1.00  0.00     0.001 A 
HETATM   21  C16 UNL     1      15.816  -3.705  53.045  1.00  0.00     0.000 A 
HETATM   22  C17 UNL     1      15.505  -2.559  52.299  1.00  0.00     0.001 A 
HETATM   23  C18 UNL     1      16.437  -1.529  52.205  1.00  0.00     0.009 A 
ENDBRANCH  17  18
ENDBRANCH  16  17
ENDBRANCH  14  16
ENDBRANCH   3  11
BRANCH   1  24
HETATM   24  C5  UNL     1      24.354   3.447  50.732  1.00  0.00     0.081 A 
HETATM   25  C2  UNL     1      25.622   3.791  50.016  1.00  0.00    -0.046 A 
HETATM   26  C1  UNL     1      26.754   3.840  49.316  1.00  0.00     0.018 C 
HETATM   27  C3  UNL     1      24.791   4.714  50.768  1.00  0.00     0.037 A 
HETATM   28  C4  UNL     1      23.685   4.577  51.432  1.00  0.00     0.045 A 
ENDBRANCH   1  24
TORSDOF 5
ENDMDL
MODEL 8
REMARK VINA RESULT:      -8.6      3.013      6.602
REMARK  5 active torsions:
REMARK  status: ('A' for Active; 'I' for Inactive)
REMARK    1  A    between atoms: C5_5  and  N1_6 
REMARK    2  A    between atoms: C7_8  and  C8_9 
REMARK    3  A    between atoms: C11_12  and  O1_13 
REMARK    4  A    between atoms: O1_13  and  C12_14 
REMARK    5  A    between atoms: C12_14  and  C13_15 
ROOT
HETATM    1  N1  UNL     1      24.275   3.162  50.304  1.00  0.00    -0.325 N 
HETATM    2  C6  UNL     1      23.861   2.520  51.431  1.00  0.00     0.103 A 
HETATM    3  C7  UNL     1      22.625   1.887  51.235  1.00  0.00    -0.015 A 
HETATM    4  C20 UNL     1      22.345   2.200  49.921  1.00  0.00     0.048 A 
HETATM    5  C21 UNL     1      23.336   2.968  49.359  1.00  0.00     0.143 A 
HETATM    6  N2  UNL     1      23.024   3.275  48.011  1.00  0.00    -0.240 NA
HETATM    7  C22 UNL     1      21.883   2.742  47.687  1.00  0.00     0.150 A 
HETATM    8  C23 UNL     1      21.360   2.021  48.862  1.00  0.00     0.080 A 
HETATM    9  N3  UNL     1      20.260   1.358  48.957  1.00  0.00    -0.298 NA
HETATM   10  H17 UNL     1      19.603   1.275  48.146  1.00  0.00     0.187 HD
ENDROOT
BRANCH   3  11
HETATM   11  C8  UNL     1      21.870   1.100  52.237  1.00  0.00     0.069 A 
HETATM   12  C9  UNL     1      21.721  -0.314  51.896  1.00  0.00    -0.011 A 
HETATM   13  C10 UNL     1      22.252  -1.120  52.789  1.00  0.00     0.033 A 
HETATM   14  C11 UNL     1      22.806  -0.229  53.812  1.00  0.00     0.066 A 
HETATM   15  C19 UNL     1      22.613   1.054  53.540  1.00  0.00     0.023 A 
BRANCH  14  16
HETATM   16  O1  UNL     1      23.467  -0.723  54.953  1.00  0.00    -0.347 OA
BRANCH  16  17
HETATM   17  C12 UNL     1      24.812  -1.183  54.833  1.00  0.00     0.214 C 
BRANCH  17  18
HETATM   18  C13 UNL     1      25.655  -0.287  54.026  1.00  0.00    -0.034 A 
HETATM   19  C14 UNL     1      25.999  -0.590  52.722  1.00  0.00     0.009 A 
HETATM   20  C15 UNL     1      26.796   0.265  51.969  1.00  0.00     0.001 A 
HETATM   21  C16 UNL     1      27.269   1.458  52.528  1.00  0.00     0.000 A 
HETATM   22  C17 UNL     1      26.916   1.760  53.852  1.00  0.00     0.001 A 
HETATM   23  C18 UNL     1      26.114   0.873  54.566  1.00  0.00     0.009 A 
ENDBRANCH  17  18
ENDBRANCH  16  17
ENDBRANCH  14  16
ENDBRANCH   3  11
BRANCH   1  24
HETATM   24  C5  UNL     1      25.506   3.875  50.277  1.00  0.00     0.081 A 
HETATM   25  C2  UNL     1      25.314   5.346  50.086  1.00  0.00    -0.046 A 
HETATM   26  C1  UNL     1      24.962   6.631  50.111  1.00  0.00     0.018 C 
HETATM   27  C3  UNL     1      26.233   4.504  49.342  1.00  0.00     0.037 A 
HETATM   28  C4  UNL     1      26.514   3.238  49.385  1.00  0.00     0.045 A 
ENDBRANCH   1  24
TORSDOF 5
ENDMDL
MODEL 9
REMARK VINA RESULT:      -8.3      1.997      2.800
REMARK  5 active torsions:
REMARK  status: ('A' for Active; 'I' for Inactive)
REMARK    1  A    between atoms: C5_5  and  N1_6 
REMARK    2  A    between atoms: C7_8  and  C8_9 
REMARK    3  A    between atoms: C11_12  and  O1_13 
REMARK    4  A    between atoms: O1_13  and  C12_14 
REMARK    5  A    between atoms: C12_14  and  C13_15 
ROOT
HETATM    1  N1  UNL     1      24.363   1.505  51.968  1.00  0.00    -0.325 N 
HETATM    2  C6  UNL     1      24.107   2.312  50.901  1.00  0.00     0.103 A 
HETATM    3  C7  UNL     1      22.788   2.165  50.452  1.00  0.00    -0.015 A 
HETATM    4  C20 UNL     1      22.288   1.222  51.325  1.00  0.00     0.048 A 
HETATM    5  C21 UNL     1      23.235   0.823  52.238  1.00  0.00     0.143 A 
HETATM    6  N2  UNL     1      22.697  -0.146  53.123  1.00  0.00    -0.240 NA
HETATM    7  C22 UNL     1      21.455  -0.384  52.818  1.00  0.00     0.150 A 
HETATM    8  C23 UNL     1      21.095   0.457  51.662  1.00  0.00     0.080 A 
HETATM    9  N3  UNL     1      19.959   0.521  51.055  1.00  0.00    -0.298 NA
HETATM   10  H17 UNL     1      19.146  -0.063  51.360  1.00  0.00     0.187 HD
ENDROOT
BRANCH   3  11
HETATM   11  C8  UNL     1      22.160   2.877  49.315  1.00  0.00     0.069 A 
HETATM   12  C9  UNL     1      21.248   3.948  49.712  1.00  0.00    -0.011 A 
HETATM   13  C10 UNL     1      21.608   5.129  49.261  1.00  0.00     0.033 A 
HETATM   14  C11 UNL     1      22.839   4.879  48.506  1.00  0.00     0.066 A 
HETATM   15  C19 UNL     1      23.197   3.602  48.509  1.00  0.00     0.023 A 
BRANCH  14  16
HETATM   16  O1  UNL     1      23.541   5.914  47.859  1.00  0.00    -0.347 OA
BRANCH  16  17
HETATM   17  C12 UNL     1      24.380   6.773  48.628  1.00  0.00     0.214 C 
BRANCH  17  18
HETATM   18  C13 UNL     1      25.809   6.447  48.498  1.00  0.00    -0.034 A 
HETATM   19  C14 UNL     1      26.327   5.250  48.955  1.00  0.00     0.009 A 
HETATM   20  C15 UNL     1      27.679   4.953  48.827  1.00  0.00     0.001 A 
HETATM   21  C16 UNL     1      28.546   5.875  48.228  1.00  0.00     0.000 A 
HETATM   22  C17 UNL     1      28.014   7.087  47.765  1.00  0.00     0.001 A 
HETATM   23  C18 UNL     1      26.652   7.339  47.915  1.00  0.00     0.009 A 
ENDBRANCH  17  18
ENDBRANCH  16  17
ENDBRANCH  14  16
ENDBRANCH   3  11
BRANCH   1  24
HETATM   24  C5  UNL     1      25.644   1.490  52.585  1.00  0.00     0.081 A 
HETATM   25  C2  UNL     1      26.251   0.123  52.617  1.00  0.00    -0.046 A 
HETATM   26  C1  UNL     1      26.724  -1.101  52.387  1.00  0.00     0.018 C 
HETATM   27  C3  UNL     1      26.150   1.035  53.741  1.00  0.00     0.037 A 
HETATM   28  C4  UNL     1      25.663   2.230  53.877  1.00  0.00     0.045 A 
ENDBRANCH   1  24
TORSDOF 5
ENDMDL
