MODEL 1
REMARK VINA RESULT:      -6.4      0.000      0.000
REMARK  11 active torsions:
REMARK  status: ('A' for Active; 'I' for Inactive)
REMARK    1  A    between atoms: C2_2  and  C3_3 
REMARK    2  A    between atoms: C3_3  and  N4_20 
REMARK    3  A    between atoms: C4_4  and  C5_5 
REMARK    4  A    between atoms: C5_5  and  C6_6 
REMARK    5  A    between atoms: C6_6  and  C7_7 
REMARK    6  A    between atoms: C7_7  and  N1_15 
REMARK    7  A    between atoms: C8_8  and  C9_9 
REMARK    8  A    between atoms: C10_10  and  C11_11 
REMARK    9  A    between atoms: C11_11  and  P1_12 
REMARK   10  A    between atoms: N1_15  and  C14_16 
REMARK   11  A    between atoms: C15_18  and  N3_19 
REMARK       I    between atoms: N4_20  and  C16_21 
ROOT
HETATM    1  C7  UNL     1      22.168   0.510  52.400  1.00  0.00     0.038 C 
HETATM    2  C8  UNL     1      23.413   0.736  52.161  1.00  0.00     0.027 C 
ENDROOT
BRANCH   1   3
HETATM    3  C6  UNL     1      20.760   0.230  52.407  1.00  0.00     0.032 C 
BRANCH   3   4
HETATM    4  C5  UNL     1      19.511  -0.059  52.272  1.00  0.00     0.060 C 
BRANCH   4   5
HETATM    5  C4  UNL     1      18.508   0.461  51.364  1.00  0.00     0.008 C 
HETATM    6  C3  UNL     1      17.600  -0.363  51.929  1.00  0.00     0.027 C 
BRANCH   6   7
HETATM    7  C2  UNL     1      18.174  -1.181  53.000  1.00  0.00     0.003 C 
HETATM    8  C1  UNL     1      17.978  -2.333  53.665  1.00  0.00     0.033 C 
ENDBRANCH   6   7
BRANCH   6   9
HETATM    9  N4  UNL     1      16.226  -0.683  51.798  1.00  0.00    -0.328 N 
HETATM   10  C16 UNL     1      14.944  -0.442  52.351  1.00  0.00     0.218 C 
HETATM   11  C17 UNL     1      13.883  -1.179  51.636  1.00  0.00     0.117 C 
HETATM   12  O1  UNL     1      15.004   0.339  53.317  1.00  0.00    -0.274 OA
HETATM   13  H16 UNL     1      16.460  -1.305  50.974  1.00  0.00     0.169 HD
ENDBRANCH   6   9
ENDBRANCH   4   5
ENDBRANCH   3   4
ENDBRANCH   1   3
BRANCH   1  14
HETATM   14  N1  UNL     1      21.891   0.548  53.826  1.00  0.00    -0.231 NA
BRANCH  14  15
HETATM   15  C14 UNL     1      21.860  -0.599  54.424  1.00  0.00     0.198 A 
HETATM   16  N2  UNL     1      21.500  -1.865  54.907  1.00  0.00    -0.204 NA
HETATM   17  C15 UNL     1      22.697  -1.314  55.256  1.00  0.00     0.172 A 
BRANCH  17  18
HETATM   18  N3  UNL     1      23.838  -1.656  56.052  1.00  0.00    -0.381 N 
HETATM   19  H14 UNL     1      23.916  -2.603  56.510  1.00  0.00     0.157 HD
HETATM   20  H15 UNL     1      24.472  -0.830  56.048  1.00  0.00     0.157 HD
ENDBRANCH  17  18
ENDBRANCH  14  15
ENDBRANCH   1  14
BRANCH   2  21
HETATM   21  C9  UNL     1      24.363   1.021  53.219  1.00  0.00    -0.002 C 
HETATM   22  C10 UNL     1      25.343   0.157  53.222  1.00  0.00    -0.022 C 
BRANCH  22  23
HETATM   23  C11 UNL     1      26.419   0.283  54.234  1.00  0.00     0.059 C 
BRANCH  23  24
HETATM   24  P1  UNL     1      27.980   0.558  53.385  1.00  0.00    -0.112 P 
HETATM   25  C12 UNL     1      29.264   0.965  54.158  1.00  0.00     0.030 A 
HETATM   26  C13 UNL     1      29.226  -0.684  53.723  1.00  0.00    -0.009 A 
HETATM   27  H12 UNL     1      27.851   0.814  51.998  1.00  0.00     0.058 HD
ENDBRANCH  23  24
ENDBRANCH  22  23
ENDBRANCH   2  21
TORSDOF 11
ENDMDL
MODEL 2
REMARK VINA RESULT:      -6.3      4.039      8.969
REMARK  11 active torsions:
REMARK  status: ('A' for Active; 'I' for Inactive)
REMARK    1  A    between atoms: C2_2  and  C3_3 
REMARK    2  A    between atoms: C3_3  and  N4_20 
REMARK    3  A    between atoms: C4_4  and  C5_5 
REMARK    4  A    between atoms: C5_5  and  C6_6 
REMARK    5  A    between atoms: C6_6  and  C7_7 
REMARK    6  A    between atoms: C7_7  and  N1_15 
REMARK    7  A    between atoms: C8_8  and  C9_9 
REMARK    8  A    between atoms: C10_10  and  C11_11 
REMARK    9  A    between atoms: C11_11  and  P1_12 
REMARK   10  A    between atoms: N1_15  and  C14_16 
REMARK   11  A    between atoms: C15_18  and  N3_19 
REMARK       I    between atoms: N4_20  and  C16_21 
ROOT
HETATM    1  C7  UNL     1      21.982   0.477  51.879  1.00  0.00     0.038 C 
HETATM    2  C8  UNL     1      20.994   0.519  51.055  1.00  0.00     0.027 C 
ENDROOT
BRANCH   1   3
HETATM    3  C6  UNL     1      23.229   0.384  52.585  1.00  0.00     0.032 C 
BRANCH   3   4
HETATM    4  C5  UNL     1      24.401   0.399  53.122  1.00  0.00     0.060 C 
BRANCH   4   5
HETATM    5  C4  UNL     1      25.094  -0.594  53.917  1.00  0.00     0.008 C 
HETATM    6  C3  UNL     1      26.264  -0.159  53.402  1.00  0.00     0.027 C 
BRANCH   6   7
HETATM    7  C2  UNL     1      26.084   0.939  52.450  1.00  0.00     0.003 C 
HETATM    8  C1  UNL     1      26.784   1.781  51.668  1.00  0.00     0.033 C 
ENDBRANCH   6   7
BRANCH   6   9
HETATM    9  N4  UNL     1      27.647  -0.450  53.507  1.00  0.00    -0.328 N 
HETATM   10  C16 UNL     1      28.828  -0.119  54.217  1.00  0.00     0.218 C 
HETATM   11  C17 UNL     1      29.994  -0.889  53.742  1.00  0.00     0.117 C 
HETATM   12  O1  UNL     1      28.612   0.748  55.082  1.00  0.00    -0.274 OA
HETATM   13  H16 UNL     1      27.548  -1.153  52.722  1.00  0.00     0.169 HD
ENDBRANCH   6   9
ENDBRANCH   4   5
ENDBRANCH   3   4
ENDBRANCH   1   3
BRANCH   1  14
HETATM   14  N1  UNL     1      21.544   0.740  53.240  1.00  0.00    -0.231 NA
BRANCH  14  15
HETATM   15  C14 UNL     1      21.392  -0.300  53.993  1.00  0.00     0.198 A 
HETATM   16  N2  UNL     1      21.562  -1.332  54.928  1.00  0.00    -0.204 NA
HETATM   17  C15 UNL     1      20.411  -1.247  54.201  1.00  0.00     0.172 A 
BRANCH  17  18
HETATM   18  N3  UNL     1      19.175  -1.961  54.073  1.00  0.00    -0.381 N 
HETATM   19  H14 UNL     1      18.402  -1.839  54.779  1.00  0.00     0.157 HD
HETATM   20  H15 UNL     1      19.248  -2.544  53.213  1.00  0.00     0.157 HD
ENDBRANCH  17  18
ENDBRANCH  14  15
ENDBRANCH   1  14
BRANCH   2  21
HETATM   21  C9  UNL     1      19.633   0.765  51.493  1.00  0.00    -0.002 C 
HETATM   22  C10 UNL     1      18.797   0.720  50.490  1.00  0.00    -0.022 C 
BRANCH  22  23
HETATM   23  C11 UNL     1      17.352   0.948  50.738  1.00  0.00     0.059 C 
BRANCH  23  24
HETATM   24  P1  UNL     1      16.704  -0.436  51.686  1.00  0.00    -0.112 P 
HETATM   25  C12 UNL     1      15.499  -0.265  52.649  1.00  0.00     0.030 A 
HETATM   26  C13 UNL     1      15.083  -0.986  51.161  1.00  0.00    -0.009 A 
HETATM   27  H12 UNL     1      17.609  -1.516  51.832  1.00  0.00     0.058 HD
ENDBRANCH  23  24
ENDBRANCH  22  23
ENDBRANCH   2  21
TORSDOF 11
ENDMDL
MODEL 3
REMARK VINA RESULT:      -6.2      4.252      9.098
REMARK  11 active torsions:
REMARK  status: ('A' for Active; 'I' for Inactive)
REMARK    1  A    between atoms: C2_2  and  C3_3 
REMARK    2  A    between atoms: C3_3  and  N4_20 
REMARK    3  A    between atoms: C4_4  and  C5_5 
REMARK    4  A    between atoms: C5_5  and  C6_6 
REMARK    5  A    between atoms: C6_6  and  C7_7 
REMARK    6  A    between atoms: C7_7  and  N1_15 
REMARK    7  A    between atoms: C8_8  and  C9_9 
REMARK    8  A    between atoms: C10_10  and  C11_11 
REMARK    9  A    between atoms: C11_11  and  P1_12 
REMARK   10  A    between atoms: N1_15  and  C14_16 
REMARK   11  A    between atoms: C15_18  and  N3_19 
REMARK       I    between atoms: N4_20  and  C16_21 
ROOT
HETATM    1  C7  UNL     1      21.563  -0.213  53.341  1.00  0.00     0.038 C 
HETATM    2  C8  UNL     1      20.298  -0.384  53.504  1.00  0.00     0.027 C 
ENDROOT
BRANCH   1   3
HETATM    3  C6  UNL     1      22.993  -0.099  53.409  1.00  0.00     0.032 C 
BRANCH   3   4
HETATM    4  C5  UNL     1      24.270  -0.086  53.587  1.00  0.00     0.060 C 
BRANCH   4   5
HETATM    5  C4  UNL     1      25.111  -0.847  54.488  1.00  0.00     0.008 C 
HETATM    6  C3  UNL     1      26.187  -0.480  53.759  1.00  0.00     0.027 C 
BRANCH   6   7
HETATM    7  C2  UNL     1      25.831   0.373  52.623  1.00  0.00     0.003 C 
HETATM    8  C1  UNL     1      26.386   1.133  51.662  1.00  0.00     0.033 C 
ENDBRANCH   6   7
BRANCH   6   9
HETATM    9  N4  UNL     1      27.590  -0.674  53.761  1.00  0.00    -0.328 N 
HETATM   10  C16 UNL     1      28.804  -0.195  54.314  1.00  0.00     0.218 C 
HETATM   11  C17 UNL     1      29.974  -0.945  53.815  1.00  0.00     0.117 C 
HETATM   12  O1  UNL     1      28.606   0.751  55.096  1.00  0.00    -0.274 OA
HETATM   13  H16 UNL     1      27.472  -1.468  53.071  1.00  0.00     0.169 HD
ENDBRANCH   6   9
ENDBRANCH   4   5
ENDBRANCH   3   4
ENDBRANCH   1   3
BRANCH   1  14
HETATM   14  N1  UNL     1      21.867   0.207  51.983  1.00  0.00    -0.231 NA
BRANCH  14  15
HETATM   15  C14 UNL     1      21.962   1.483  51.796  1.00  0.00     0.198 A 
HETATM   16  N2  UNL     1      21.833   2.877  51.878  1.00  0.00    -0.204 NA
HETATM   17  C15 UNL     1      22.642   2.317  50.933  1.00  0.00     0.172 A 
BRANCH  17  18
HETATM   18  N3  UNL     1      23.502   2.751  49.873  1.00  0.00    -0.381 N 
HETATM   19  H14 UNL     1      23.484   2.277  48.931  1.00  0.00     0.157 HD
HETATM   20  H15 UNL     1      24.064   3.546  50.241  1.00  0.00     0.157 HD
ENDBRANCH  17  18
ENDBRANCH  14  15
ENDBRANCH   1  14
BRANCH   2  21
HETATM   21  C9  UNL     1      19.342  -0.139  52.440  1.00  0.00    -0.002 C 
HETATM   22  C10 UNL     1      18.215  -0.760  52.664  1.00  0.00    -0.022 C 
BRANCH  22  23
HETATM   23  C11 UNL     1      17.108  -0.631  51.685  1.00  0.00     0.059 C 
BRANCH  23  24
HETATM   24  P1  UNL     1      17.444   0.776  50.616  1.00  0.00    -0.112 P 
HETATM   25  C12 UNL     1      16.541   1.101  49.396  1.00  0.00     0.030 A 
HETATM   26  C13 UNL     1      16.243   2.097  50.747  1.00  0.00    -0.009 A 
HETATM   27  H12 UNL     1      18.773   1.259  50.691  1.00  0.00     0.058 HD
ENDBRANCH  23  24
ENDBRANCH  22  23
ENDBRANCH   2  21
TORSDOF 11
ENDMDL
MODEL 4
REMARK VINA RESULT:      -6.0      6.639     10.189
REMARK  11 active torsions:
REMARK  status: ('A' for Active; 'I' for Inactive)
REMARK    1  A    between atoms: C2_2  and  C3_3 
REMARK    2  A    between atoms: C3_3  and  N4_20 
REMARK    3  A    between atoms: C4_4  and  C5_5 
REMARK    4  A    between atoms: C5_5  and  C6_6 
REMARK    5  A    between atoms: C6_6  and  C7_7 
REMARK    6  A    between atoms: C7_7  and  N1_15 
REMARK    7  A    between atoms: C8_8  and  C9_9 
REMARK    8  A    between atoms: C10_10  and  C11_11 
REMARK    9  A    between atoms: C11_11  and  P1_12 
REMARK   10  A    between atoms: N1_15  and  C14_16 
REMARK   11  A    between atoms: C15_18  and  N3_19 
REMARK       I    between atoms: N4_20  and  C16_21 
ROOT
HETATM    1  C7  UNL     1      23.737   2.968  49.693  1.00  0.00     0.038 C 
HETATM    2  C8  UNL     1      22.760   2.130  49.695  1.00  0.00     0.027 C 
ENDROOT
BRANCH   1   3
HETATM    3  C6  UNL     1      24.826   3.867  49.431  1.00  0.00     0.032 C 
BRANCH   3   4
HETATM    4  C5  UNL     1      25.888   4.555  49.184  1.00  0.00     0.060 C 
BRANCH   4   5
HETATM    5  C4  UNL     1      27.265   4.143  49.002  1.00  0.00     0.008 C 
HETATM    6  C3  UNL     1      27.552   5.381  48.545  1.00  0.00     0.027 C 
BRANCH   6   7
HETATM    7  C2  UNL     1      26.380   6.258  48.527  1.00  0.00     0.003 C 
HETATM    8  C1  UNL     1      25.916   7.385  47.958  1.00  0.00     0.033 C 
ENDBRANCH   6   7
BRANCH   6   9
HETATM    9  N4  UNL     1      28.671   6.106  48.065  1.00  0.00    -0.328 N 
HETATM   10  C16 UNL     1      30.078   6.232  48.180  1.00  0.00     0.218 C 
HETATM   11  C17 UNL     1      30.613   7.290  47.301  1.00  0.00     0.117 C 
HETATM   12  O1  UNL     1      30.543   5.420  48.999  1.00  0.00    -0.274 OA
HETATM   13  H16 UNL     1      28.027   6.671  47.444  1.00  0.00     0.169 HD
ENDBRANCH   6   9
ENDBRANCH   4   5
ENDBRANCH   3   4
ENDBRANCH   1   3
BRANCH   1  14
HETATM   14  N1  UNL     1      24.029   3.439  51.037  1.00  0.00    -0.231 NA
BRANCH  14  15
HETATM   15  C14 UNL     1      23.352   4.467  51.432  1.00  0.00     0.198 A 
HETATM   16  N2  UNL     1      22.337   5.348  51.834  1.00  0.00    -0.204 NA
HETATM   17  C15 UNL     1      23.631   5.774  51.777  1.00  0.00     0.172 A 
BRANCH  17  18
HETATM   18  N3  UNL     1      24.371   6.975  52.025  1.00  0.00    -0.381 N 
HETATM   19  H14 UNL     1      24.140   7.595  52.847  1.00  0.00     0.157 HD
HETATM   20  H15 UNL     1      25.092   7.049  51.279  1.00  0.00     0.157 HD
ENDBRANCH  17  18
ENDBRANCH  14  15
ENDBRANCH   1  14
BRANCH   2  21
HETATM   21  C9  UNL     1      22.097   1.720  50.918  1.00  0.00    -0.002 C 
HETATM   22  C10 UNL     1      21.302   0.704  50.709  1.00  0.00    -0.022 C 
BRANCH  22  23
HETATM   23  C11 UNL     1      20.533   0.138  51.843  1.00  0.00     0.059 C 
BRANCH  23  24
HETATM   24  P1  UNL     1      21.643  -0.082  53.241  1.00  0.00    -0.112 P 
HETATM   25  C12 UNL     1      21.138   0.034  54.704  1.00  0.00     0.030 A 
HETATM   26  C13 UNL     1      21.346  -1.576  54.183  1.00  0.00    -0.009 A 
HETATM   27  H12 UNL     1      23.015   0.082  52.926  1.00  0.00     0.058 HD
ENDBRANCH  23  24
ENDBRANCH  22  23
ENDBRANCH   2  21
TORSDOF 11
ENDMDL
MODEL 5
REMARK VINA RESULT:      -6.0      6.479      9.738
REMARK  11 active torsions:
REMARK  status: ('A' for Active; 'I' for Inactive)
REMARK    1  A    between atoms: C2_2  and  C3_3 
REMARK    2  A    between atoms: C3_3  and  N4_20 
REMARK    3  A    between atoms: C4_4  and  C5_5 
REMARK    4  A    between atoms: C5_5  and  C6_6 
REMARK    5  A    between atoms: C6_6  and  C7_7 
REMARK    6  A    between atoms: C7_7  and  N1_15 
REMARK    7  A    between atoms: C8_8  and  C9_9 
REMARK    8  A    between atoms: C10_10  and  C11_11 
REMARK    9  A    between atoms: C11_11  and  P1_12 
REMARK   10  A    between atoms: N1_15  and  C14_16 
REMARK   11  A    between atoms: C15_18  and  N3_19 
REMARK       I    between atoms: N4_20  and  C16_21 
ROOT
HETATM    1  C7  UNL     1      24.045   3.114  49.917  1.00  0.00     0.038 C 
HETATM    2  C8  UNL     1      23.179   2.178  50.090  1.00  0.00     0.027 C 
ENDROOT
BRANCH   1   3
HETATM    3  C6  UNL     1      24.926   4.159  49.476  1.00  0.00     0.032 C 
BRANCH   3   4
HETATM    4  C5  UNL     1      25.630   5.190  49.155  1.00  0.00     0.060 C 
BRANCH   4   5
HETATM    5  C4  UNL     1      25.431   6.599  49.428  1.00  0.00     0.008 C 
HETATM    6  C3  UNL     1      26.723   6.822  49.106  1.00  0.00     0.027 C 
BRANCH   6   7
HETATM    7  C2  UNL     1      27.427   5.596  48.727  1.00  0.00     0.003 C 
HETATM    8  C1  UNL     1      28.647   5.143  48.388  1.00  0.00     0.033 C 
ENDBRANCH   6   7
BRANCH   6   9
HETATM    9  N4  UNL     1      27.626   7.911  49.021  1.00  0.00    -0.328 N 
HETATM   10  C16 UNL     1      28.035   9.103  49.670  1.00  0.00     0.218 C 
HETATM   11  C17 UNL     1      29.125   9.783  48.944  1.00  0.00     0.117 C 
HETATM   12  O1  UNL     1      27.379   9.305  50.707  1.00  0.00    -0.274 OA
HETATM   13  H16 UNL     1      28.015   7.506  48.124  1.00  0.00     0.169 HD
ENDBRANCH   6   9
ENDBRANCH   4   5
ENDBRANCH   3   4
ENDBRANCH   1   3
BRANCH   1  14
HETATM   14  N1  UNL     1      24.735   3.428  51.157  1.00  0.00    -0.231 NA
BRANCH  14  15
HETATM   15  C14 UNL     1      25.800   2.735  51.400  1.00  0.00     0.198 A 
HETATM   16  N2  UNL     1      26.923   1.900  51.308  1.00  0.00    -0.204 NA
HETATM   17  C15 UNL     1      26.601   2.487  52.496  1.00  0.00     0.172 A 
BRANCH  17  18
HETATM   18  N3  UNL     1      27.104   2.528  53.837  1.00  0.00    -0.381 N 
HETATM   19  H14 UNL     1      26.633   1.985  54.609  1.00  0.00     0.157 HD
HETATM   20  H15 UNL     1      27.939   3.149  53.831  1.00  0.00     0.157 HD
ENDBRANCH  17  18
ENDBRANCH  14  15
ENDBRANCH   1  14
BRANCH   2  21
HETATM   21  C9  UNL     1      22.987   1.532  51.375  1.00  0.00    -0.002 C 
HETATM   22  C10 UNL     1      21.759   1.670  51.796  1.00  0.00    -0.022 C 
BRANCH  22  23
HETATM   23  C11 UNL     1      21.365   1.076  53.097  1.00  0.00     0.059 C 
BRANCH  23  24
HETATM   24  P1  UNL     1      22.152  -0.533  53.258  1.00  0.00    -0.112 P 
HETATM   25  C12 UNL     1      22.829  -0.976  54.583  1.00  0.00     0.030 A 
HETATM   26  C13 UNL     1      21.288  -1.665  54.343  1.00  0.00    -0.009 A 
HETATM   27  H12 UNL     1      22.495  -1.140  52.024  1.00  0.00     0.058 HD
ENDBRANCH  23  24
ENDBRANCH  22  23
ENDBRANCH   2  21
TORSDOF 11
ENDMDL
MODEL 6
REMARK VINA RESULT:      -6.0      6.140      9.582
REMARK  11 active torsions:
REMARK  status: ('A' for Active; 'I' for Inactive)
REMARK    1  A    between atoms: C2_2  and  C3_3 
REMARK    2  A    between atoms: C3_3  and  N4_20 
REMARK    3  A    between atoms: C4_4  and  C5_5 
REMARK    4  A    between atoms: C5_5  and  C6_6 
REMARK    5  A    between atoms: C6_6  and  C7_7 
REMARK    6  A    between atoms: C7_7  and  N1_15 
REMARK    7  A    between atoms: C8_8  and  C9_9 
REMARK    8  A    between atoms: C10_10  and  C11_11 
REMARK    9  A    between atoms: C11_11  and  P1_12 
REMARK   10  A    between atoms: N1_15  and  C14_16 
REMARK   11  A    between atoms: C15_18  and  N3_19 
REMARK       I    between atoms: N4_20  and  C16_21 
ROOT
HETATM    1  C7  UNL     1      23.495   2.671  49.876  1.00  0.00     0.038 C 
HETATM    2  C8  UNL     1      22.415   1.973  49.938  1.00  0.00     0.027 C 
ENDROOT
BRANCH   1   3
HETATM    3  C6  UNL     1      24.666   3.434  49.547  1.00  0.00     0.032 C 
BRANCH   3   4
HETATM    4  C5  UNL     1      25.671   4.218  49.352  1.00  0.00     0.060 C 
BRANCH   4   5
HETATM    5  C4  UNL     1      27.058   3.927  49.051  1.00  0.00     0.008 C 
HETATM    6  C3  UNL     1      27.295   5.253  48.962  1.00  0.00     0.027 C 
BRANCH   6   7
HETATM    7  C2  UNL     1      26.094   6.055  49.202  1.00  0.00     0.003 C 
HETATM    8  C1  UNL     1      25.699   7.229  49.727  1.00  0.00     0.033 C 
ENDBRANCH   6   7
BRANCH   6   9
HETATM    9  N4  UNL     1      28.381   6.125  48.700  1.00  0.00    -0.328 N 
HETATM   10  C16 UNL     1      29.737   6.161  48.290  1.00  0.00     0.218 C 
HETATM   11  C17 UNL     1      30.264   7.539  48.239  1.00  0.00     0.117 C 
HETATM   12  O1  UNL     1      30.175   5.020  48.064  1.00  0.00    -0.274 OA
HETATM   13  H16 UNL     1      27.767   6.949  48.954  1.00  0.00     0.169 HD
ENDBRANCH   6   9
ENDBRANCH   4   5
ENDBRANCH   3   4
ENDBRANCH   1   3
BRANCH   1  14
HETATM   14  N1  UNL     1      23.990   2.995  51.203  1.00  0.00    -0.231 NA
BRANCH  14  15
HETATM   15  C14 UNL     1      24.776   2.119  51.741  1.00  0.00     0.198 A 
HETATM   16  N2  UNL     1      25.496   0.957  52.054  1.00  0.00    -0.204 NA
HETATM   17  C15 UNL     1      25.655   2.086  52.803  1.00  0.00     0.172 A 
BRANCH  17  18
HETATM   18  N3  UNL     1      26.412   2.512  53.943  1.00  0.00    -0.381 N 
HETATM   19  H14 UNL     1      25.958   2.613  54.889  1.00  0.00     0.157 HD
HETATM   20  H15 UNL     1      27.388   2.669  53.619  1.00  0.00     0.157 HD
ENDBRANCH  17  18
ENDBRANCH  14  15
ENDBRANCH   1  14
BRANCH   2  21
HETATM   21  C9  UNL     1      21.833   1.562  51.202  1.00  0.00    -0.002 C 
HETATM   22  C10 UNL     1      21.007   0.563  51.040  1.00  0.00    -0.022 C 
BRANCH  22  23
HETATM   23  C11 UNL     1      20.310  -0.001  52.221  1.00  0.00     0.059 C 
BRANCH  23  24
HETATM   24  P1  UNL     1      21.358   0.211  53.667  1.00  0.00    -0.112 P 
HETATM   25  C12 UNL     1      21.424  -0.862  54.786  1.00  0.00     0.030 A 
HETATM   26  C13 UNL     1      22.758  -0.904  53.725  1.00  0.00    -0.009 A 
HETATM   27  H12 UNL     1      21.739   1.553  53.918  1.00  0.00     0.058 HD
ENDBRANCH  23  24
ENDBRANCH  22  23
ENDBRANCH   2  21
TORSDOF 11
ENDMDL
MODEL 7
REMARK VINA RESULT:      -5.9      6.194      9.363
REMARK  11 active torsions:
REMARK  status: ('A' for Active; 'I' for Inactive)
REMARK    1  A    between atoms: C2_2  and  C3_3 
REMARK    2  A    between atoms: C3_3  and  N4_20 
REMARK    3  A    between atoms: C4_4  and  C5_5 
REMARK    4  A    between atoms: C5_5  and  C6_6 
REMARK    5  A    between atoms: C6_6  and  C7_7 
REMARK    6  A    between atoms: C7_7  and  N1_15 
REMARK    7  A    between atoms: C8_8  and  C9_9 
REMARK    8  A    between atoms: C10_10  and  C11_11 
REMARK    9  A    between atoms: C11_11  and  P1_12 
REMARK   10  A    between atoms: N1_15  and  C14_16 
REMARK   11  A    between atoms: C15_18  and  N3_19 
REMARK       I    between atoms: N4_20  and  C16_21 
ROOT
HETATM    1  C7  UNL     1      26.503   2.224  51.065  1.00  0.00     0.038 C 
HETATM    2  C8  UNL     1      26.755   1.210  51.817  1.00  0.00     0.027 C 
ENDROOT
BRANCH   1   3
HETATM    3  C6  UNL     1      26.481   3.389  50.225  1.00  0.00     0.032 C 
BRANCH   3   4
HETATM    4  C5  UNL     1      26.592   4.389  49.419  1.00  0.00     0.060 C 
BRANCH   4   5
HETATM    5  C4  UNL     1      25.690   5.487  49.138  1.00  0.00     0.008 C 
HETATM    6  C3  UNL     1      26.699   6.127  48.509  1.00  0.00     0.027 C 
BRANCH   6   7
HETATM    7  C2  UNL     1      27.946   5.360  48.524  1.00  0.00     0.003 C 
HETATM    8  C1  UNL     1      29.236   5.439  48.151  1.00  0.00     0.033 C 
ENDBRANCH   6   7
BRANCH   6   9
HETATM    9  N4  UNL     1      26.922   7.345  47.821  1.00  0.00    -0.328 N 
HETATM   10  C16 UNL     1      26.327   8.273  46.929  1.00  0.00     0.218 C 
HETATM   11  C17 UNL     1      27.227   9.404  46.625  1.00  0.00     0.117 C 
HETATM   12  O1  UNL     1      25.179   7.922  46.605  1.00  0.00    -0.274 OA
HETATM   13  H16 UNL     1      27.887   7.400  48.250  1.00  0.00     0.169 HD
ENDBRANCH   6   9
ENDBRANCH   4   5
ENDBRANCH   3   4
ENDBRANCH   1   3
BRANCH   1  14
HETATM   14  N1  UNL     1      25.078   2.344  50.803  1.00  0.00    -0.231 NA
BRANCH  14  15
HETATM   15  C14 UNL     1      24.401   3.021  51.673  1.00  0.00     0.198 A 
HETATM   16  N2  UNL     1      24.003   3.861  52.723  1.00  0.00    -0.204 NA
HETATM   17  C15 UNL     1      23.068   3.206  51.976  1.00  0.00     0.172 A 
BRANCH  17  18
HETATM   18  N3  UNL     1      21.642   3.089  51.916  1.00  0.00    -0.381 N 
HETATM   19  H14 UNL     1      21.124   2.425  52.551  1.00  0.00     0.157 HD
HETATM   20  H15 UNL     1      21.312   3.746  51.179  1.00  0.00     0.157 HD
ENDBRANCH  17  18
ENDBRANCH  14  15
ENDBRANCH   1  14
BRANCH   2  21
HETATM   21  C9  UNL     1      25.705   0.354  52.336  1.00  0.00    -0.002 C 
HETATM   22  C10 UNL     1      25.829   0.183  53.625  1.00  0.00    -0.022 C 
BRANCH  22  23
HETATM   23  C11 UNL     1      24.846  -0.665  54.343  1.00  0.00     0.059 C 
BRANCH  23  24
HETATM   24  P1  UNL     1      23.194  -0.250  53.764  1.00  0.00    -0.112 P 
HETATM   25  C12 UNL     1      22.216  -1.341  53.252  1.00  0.00     0.030 A 
HETATM   26  C13 UNL     1      21.879  -0.815  54.839  1.00  0.00    -0.009 A 
HETATM   27  H12 UNL     1      23.030   1.109  53.396  1.00  0.00     0.058 HD
ENDBRANCH  23  24
ENDBRANCH  22  23
ENDBRANCH   2  21
TORSDOF 11
ENDMDL
MODEL 8
REMARK VINA RESULT:      -5.9      4.847      9.319
REMARK  11 active torsions:
REMARK  status: ('A' for Active; 'I' for Inactive)
REMARK    1  A    between atoms: C2_2  and  C3_3 
REMARK    2  A    between atoms: C3_3  and  N4_20 
REMARK    3  A    between atoms: C4_4  and  C5_5 
REMARK    4  A    between atoms: C5_5  and  C6_6 
REMARK    5  A    between atoms: C6_6  and  C7_7 
REMARK    6  A    between atoms: C7_7  and  N1_15 
REMARK    7  A    between atoms: C8_8  and  C9_9 
REMARK    8  A    between atoms: C10_10  and  C11_11 
REMARK    9  A    between atoms: C11_11  and  P1_12 
REMARK   10  A    between atoms: N1_15  and  C14_16 
REMARK   11  A    between atoms: C15_18  and  N3_19 
REMARK       I    between atoms: N4_20  and  C16_21 
ROOT
HETATM    1  C7  UNL     1      21.800   1.223  52.645  1.00  0.00     0.038 C 
HETATM    2  C8  UNL     1      20.537   1.410  52.481  1.00  0.00     0.027 C 
ENDROOT
BRANCH   1   3
HETATM    3  C6  UNL     1      23.146   0.760  52.838  1.00  0.00     0.032 C 
BRANCH   3   4
HETATM    4  C5  UNL     1      24.390   0.485  53.035  1.00  0.00     0.060 C 
BRANCH   4   5
HETATM    5  C4  UNL     1      25.020  -0.589  53.775  1.00  0.00     0.008 C 
HETATM    6  C3  UNL     1      26.223  -0.152  53.344  1.00  0.00     0.027 C 
BRANCH   6   7
HETATM    7  C2  UNL     1      26.115   1.023  52.477  1.00  0.00     0.003 C 
HETATM    8  C1  UNL     1      26.832   1.764  51.613  1.00  0.00     0.033 C 
ENDBRANCH   6   7
BRANCH   6   9
HETATM    9  N4  UNL     1      27.591  -0.493  53.481  1.00  0.00    -0.328 N 
HETATM   10  C16 UNL     1      28.772  -0.189  54.203  1.00  0.00     0.218 C 
HETATM   11  C17 UNL     1      29.915  -1.018  53.770  1.00  0.00     0.117 C 
HETATM   12  O1  UNL     1      28.576   0.709  55.040  1.00  0.00    -0.274 OA
HETATM   13  H16 UNL     1      27.478  -1.214  52.715  1.00  0.00     0.169 HD
ENDBRANCH   6   9
ENDBRANCH   4   5
ENDBRANCH   3   4
ENDBRANCH   1   3
BRANCH   1  14
HETATM   14  N1  UNL     1      22.529   2.480  52.601  1.00  0.00    -0.231 NA
BRANCH  14  15
HETATM   15  C14 UNL     1      22.957   2.843  51.436  1.00  0.00     0.198 A 
HETATM   16  N2  UNL     1      23.197   2.967  50.060  1.00  0.00    -0.204 NA
HETATM   17  C15 UNL     1      23.825   3.795  50.943  1.00  0.00     0.172 A 
BRANCH  17  18
HETATM   18  N3  UNL     1      24.762   4.878  50.909  1.00  0.00    -0.381 N 
HETATM   19  H14 UNL     1      24.444   5.866  50.724  1.00  0.00     0.157 HD
HETATM   20  H15 UNL     1      25.703   4.473  51.094  1.00  0.00     0.157 HD
ENDBRANCH  17  18
ENDBRANCH  14  15
ENDBRANCH   1  14
BRANCH   2  21
HETATM   21  C9  UNL     1      19.968   2.735  52.316  1.00  0.00    -0.002 C 
HETATM   22  C10 UNL     1      19.112   2.762  51.331  1.00  0.00    -0.022 C 
BRANCH  22  23
HETATM   23  C11 UNL     1      18.420   4.033  51.004  1.00  0.00     0.059 C 
BRANCH  23  24
HETATM   24  P1  UNL     1      16.649   3.729  50.947  1.00  0.00    -0.112 P 
HETATM   25  C12 UNL     1      15.995   2.587  51.771  1.00  0.00     0.030 A 
HETATM   26  C13 UNL     1      15.789   4.131  52.466  1.00  0.00    -0.009 A 
HETATM   27  H12 UNL     1      16.000   4.274  49.812  1.00  0.00     0.058 HD
ENDBRANCH  23  24
ENDBRANCH  22  23
ENDBRANCH   2  21
TORSDOF 11
ENDMDL
MODEL 9
REMARK VINA RESULT:      -5.9      4.175      8.952
REMARK  11 active torsions:
REMARK  status: ('A' for Active; 'I' for Inactive)
REMARK    1  A    between atoms: C2_2  and  C3_3 
REMARK    2  A    between atoms: C3_3  and  N4_20 
REMARK    3  A    between atoms: C4_4  and  C5_5 
REMARK    4  A    between atoms: C5_5  and  C6_6 
REMARK    5  A    between atoms: C6_6  and  C7_7 
REMARK    6  A    between atoms: C7_7  and  N1_15 
REMARK    7  A    between atoms: C8_8  and  C9_9 
REMARK    8  A    between atoms: C10_10  and  C11_11 
REMARK    9  A    between atoms: C11_11  and  P1_12 
REMARK   10  A    between atoms: N1_15  and  C14_16 
REMARK   11  A    between atoms: C15_18  and  N3_19 
REMARK       I    between atoms: N4_20  and  C16_21 
ROOT
HETATM    1  C7  UNL     1      22.145   1.133  51.925  1.00  0.00     0.038 C 
HETATM    2  C8  UNL     1      21.009   1.394  51.379  1.00  0.00     0.027 C 
ENDROOT
BRANCH   1   3
HETATM    3  C6  UNL     1      23.456   1.099  52.512  1.00  0.00     0.032 C 
BRANCH   3   4
HETATM    4  C5  UNL     1      24.675   1.154  52.926  1.00  0.00     0.060 C 
BRANCH   4   5
HETATM    5  C4  UNL     1      25.917   1.345  52.205  1.00  0.00     0.008 C 
HETATM    6  C3  UNL     1      26.526   0.510  53.074  1.00  0.00     0.027 C 
BRANCH   6   7
HETATM    7  C2  UNL     1      25.611   0.003  54.098  1.00  0.00     0.003 C 
HETATM    8  C1  UNL     1      25.599  -0.706  55.242  1.00  0.00     0.033 C 
ENDBRANCH   6   7
BRANCH   6   9
HETATM    9  N4  UNL     1      27.813  -0.037  53.300  1.00  0.00    -0.328 N 
HETATM   10  C16 UNL     1      28.981   0.094  54.092  1.00  0.00     0.218 C 
HETATM   11  C17 UNL     1      30.005  -0.909  53.739  1.00  0.00     0.117 C 
HETATM   12  O1  UNL     1      28.877   1.027  54.907  1.00  0.00    -0.274 OA
HETATM   13  H16 UNL     1      27.636  -0.745  52.534  1.00  0.00     0.169 HD
ENDBRANCH   6   9
ENDBRANCH   4   5
ENDBRANCH   3   4
ENDBRANCH   1   3
BRANCH   1  14
HETATM   14  N1  UNL     1      22.264  -0.280  52.243  1.00  0.00    -0.231 NA
BRANCH  14  15
HETATM   15  C14 UNL     1      21.926  -0.616  53.446  1.00  0.00     0.198 A 
HETATM   16  N2  UNL     1      21.890  -0.841  54.830  1.00  0.00    -0.204 NA
HETATM   17  C15 UNL     1      20.833  -1.204  54.048  1.00  0.00     0.172 A 
BRANCH  17  18
HETATM   18  N3  UNL     1      19.547  -1.815  54.209  1.00  0.00    -0.381 N 
HETATM   19  H14 UNL     1      19.423  -2.856  54.100  1.00  0.00     0.157 HD
HETATM   20  H15 UNL     1      18.873  -1.053  54.431  1.00  0.00     0.157 HD
ENDBRANCH  17  18
ENDBRANCH  14  15
ENDBRANCH   1  14
BRANCH   2  21
HETATM   21  C9  UNL     1      20.027   0.361  51.108  1.00  0.00    -0.002 C 
HETATM   22  C10 UNL     1      18.850   0.697  51.563  1.00  0.00    -0.022 C 
BRANCH  22  23
HETATM   23  C11 UNL     1      17.709  -0.233  51.382  1.00  0.00     0.059 C 
BRANCH  23  24
HETATM   24  P1  UNL     1      16.848   0.199  49.863  1.00  0.00    -0.112 P 
HETATM   25  C12 UNL     1      15.958  -0.829  49.114  1.00  0.00     0.030 A 
HETATM   26  C13 UNL     1      15.068   0.297  50.034  1.00  0.00    -0.009 A 
HETATM   27  H12 UNL     1      17.379   1.330  49.194  1.00  0.00     0.058 HD
ENDBRANCH  23  24
ENDBRANCH  22  23
ENDBRANCH   2  21
TORSDOF 11
ENDMDL
