MODEL 1
REMARK VINA RESULT:      -7.0      0.000      0.000
REMARK  9 active torsions:
REMARK  status: ('A' for Active; 'I' for Inactive)
REMARK    1  A    between atoms: C2_2  and  C3_3 
REMARK    2  A    between atoms: C3_3  and  C4_4 
REMARK    3  A    between atoms: C4_4  and  N1_5 
REMARK    4  A    between atoms: N1_5  and  C5_6 
REMARK    5  A    between atoms: N1_5  and  C12_16 
REMARK    6  A    between atoms: C5_6  and  N2_8 
REMARK    7  A    between atoms: N2_8  and  C6_9 
REMARK    8  A    between atoms: C6_9  and  C7_10 
REMARK    9  A    between atoms: C17_23  and  O1_24 
ROOT
HETATM    1  N1  UNL     1      24.404   3.280  50.546  1.00  0.00    -0.322 N 
ENDROOT
BRANCH   1   2
HETATM    2  C4  UNL     1      24.018   3.283  49.189  1.00  0.00     0.131 C 
BRANCH   2   3
HETATM    3  C3  UNL     1      22.613   3.188  48.798  1.00  0.00     0.020 C 
BRANCH   3   4
HETATM    4  C2  UNL     1      22.248   1.941  48.047  1.00  0.00    -0.003 C 
HETATM    5  C1  UNL     1      21.426   1.030  48.965  1.00  0.00     0.005 C 
ENDBRANCH   3   4
ENDBRANCH   2   3
ENDBRANCH   1   2
BRANCH   1   6
HETATM    6  C5  UNL     1      24.060   4.559  51.170  1.00  0.00     0.174 C 
HETATM    7  S1  UNL     1      22.702   4.653  52.141  1.00  0.00    -0.041 SA
BRANCH   6   8
HETATM    8  N2  UNL     1      24.784   5.812  51.042  1.00  0.00    -0.363 N 
HETATM    9  H10 UNL     1      25.489   5.893  51.773  1.00  0.00     0.162 HD
BRANCH   8  10
HETATM   10  C6  UNL     1      24.862   6.999  50.244  1.00  0.00     0.157 C 
BRANCH  10  11
HETATM   11  C7  UNL     1      26.180   7.274  49.686  1.00  0.00    -0.043 A 
HETATM   12  C8  UNL     1      27.065   8.245  49.728  1.00  0.00     0.092 A 
HETATM   13  N3  UNL     1      28.333   8.366  49.114  1.00  0.00    -0.375 N 
HETATM   14  C9  UNL     1      28.762   7.280  48.309  1.00  0.00     0.084 A 
HETATM   15  H14 UNL     1      28.894   9.204  49.259  1.00  0.00     0.164 HD
HETATM   16  C10 UNL     1      27.870   6.311  48.271  1.00  0.00    -0.005 A 
HETATM   17  C11 UNL     1      26.542   6.070  48.852  1.00  0.00     0.065 A 
ENDBRANCH  10  11
ENDBRANCH   8  10
ENDBRANCH   6   8
ENDBRANCH   1   6
BRANCH   1  18
HETATM   18  C12 UNL     1      25.013   2.347  51.440  1.00  0.00     0.072 A 
HETATM   19  C13 UNL     1      23.980   1.502  51.882  1.00  0.00     0.052 A 
HETATM   20  C14 UNL     1      24.231   0.486  52.812  1.00  0.00     0.014 A 
HETATM   21 BR1  UNL     1      22.932  -0.727  53.496  1.00  0.00    -0.051 Br
HETATM   22  C15 UNL     1      25.520   0.296  53.317  1.00  0.00     0.041 A 
HETATM   23  C16 UNL     1      26.511   1.139  52.866  1.00  0.00     0.047 A 
HETATM   24 BR2  UNL     1      28.335   1.048  53.428  1.00  0.00    -0.048 Br
HETATM   25  C17 UNL     1      26.276   2.138  51.954  1.00  0.00     0.110 A 
BRANCH  25  26
HETATM   26  O1  UNL     1      27.143   3.065  51.398  1.00  0.00    -0.357 OA
HETATM   27  H21 UNL     1      28.148   2.928  51.340  1.00  0.00     0.217 HD
ENDBRANCH  25  26
ENDBRANCH   1  18
TORSDOF 9
ENDMDL
MODEL 2
REMARK VINA RESULT:      -6.9      1.368      1.605
REMARK  9 active torsions:
REMARK  status: ('A' for Active; 'I' for Inactive)
REMARK    1  A    between atoms: C2_2  and  C3_3 
REMARK    2  A    between atoms: C3_3  and  C4_4 
REMARK    3  A    between atoms: C4_4  and  N1_5 
REMARK    4  A    between atoms: N1_5  and  C5_6 
REMARK    5  A    between atoms: N1_5  and  C12_16 
REMARK    6  A    between atoms: C5_6  and  N2_8 
REMARK    7  A    between atoms: N2_8  and  C6_9 
REMARK    8  A    between atoms: C6_9  and  C7_10 
REMARK    9  A    between atoms: C17_23  and  O1_24 
ROOT
HETATM    1  N1  UNL     1      23.568   2.708  51.056  1.00  0.00    -0.322 N 
ENDROOT
BRANCH   1   2
HETATM    2  C4  UNL     1      22.613   2.897  50.034  1.00  0.00     0.131 C 
BRANCH   2   3
HETATM    3  C3  UNL     1      22.964   2.726  48.625  1.00  0.00     0.020 C 
BRANCH   3   4
HETATM    4  C2  UNL     1      22.153   1.699  47.891  1.00  0.00    -0.003 C 
HETATM    5  C1  UNL     1      21.302   0.921  48.901  1.00  0.00     0.005 C 
ENDBRANCH   3   4
ENDBRANCH   2   3
ENDBRANCH   1   2
BRANCH   1   6
HETATM    6  C5  UNL     1      24.232   3.976  51.364  1.00  0.00     0.174 C 
HETATM    7  S1  UNL     1      23.651   4.918  52.616  1.00  0.00    -0.041 SA
BRANCH   6   8
HETATM    8  N2  UNL     1      25.385   4.541  50.684  1.00  0.00    -0.363 N 
HETATM    9  H10 UNL     1      25.675   5.408  51.133  1.00  0.00     0.162 HD
BRANCH   8  10
HETATM   10  C6  UNL     1      26.276   4.314  49.586  1.00  0.00     0.157 C 
BRANCH  10  11
HETATM   11  C7  UNL     1      26.688   5.518  48.875  1.00  0.00    -0.043 A 
HETATM   12  C8  UNL     1      26.148   6.660  48.512  1.00  0.00     0.092 A 
HETATM   13  N3  UNL     1      26.693   7.758  47.807  1.00  0.00    -0.375 N 
HETATM   14  C9  UNL     1      28.049   7.650  47.403  1.00  0.00     0.084 A 
HETATM   15  H14 UNL     1      26.119   8.576  47.610  1.00  0.00     0.164 HD
HETATM   16  C10 UNL     1      28.583   6.503  47.769  1.00  0.00    -0.005 A 
HETATM   17  C11 UNL     1      28.131   5.304  48.489  1.00  0.00     0.065 A 
ENDBRANCH  10  11
ENDBRANCH   8  10
ENDBRANCH   6   8
ENDBRANCH   1   6
BRANCH   1  18
HETATM   18  C12 UNL     1      24.014   1.613  51.857  1.00  0.00     0.072 A 
HETATM   19  C13 UNL     1      22.889   1.172  52.574  1.00  0.00     0.052 A 
HETATM   20  C14 UNL     1      22.989   0.122  53.496  1.00  0.00     0.014 A 
HETATM   21 BR1  UNL     1      21.551  -0.574  54.533  1.00  0.00    -0.051 Br
HETATM   22  C15 UNL     1      24.216  -0.507  53.716  1.00  0.00     0.041 A 
HETATM   23  C16 UNL     1      25.302  -0.054  52.999  1.00  0.00     0.047 A 
HETATM   24 BR2  UNL     1      27.064  -0.775  53.149  1.00  0.00    -0.048 Br
HETATM   25  C17 UNL     1      25.214   0.975  52.093  1.00  0.00     0.110 A 
BRANCH  25  26
HETATM   26  O1  UNL     1      26.190   1.550  51.295  1.00  0.00    -0.357 OA
HETATM   27  H21 UNL     1      27.059   1.932  51.659  1.00  0.00     0.217 HD
ENDBRANCH  25  26
ENDBRANCH   1  18
TORSDOF 9
ENDMDL
MODEL 3
REMARK VINA RESULT:      -6.9      3.319      5.926
REMARK  9 active torsions:
REMARK  status: ('A' for Active; 'I' for Inactive)
REMARK    1  A    between atoms: C2_2  and  C3_3 
REMARK    2  A    between atoms: C3_3  and  C4_4 
REMARK    3  A    between atoms: C4_4  and  N1_5 
REMARK    4  A    between atoms: N1_5  and  C5_6 
REMARK    5  A    between atoms: N1_5  and  C12_16 
REMARK    6  A    between atoms: C5_6  and  N2_8 
REMARK    7  A    between atoms: N2_8  and  C6_9 
REMARK    8  A    between atoms: C6_9  and  C7_10 
REMARK    9  A    between atoms: C17_23  and  O1_24 
ROOT
HETATM    1  N1  UNL     1      23.365   2.373  51.409  1.00  0.00    -0.322 N 
ENDROOT
BRANCH   1   2
HETATM    2  C4  UNL     1      24.232   2.476  50.300  1.00  0.00     0.131 C 
BRANCH   2   3
HETATM    3  C3  UNL     1      24.150   3.602  49.373  1.00  0.00     0.020 C 
BRANCH   3   4
HETATM    4  C2  UNL     1      25.371   4.474  49.326  1.00  0.00    -0.003 C 
HETATM    5  C1  UNL     1      26.594   3.640  49.723  1.00  0.00     0.005 C 
ENDBRANCH   3   4
ENDBRANCH   2   3
ENDBRANCH   1   2
BRANCH   1   6
HETATM    6  C5  UNL     1      23.750   3.340  52.439  1.00  0.00     0.174 C 
HETATM    7  S1  UNL     1      22.915   4.783  52.556  1.00  0.00    -0.041 SA
BRANCH   6   8
HETATM    8  N2  UNL     1      24.818   3.193  53.415  1.00  0.00    -0.363 N 
HETATM    9  H10 UNL     1      24.555   3.625  54.299  1.00  0.00     0.162 HD
BRANCH   8  10
HETATM   10  C6  UNL     1      26.133   2.652  53.581  1.00  0.00     0.157 C 
BRANCH  10  11
HETATM   11  C7  UNL     1      26.206   1.197  53.524  1.00  0.00    -0.043 A 
HETATM   12  C8  UNL     1      25.947   0.183  54.321  1.00  0.00     0.092 A 
HETATM   13  N3  UNL     1      26.074  -1.210  54.114  1.00  0.00    -0.375 N 
HETATM   14  C9  UNL     1      26.559  -1.628  52.848  1.00  0.00     0.084 A 
HETATM   15  H14 UNL     1      25.823  -1.862  54.855  1.00  0.00     0.164 HD
HETATM   16  C10 UNL     1      26.816  -0.607  52.056  1.00  0.00    -0.005 A 
HETATM   17  C11 UNL     1      26.729   0.857  52.151  1.00  0.00     0.065 A 
ENDBRANCH  10  11
ENDBRANCH   8  10
ENDBRANCH   6   8
ENDBRANCH   1   6
BRANCH   1  18
HETATM   18  C12 UNL     1      22.220   1.592  51.751  1.00  0.00     0.072 A 
HETATM   19  C13 UNL     1      22.619   0.762  52.813  1.00  0.00     0.052 A 
HETATM   20  C14 UNL     1      21.734  -0.171  53.368  1.00  0.00     0.014 A 
HETATM   21 BR1  UNL     1      22.139  -1.355  54.804  1.00  0.00    -0.051 Br
HETATM   22  C15 UNL     1      20.434  -0.291  52.872  1.00  0.00     0.041 A 
HETATM   23  C16 UNL     1      20.071   0.535  51.831  1.00  0.00     0.047 A 
HETATM   24 BR2  UNL     1      18.347   0.533  51.009  1.00  0.00    -0.048 Br
HETATM   25  C17 UNL     1      20.931   1.454  51.280  1.00  0.00     0.110 A 
BRANCH  25  26
HETATM   26  O1  UNL     1      20.736   2.353  50.243  1.00  0.00    -0.357 OA
HETATM   27  H21 UNL     1      20.757   3.361  50.363  1.00  0.00     0.217 HD
ENDBRANCH  25  26
ENDBRANCH   1  18
TORSDOF 9
ENDMDL
MODEL 4
REMARK VINA RESULT:      -6.8      3.455      5.073
REMARK  9 active torsions:
REMARK  status: ('A' for Active; 'I' for Inactive)
REMARK    1  A    between atoms: C2_2  and  C3_3 
REMARK    2  A    between atoms: C3_3  and  C4_4 
REMARK    3  A    between atoms: C4_4  and  N1_5 
REMARK    4  A    between atoms: N1_5  and  C5_6 
REMARK    5  A    between atoms: N1_5  and  C12_16 
REMARK    6  A    between atoms: C5_6  and  N2_8 
REMARK    7  A    between atoms: N2_8  and  C6_9 
REMARK    8  A    between atoms: C6_9  and  C7_10 
REMARK    9  A    between atoms: C17_23  and  O1_24 
ROOT
HETATM    1  N1  UNL     1      23.300   2.302  50.946  1.00  0.00    -0.322 N 
ENDROOT
BRANCH   1   2
HETATM    2  C4  UNL     1      23.467   2.598  49.576  1.00  0.00     0.131 C 
BRANCH   2   3
HETATM    3  C3  UNL     1      23.296   3.957  49.066  1.00  0.00     0.020 C 
BRANCH   3   4
HETATM    4  C2  UNL     1      22.502   4.062  47.796  1.00  0.00    -0.003 C 
HETATM    5  C1  UNL     1      22.089   2.655  47.351  1.00  0.00     0.005 C 
ENDBRANCH   3   4
ENDBRANCH   2   3
ENDBRANCH   1   2
BRANCH   1   6
HETATM    6  C5  UNL     1      24.119   3.203  51.759  1.00  0.00     0.174 C 
HETATM    7  S1  UNL     1      23.374   4.423  52.626  1.00  0.00    -0.041 SA
BRANCH   6   8
HETATM    8  N2  UNL     1      25.564   3.167  51.910  1.00  0.00    -0.363 N 
HETATM    9  H10 UNL     1      25.880   3.935  52.500  1.00  0.00     0.162 HD
BRANCH   8  10
HETATM   10  C6  UNL     1      26.725   2.426  51.519  1.00  0.00     0.157 C 
BRANCH  10  11
HETATM   11  C7  UNL     1      27.493   1.865  52.624  1.00  0.00    -0.043 A 
HETATM   12  C8  UNL     1      28.270   2.311  53.586  1.00  0.00     0.092 A 
HETATM   13  N3  UNL     1      28.961   1.622  54.609  1.00  0.00    -0.375 N 
HETATM   14  C9  UNL     1      28.821   0.210  54.638  1.00  0.00     0.084 A 
HETATM   15  H14 UNL     1      29.527   2.136  55.282  1.00  0.00     0.164 HD
HETATM   16  C10 UNL     1      28.042  -0.229  53.671  1.00  0.00    -0.005 A 
HETATM   17  C11 UNL     1      27.281   0.374  52.567  1.00  0.00     0.065 A 
ENDBRANCH  10  11
ENDBRANCH   8  10
ENDBRANCH   6   8
ENDBRANCH   1   6
BRANCH   1  18
HETATM   18  C12 UNL     1      22.529   1.375  51.711  1.00  0.00     0.072 A 
HETATM   19  C13 UNL     1      21.249   1.363  51.131  1.00  0.00     0.052 A 
HETATM   20  C14 UNL     1      20.222   0.578  51.670  1.00  0.00     0.014 A 
HETATM   21 BR1  UNL     1      18.446   0.466  50.989  1.00  0.00    -0.051 Br
HETATM   22  C15 UNL     1      20.457  -0.210  52.799  1.00  0.00     0.041 A 
HETATM   23  C16 UNL     1      21.721  -0.178  53.346  1.00  0.00     0.047 A 
HETATM   24 BR2  UNL     1      22.249  -1.178  54.886  1.00  0.00    -0.048 Br
HETATM   25  C17 UNL     1      22.735   0.588  52.824  1.00  0.00     0.110 A 
BRANCH  25  26
HETATM   26  O1  UNL     1      24.048   0.738  53.241  1.00  0.00    -0.357 OA
HETATM   27  H21 UNL     1      24.835   0.279  52.792  1.00  0.00     0.217 HD
ENDBRANCH  25  26
ENDBRANCH   1  18
TORSDOF 9
ENDMDL
MODEL 5
REMARK VINA RESULT:      -6.8      3.514      5.186
REMARK  9 active torsions:
REMARK  status: ('A' for Active; 'I' for Inactive)
REMARK    1  A    between atoms: C2_2  and  C3_3 
REMARK    2  A    between atoms: C3_3  and  C4_4 
REMARK    3  A    between atoms: C4_4  and  N1_5 
REMARK    4  A    between atoms: N1_5  and  C5_6 
REMARK    5  A    between atoms: N1_5  and  C12_16 
REMARK    6  A    between atoms: C5_6  and  N2_8 
REMARK    7  A    between atoms: N2_8  and  C6_9 
REMARK    8  A    between atoms: C6_9  and  C7_10 
REMARK    9  A    between atoms: C17_23  and  O1_24 
ROOT
HETATM    1  N1  UNL     1      23.321   2.200  51.123  1.00  0.00    -0.322 N 
ENDROOT
BRANCH   1   2
HETATM    2  C4  UNL     1      23.411   2.419  49.731  1.00  0.00     0.131 C 
BRANCH   2   3
HETATM    3  C3  UNL     1      23.200   3.746  49.156  1.00  0.00     0.020 C 
BRANCH   3   4
HETATM    4  C2  UNL     1      22.484   3.758  47.837  1.00  0.00    -0.003 C 
HETATM    5  C1  UNL     1      22.223   2.313  47.399  1.00  0.00     0.005 C 
ENDBRANCH   3   4
ENDBRANCH   2   3
ENDBRANCH   1   2
BRANCH   1   6
HETATM    6  C5  UNL     1      24.139   3.180  51.839  1.00  0.00     0.174 C 
HETATM    7  S1  UNL     1      23.386   4.415  52.676  1.00  0.00    -0.041 SA
BRANCH   6   8
HETATM    8  N2  UNL     1      25.590   3.213  51.915  1.00  0.00    -0.363 N 
HETATM    9  H10 UNL     1      25.903   4.040  52.421  1.00  0.00     0.162 HD
BRANCH   8  10
HETATM   10  C6  UNL     1      26.761   2.487  51.524  1.00  0.00     0.157 C 
BRANCH  10  11
HETATM   11  C7  UNL     1      27.521   1.913  52.628  1.00  0.00    -0.043 A 
HETATM   12  C8  UNL     1      28.335   2.341  53.568  1.00  0.00     0.092 A 
HETATM   13  N3  UNL     1      29.011   1.640  54.593  1.00  0.00    -0.375 N 
HETATM   14  C9  UNL     1      28.804   0.238  54.655  1.00  0.00     0.084 A 
HETATM   15  H14 UNL     1      29.612   2.141  55.245  1.00  0.00     0.164 HD
HETATM   16  C10 UNL     1      27.988  -0.183  53.710  1.00  0.00    -0.005 A 
HETATM   17  C11 UNL     1      27.237   0.432  52.606  1.00  0.00     0.065 A 
ENDBRANCH  10  11
ENDBRANCH   8  10
ENDBRANCH   6   8
ENDBRANCH   1   6
BRANCH   1  18
HETATM   18  C12 UNL     1      22.626   1.292  51.978  1.00  0.00     0.072 A 
HETATM   19  C13 UNL     1      23.601   0.726  52.817  1.00  0.00     0.052 A 
HETATM   20  C14 UNL     1      23.258  -0.249  53.763  1.00  0.00     0.014 A 
HETATM   21 BR1  UNL     1      24.471  -1.098  54.960  1.00  0.00    -0.051 Br
HETATM   22  C15 UNL     1      21.933  -0.674  53.886  1.00  0.00     0.041 A 
HETATM   23  C16 UNL     1      21.000  -0.102  53.051  1.00  0.00     0.047 A 
HETATM   24 BR2  UNL     1      19.141  -0.541  53.058  1.00  0.00    -0.048 Br
HETATM   25  C17 UNL     1      21.326   0.855  52.121  1.00  0.00     0.110 A 
BRANCH  25  26
HETATM   26  O1  UNL     1      20.526   1.528  51.212  1.00  0.00    -0.357 OA
HETATM   27  H21 UNL     1      20.203   2.482  51.346  1.00  0.00     0.217 HD
ENDBRANCH  25  26
ENDBRANCH   1  18
TORSDOF 9
ENDMDL
MODEL 6
REMARK VINA RESULT:      -6.8      3.161      5.888
REMARK  9 active torsions:
REMARK  status: ('A' for Active; 'I' for Inactive)
REMARK    1  A    between atoms: C2_2  and  C3_3 
REMARK    2  A    between atoms: C3_3  and  C4_4 
REMARK    3  A    between atoms: C4_4  and  N1_5 
REMARK    4  A    between atoms: N1_5  and  C5_6 
REMARK    5  A    between atoms: N1_5  and  C12_16 
REMARK    6  A    between atoms: C5_6  and  N2_8 
REMARK    7  A    between atoms: N2_8  and  C6_9 
REMARK    8  A    between atoms: C6_9  and  C7_10 
REMARK    9  A    between atoms: C17_23  and  O1_24 
ROOT
HETATM    1  N1  UNL     1      24.179   3.971  50.044  1.00  0.00    -0.322 N 
ENDROOT
BRANCH   1   2
HETATM    2  C4  UNL     1      23.066   3.232  49.587  1.00  0.00     0.131 C 
BRANCH   2   3
HETATM    3  C3  UNL     1      22.900   2.906  48.172  1.00  0.00     0.020 C 
BRANCH   3   4
HETATM    4  C2  UNL     1      22.162   1.627  47.899  1.00  0.00    -0.003 C 
HETATM    5  C1  UNL     1      21.492   1.154  49.194  1.00  0.00     0.005 C 
ENDBRANCH   3   4
ENDBRANCH   2   3
ENDBRANCH   1   2
BRANCH   1   6
HETATM    6  C5  UNL     1      24.389   3.731  51.473  1.00  0.00     0.174 C 
HETATM    7  S1  UNL     1      23.404   4.502  52.582  1.00  0.00    -0.041 SA
BRANCH   6   8
HETATM    8  N2  UNL     1      25.392   2.867  52.072  1.00  0.00    -0.363 N 
HETATM    9  H10 UNL     1      26.178   3.417  52.415  1.00  0.00     0.162 HD
BRANCH   8  10
HETATM   10  C6  UNL     1      25.680   1.494  52.356  1.00  0.00     0.157 C 
BRANCH  10  11
HETATM   11  C7  UNL     1      27.036   1.239  52.829  1.00  0.00    -0.043 A 
HETATM   12  C8  UNL     1      28.078   1.946  53.205  1.00  0.00     0.092 A 
HETATM   13  N3  UNL     1      29.358   1.541  53.648  1.00  0.00    -0.375 N 
HETATM   14  C9  UNL     1      29.601   0.145  53.713  1.00  0.00     0.084 A 
HETATM   15  H14 UNL     1      30.055   2.238  53.904  1.00  0.00     0.164 HD
HETATM   16  C10 UNL     1      28.553  -0.557  53.334  1.00  0.00    -0.005 A 
HETATM   17  C11 UNL     1      27.194  -0.261  52.860  1.00  0.00     0.065 A 
ENDBRANCH  10  11
ENDBRANCH   8  10
ENDBRANCH   6   8
ENDBRANCH   1   6
BRANCH   1  18
HETATM   18  C12 UNL     1      25.137   4.854  49.460  1.00  0.00     0.072 A 
HETATM   19  C13 UNL     1      24.427   6.010  49.094  1.00  0.00     0.052 A 
HETATM   20  C14 UNL     1      25.069   7.075  48.450  1.00  0.00     0.014 A 
HETATM   21 BR1  UNL     1      24.233   8.696  47.899  1.00  0.00    -0.051 Br
HETATM   22  C15 UNL     1      26.434   7.003  48.160  1.00  0.00     0.041 A 
HETATM   23  C16 UNL     1      27.103   5.857  48.529  1.00  0.00     0.047 A 
HETATM   24 BR2  UNL     1      28.966   5.558  48.227  1.00  0.00    -0.048 Br
HETATM   25  C17 UNL     1      26.483   4.808  49.162  1.00  0.00     0.110 A 
BRANCH  25  26
HETATM   26  O1  UNL     1      26.996   3.597  49.600  1.00  0.00    -0.357 OA
HETATM   27  H21 UNL     1      27.483   2.942  48.994  1.00  0.00     0.217 HD
ENDBRANCH  25  26
ENDBRANCH   1  18
TORSDOF 9
ENDMDL
MODEL 7
REMARK VINA RESULT:      -6.8      2.551      4.534
REMARK  9 active torsions:
REMARK  status: ('A' for Active; 'I' for Inactive)
REMARK    1  A    between atoms: C2_2  and  C3_3 
REMARK    2  A    between atoms: C3_3  and  C4_4 
REMARK    3  A    between atoms: C4_4  and  N1_5 
REMARK    4  A    between atoms: N1_5  and  C5_6 
REMARK    5  A    between atoms: N1_5  and  C12_16 
REMARK    6  A    between atoms: C5_6  and  N2_8 
REMARK    7  A    between atoms: N2_8  and  C6_9 
REMARK    8  A    between atoms: C6_9  and  C7_10 
REMARK    9  A    between atoms: C17_23  and  O1_24 
ROOT
HETATM    1  N1  UNL     1      24.572   3.293  50.240  1.00  0.00    -0.322 N 
ENDROOT
BRANCH   1   2
HETATM    2  C4  UNL     1      24.104   3.152  48.916  1.00  0.00     0.131 C 
BRANCH   2   3
HETATM    3  C3  UNL     1      22.674   3.150  48.612  1.00  0.00     0.020 C 
BRANCH   3   4
HETATM    4  C2  UNL     1      22.163   1.888  47.981  1.00  0.00    -0.003 C 
HETATM    5  C1  UNL     1      21.468   1.041  49.054  1.00  0.00     0.005 C 
ENDBRANCH   3   4
ENDBRANCH   2   3
ENDBRANCH   1   2
BRANCH   1   6
HETATM    6  C5  UNL     1      24.405   4.677  50.687  1.00  0.00     0.174 C 
HETATM    7  S1  UNL     1      25.263   5.890  49.920  1.00  0.00    -0.041 SA
BRANCH   6   8
HETATM    8  N2  UNL     1      23.548   5.147  51.762  1.00  0.00    -0.363 N 
HETATM    9  H10 UNL     1      23.835   6.076  52.067  1.00  0.00     0.162 HD
BRANCH   8  10
HETATM   10  C6  UNL     1      22.426   4.765  52.565  1.00  0.00     0.157 C 
BRANCH  10  11
HETATM   11  C7  UNL     1      21.233   4.398  51.811  1.00  0.00    -0.043 A 
HETATM   12  C8  UNL     1      20.545   4.874  50.797  1.00  0.00     0.092 A 
HETATM   13  N3  UNL     1      19.377   4.390  50.164  1.00  0.00    -0.375 N 
HETATM   14  C9  UNL     1      18.819   3.192  50.679  1.00  0.00     0.084 A 
HETATM   15  H14 UNL     1      18.974   4.896  49.378  1.00  0.00     0.164 HD
HETATM   16  C10 UNL     1      19.513   2.721  51.696  1.00  0.00    -0.005 A 
HETATM   17  C11 UNL     1      20.719   3.124  52.433  1.00  0.00     0.065 A 
ENDBRANCH  10  11
ENDBRANCH   8  10
ENDBRANCH   6   8
ENDBRANCH   1   6
BRANCH   1  18
HETATM   18  C12 UNL     1      25.134   2.431  51.230  1.00  0.00     0.072 A 
HETATM   19  C13 UNL     1      24.080   1.613  51.675  1.00  0.00     0.052 A 
HETATM   20  C14 UNL     1      24.282   0.667  52.688  1.00  0.00     0.014 A 
HETATM   21 BR1  UNL     1      22.951  -0.502  53.386  1.00  0.00    -0.051 Br
HETATM   22  C15 UNL     1      25.542   0.522  53.274  1.00  0.00     0.041 A 
HETATM   23  C16 UNL     1      26.555   1.336  52.818  1.00  0.00     0.047 A 
HETATM   24 BR2  UNL     1      28.345   1.297  53.482  1.00  0.00    -0.048 Br
HETATM   25  C17 UNL     1      26.367   2.266  51.824  1.00  0.00     0.110 A 
BRANCH  25  26
HETATM   26  O1  UNL     1      27.261   3.156  51.251  1.00  0.00    -0.357 OA
HETATM   27  H21 UNL     1      28.146   2.875  50.838  1.00  0.00     0.217 HD
ENDBRANCH  25  26
ENDBRANCH   1  18
TORSDOF 9
ENDMDL
MODEL 8
REMARK VINA RESULT:      -6.8      3.329      6.406
REMARK  9 active torsions:
REMARK  status: ('A' for Active; 'I' for Inactive)
REMARK    1  A    between atoms: C2_2  and  C3_3 
REMARK    2  A    between atoms: C3_3  and  C4_4 
REMARK    3  A    between atoms: C4_4  and  N1_5 
REMARK    4  A    between atoms: N1_5  and  C5_6 
REMARK    5  A    between atoms: N1_5  and  C12_16 
REMARK    6  A    between atoms: C5_6  and  N2_8 
REMARK    7  A    between atoms: N2_8  and  C6_9 
REMARK    8  A    between atoms: C6_9  and  C7_10 
REMARK    9  A    between atoms: C17_23  and  O1_24 
ROOT
HETATM    1  N1  UNL     1      25.302   3.123  51.207  1.00  0.00    -0.322 N 
ENDROOT
BRANCH   1   2
HETATM    2  C4  UNL     1      26.584   3.068  50.621  1.00  0.00     0.131 C 
BRANCH   2   3
HETATM    3  C3  UNL     1      26.778   3.304  49.192  1.00  0.00     0.020 C 
BRANCH   3   4
HETATM    4  C2  UNL     1      27.449   4.602  48.849  1.00  0.00    -0.003 C 
HETATM    5  C1  UNL     1      26.406   5.725  48.881  1.00  0.00     0.005 C 
ENDBRANCH   3   4
ENDBRANCH   2   3
ENDBRANCH   1   2
BRANCH   1   6
HETATM    6  C5  UNL     1      25.309   2.434  52.498  1.00  0.00     0.174 C 
HETATM    7  S1  UNL     1      23.989   1.505  52.935  1.00  0.00    -0.041 SA
BRANCH   6   8
HETATM    8  N2  UNL     1      26.370   2.458  53.492  1.00  0.00    -0.363 N 
HETATM    9  H10 UNL     1      26.034   2.866  54.363  1.00  0.00     0.162 HD
BRANCH   8  10
HETATM   10  C6  UNL     1      27.745   2.110  53.689  1.00  0.00     0.157 C 
BRANCH  10  11
HETATM   11  C7  UNL     1      28.045   0.692  53.531  1.00  0.00    -0.043 A 
HETATM   12  C8  UNL     1      27.378  -0.418  53.304  1.00  0.00     0.092 A 
HETATM   13  N3  UNL     1      27.824  -1.753  53.174  1.00  0.00    -0.375 N 
HETATM   14  C9  UNL     1      29.219  -1.978  53.303  1.00  0.00     0.084 A 
HETATM   15  H14 UNL     1      27.157  -2.501  52.997  1.00  0.00     0.164 HD
HETATM   16  C10 UNL     1      29.880  -0.861  53.530  1.00  0.00    -0.005 A 
HETATM   17  C11 UNL     1      29.539   0.560  53.685  1.00  0.00     0.065 A 
ENDBRANCH  10  11
ENDBRANCH   8  10
ENDBRANCH   6   8
ENDBRANCH   1   6
BRANCH   1  18
HETATM   18  C12 UNL     1      24.038   3.693  50.864  1.00  0.00     0.072 A 
HETATM   19  C13 UNL     1      23.351   2.706  50.137  1.00  0.00     0.052 A 
HETATM   20  C14 UNL     1      22.078   2.957  49.609  1.00  0.00     0.014 A 
HETATM   21 BR1  UNL     1      21.036   1.717  48.607  1.00  0.00    -0.051 Br
HETATM   22  C15 UNL     1      21.469   4.199  49.801  1.00  0.00     0.041 A 
HETATM   23  C16 UNL     1      22.166   5.147  50.517  1.00  0.00     0.047 A 
HETATM   24 BR2  UNL     1      21.514   6.903  50.892  1.00  0.00    -0.048 Br
HETATM   25  C17 UNL     1      23.414   4.911  51.039  1.00  0.00     0.110 A 
BRANCH  25  26
HETATM   26  O1  UNL     1      24.247   5.738  51.776  1.00  0.00    -0.357 OA
HETATM   27  H21 UNL     1      23.924   6.319  52.544  1.00  0.00     0.217 HD
ENDBRANCH  25  26
ENDBRANCH   1  18
TORSDOF 9
ENDMDL
MODEL 9
REMARK VINA RESULT:      -6.7      2.275      3.627
REMARK  9 active torsions:
REMARK  status: ('A' for Active; 'I' for Inactive)
REMARK    1  A    between atoms: C2_2  and  C3_3 
REMARK    2  A    between atoms: C3_3  and  C4_4 
REMARK    3  A    between atoms: C4_4  and  N1_5 
REMARK    4  A    between atoms: N1_5  and  C5_6 
REMARK    5  A    between atoms: N1_5  and  C12_16 
REMARK    6  A    between atoms: C5_6  and  N2_8 
REMARK    7  A    between atoms: N2_8  and  C6_9 
REMARK    8  A    between atoms: C6_9  and  C7_10 
REMARK    9  A    between atoms: C17_23  and  O1_24 
ROOT
HETATM    1  N1  UNL     1      23.552   3.108  51.777  1.00  0.00    -0.322 N 
ENDROOT
BRANCH   1   2
HETATM    2  C4  UNL     1      23.437   4.463  52.155  1.00  0.00     0.131 C 
BRANCH   2   3
HETATM    3  C3  UNL     1      22.342   5.299  51.667  1.00  0.00     0.020 C 
BRANCH   3   4
HETATM    4  C2  UNL     1      22.768   6.512  50.892  1.00  0.00    -0.003 C 
HETATM    5  C1  UNL     1      21.553   7.423  50.687  1.00  0.00     0.005 C 
ENDBRANCH   3   4
ENDBRANCH   2   3
ENDBRANCH   1   2
BRANCH   1   6
HETATM    6  C5  UNL     1      23.758   3.006  50.331  1.00  0.00     0.174 C 
HETATM    7  S1  UNL     1      22.591   2.264  49.392  1.00  0.00    -0.041 SA
BRANCH   6   8
HETATM    8  N2  UNL     1      24.903   3.491  49.579  1.00  0.00    -0.363 N 
HETATM    9  H10 UNL     1      24.597   4.037  48.775  1.00  0.00     0.162 HD
BRANCH   8  10
HETATM   10  C6  UNL     1      26.335   3.474  49.561  1.00  0.00     0.157 C 
BRANCH  10  11
HETATM   11  C7  UNL     1      26.952   4.655  48.969  1.00  0.00    -0.043 A 
HETATM   12  C8  UNL     1      28.138   5.007  48.525  1.00  0.00     0.092 A 
HETATM   13  N3  UNL     1      28.591   6.224  47.965  1.00  0.00    -0.375 N 
HETATM   14  C9  UNL     1      27.638   7.267  47.842  1.00  0.00     0.084 A 
HETATM   15  H14 UNL     1      29.561   6.322  47.670  1.00  0.00     0.164 HD
HETATM   16  C10 UNL     1      26.452   6.907  48.290  1.00  0.00    -0.005 A 
HETATM   17  C11 UNL     1      25.865   5.698  48.884  1.00  0.00     0.065 A 
ENDBRANCH  10  11
ENDBRANCH   8  10
ENDBRANCH   6   8
ENDBRANCH   1   6
BRANCH   1  18
HETATM   18  C12 UNL     1      23.538   1.848  52.449  1.00  0.00     0.072 A 
HETATM   19  C13 UNL     1      24.856   1.364  52.392  1.00  0.00     0.052 A 
HETATM   20  C14 UNL     1      25.186   0.114  52.931  1.00  0.00     0.014 A 
HETATM   21 BR1  UNL     1      26.925  -0.665  52.925  1.00  0.00    -0.051 Br
HETATM   22  C15 UNL     1      24.204  -0.674  53.536  1.00  0.00     0.041 A 
HETATM   23  C16 UNL     1      22.922  -0.174  53.576  1.00  0.00     0.047 A 
HETATM   24 BR2  UNL     1      21.437  -1.088  54.356  1.00  0.00    -0.048 Br
HETATM   25  C17 UNL     1      22.588   1.051  53.051  1.00  0.00     0.110 A 
BRANCH  25  26
HETATM   26  O1  UNL     1      21.364   1.701  53.005  1.00  0.00    -0.357 OA
HETATM   27  H21 UNL     1      20.493   1.279  53.313  1.00  0.00     0.217 HD
ENDBRANCH  25  26
ENDBRANCH   1  18
TORSDOF 9
ENDMDL
